REMARK SMILES O=C1C(=NCCCNc2c3c(nc4cc(Cl)ccc24)CCCC3)CC(=O)c2c(O)cccc21
REMARK SMILES IDX 5 1 4 2 3 3 24 4 25 5 27 6 2 7 28 8 33 9 30 10 32 11 31 12
REMARK SMILES IDX 26 13 1 14 29 15 6 17 7 18 8 19 9 21 10 22 19 23 11 24 23 25
REMARK SMILES IDX 18 26 13 27 12 28 20 29 22 30 17 31 14 32 21 33 15 34 16 35
REMARK H PARENT 29 16 8 20
ROOT
ATOM      1  C   UNL     1       1.125  -1.369   0.579  1.00  0.00     0.144 C 
ENDROOT
BRANCH   1   2
ATOM      2  N   UNL     1       2.210  -0.879  -0.266  1.00  0.00    -0.285 NA
BRANCH   2   3
ATOM      3  C   UNL     1       3.428  -0.973   0.153  1.00  0.00     0.090 C 
ATOM      4  C   UNL     1       3.869  -1.521   1.472  1.00  0.00     0.141 C 
ATOM      5  C   UNL     1       5.245  -1.136   1.938  1.00  0.00     0.173 C 
ATOM      6  C   UNL     1       5.996  -0.087   1.197  1.00  0.00     0.071 A 
ATOM      7  C   UNL     1       4.530  -0.496  -0.766  1.00  0.00     0.208 C 
ATOM      8  C   UNL     1       7.066   0.613   1.773  1.00  0.00     0.127 A 
ATOM      9  C   UNL     1       5.678   0.167  -0.138  1.00  0.00     0.038 A 
ATOM     10  C   UNL     1       7.821   1.516   1.018  1.00  0.00     0.047 A 
ATOM     11  C   UNL     1       6.440   1.060  -0.904  1.00  0.00     0.013 A 
ATOM     12  C   UNL     1       7.513   1.732  -0.324  1.00  0.00     0.005 A 
ATOM     13  O   UNL     1       5.732  -1.701   2.913  1.00  0.00    -0.294 OA
ATOM     14  O   UNL     1       4.441  -0.628  -1.976  1.00  0.00    -0.287 OA
BRANCH   8  15
ATOM     15  O   UNL     1       7.370   0.453   3.094  1.00  0.00    -0.507 OA
ATOM     16  H   UNL     1       8.228   0.859   3.297  1.00  0.00     0.293 HD
ENDBRANCH   8  15
ENDBRANCH   2   3
ENDBRANCH   1   2
BRANCH   1  17
ATOM     17  C   UNL     1      -0.145  -1.516  -0.258  1.00  0.00     0.045 C 
BRANCH  17  18
ATOM     18  C   UNL     1      -0.614  -0.184  -0.840  1.00  0.00     0.115 C 
BRANCH  18  19
ATOM     19  N   UNL     1      -1.870  -0.340  -1.601  1.00  0.00    -0.384 N 
ATOM     20  H   UNL     1      -1.903   0.373  -2.329  1.00  0.00     0.160 HD
BRANCH  19  21
ATOM     21  C   UNL     1      -3.042  -0.220  -0.803  1.00  0.00     0.049 A 
ATOM     22  C   UNL     1      -3.482   1.022  -0.321  1.00  0.00    -0.003 A 
ATOM     23  C   UNL     1      -3.767  -1.391  -0.453  1.00  0.00     0.024 A 
ATOM     24  C   UNL     1      -4.590   1.036   0.528  1.00  0.00     0.046 A 
ATOM     25  C   UNL     1      -2.826   2.347  -0.611  1.00  0.00     0.039 C 
ATOM     26  C   UNL     1      -3.438  -2.679  -0.934  1.00  0.00     0.014 A 
ATOM     27  C   UNL     1      -4.879  -1.251   0.407  1.00  0.00     0.074 A 
ATOM     28  N   UNL     1      -5.273  -0.068   0.897  1.00  0.00    -0.252 NA
ATOM     29  C   UNL     1      -5.038   2.355   1.103  1.00  0.00     0.056 C 
ATOM     30  C   UNL     1      -3.863   3.434  -0.910  1.00  0.00     0.005 C 
ATOM     31  C   UNL     1      -4.176  -3.800  -0.562  1.00  0.00     0.021 A 
ATOM     32  C   UNL     1      -5.600  -2.379   0.769  1.00  0.00     0.049 A 
ATOM     33  C   UNL     1      -5.084   3.429   0.019  1.00  0.00     0.007 C 
ATOM     34  C   UNL     1      -5.256  -3.642   0.294  1.00  0.00     0.043 A 
ATOM     35  Cl  UNL     1      -6.179  -5.016   0.767  1.00  0.00    -0.084 Cl
ENDBRANCH  19  21
ENDBRANCH  18  19
ENDBRANCH  17  18
ENDBRANCH   1  17
TORSDOF 7
