REMARK SMILES Cc1cc(=O)[nH]c2c1C(=O)C(=NCCCCN=c1c3c([nH]c4cc(Cl)ccc14)CCCC3)C=C2O
REMARK SMILES IDX 14 1 13 2 12 3 11 4 34 5 33 6 7 7 6 8 8 9 9 10 4 11 2 12
REMARK SMILES IDX 3 13 10 15 5 16 1 17 35 18 15 20 16 21 17 22 18 23 19 24
REMARK SMILES IDX 28 25 20 26 32 27 27 28 22 29 21 30 29 31 31 32 26 33 23 34
REMARK SMILES IDX 30 35 24 36 25 38
REMARK H PARENT 6 14 35 19 21 37
ROOT
ATOM      1  C   UNL     1       0.579  -3.011  -0.497  1.00  0.00     0.025 C 
ENDROOT
BRANCH   1   2
ATOM      2  C   UNL     1       1.856  -2.217  -0.791  1.00  0.00     0.143 C 
BRANCH   2   3
ATOM      3  N   UNL     1       1.632  -0.801  -0.524  1.00  0.00    -0.281 NA
BRANCH   3   4
ATOM      4  C   UNL     1       2.639   0.004  -0.449  1.00  0.00     0.109 C 
ATOM      5  C   UNL     1       3.409   2.167   0.297  1.00  0.00     0.142 C 
ATOM      6  C   UNL     1       2.391   1.430  -0.153  1.00  0.00     0.080 C 
ATOM      7  C   UNL     1       4.717   1.607   0.588  1.00  0.00     0.095 A 
ATOM      8  N   UNL     1       5.567   2.353   1.375  1.00  0.00    -0.319 N 
ATOM      9  C   UNL     1       5.109   0.397   0.138  1.00  0.00     0.055 A 
ATOM     10  C   UNL     1       4.107  -0.375  -0.660  1.00  0.00     0.213 C 
ATOM     11  C   UNL     1       6.828   1.958   1.738  1.00  0.00     0.248 A 
ATOM     12  C   UNL     1       6.457  -0.094   0.437  1.00  0.00    -0.032 A 
ATOM     13  C   UNL     1       7.278   0.655   1.197  1.00  0.00     0.075 A 
ATOM     14  H   UNL     1       5.242   3.201   1.822  1.00  0.00     0.170 HD
ATOM     15  O   UNL     1       4.419  -1.228  -1.477  1.00  0.00    -0.287 OA
ATOM     16  O   UNL     1       7.546   2.632   2.465  1.00  0.00    -0.270 OA
ATOM     17  C   UNL     1       6.906  -1.428  -0.086  1.00  0.00     0.045 C 
BRANCH   5  18
ATOM     18  O   UNL     1       3.241   3.519   0.514  1.00  0.00    -0.506 OA
ATOM     19  H   UNL     1       4.080   3.963   0.296  1.00  0.00     0.293 HD
ENDBRANCH   5  18
ENDBRANCH   3   4
ENDBRANCH   2   3
ENDBRANCH   1   2
BRANCH   1  20
ATOM     20  C   UNL     1      -0.528  -2.845  -1.548  1.00  0.00     0.025 C 
BRANCH  20  21
ATOM     21  C   UNL     1      -1.331  -1.545  -1.444  1.00  0.00     0.143 C 
BRANCH  21  22
ATOM     22  N   UNL     1      -2.091  -1.565  -0.210  1.00  0.00    -0.284 NA
BRANCH  22  23
ATOM     23  C   UNL     1      -2.990  -0.715   0.131  1.00  0.00     0.072 A 
ATOM     24  C   UNL     1      -3.444   0.554  -0.572  1.00  0.00    -0.003 A 
ATOM     25  C   UNL     1      -3.718  -1.032   1.410  1.00  0.00     0.024 A 
ATOM     26  C   UNL     1      -4.629   1.095  -0.206  1.00  0.00     0.021 A 
ATOM     27  C   UNL     1      -2.545   1.215  -1.582  1.00  0.00     0.039 C 
ATOM     28  C   UNL     1      -3.229  -2.014   2.286  1.00  0.00     0.014 A 
ATOM     29  C   UNL     1      -4.917  -0.366   1.697  1.00  0.00     0.049 A 
ATOM     30  N   UNL     1      -5.422   0.583   0.800  1.00  0.00    -0.358 N 
ATOM     31  C   UNL     1      -5.174   2.347  -0.869  1.00  0.00     0.054 C 
ATOM     32  C   UNL     1      -2.932   2.656  -1.920  1.00  0.00     0.005 C 
ATOM     33  C   UNL     1      -3.939  -2.338   3.442  1.00  0.00     0.021 A 
ATOM     34  C   UNL     1      -5.638  -0.717   2.845  1.00  0.00     0.047 A 
ATOM     35  C   UNL     1      -4.431   2.766  -2.133  1.00  0.00     0.007 C 
ATOM     36  C   UNL     1      -5.142  -1.691   3.713  1.00  0.00     0.043 A 
ATOM     37  H   UNL     1      -6.175   1.174   1.135  1.00  0.00     0.166 HD
ATOM     38  Cl  UNL     1      -6.030  -2.100   5.130  1.00  0.00    -0.084 Cl
ENDBRANCH  22  23
ENDBRANCH  21  22
ENDBRANCH  20  21
ENDBRANCH   1  20
TORSDOF 8
