REMARK SMILES O=c1c(O)c(-c2ccc(Cl)cc2)oc2cc(F)c(I)cc12
REMARK SMILES IDX 1 1 2 2 3 3 5 4 13 5 14 6 15 7 16 8 17 9 18 10 19 11 20 12
REMARK SMILES IDX 21 13 4 14 6 16 7 17 12 18 8 19 11 20 9 21 10 22
REMARK H PARENT 4 15
ROOT
ATOM      1  O   UNL     1       2.199   2.282  -1.676  1.00  0.00    -0.285 OA
ATOM      2  C   UNL     1       1.651   1.377  -1.058  1.00  0.00     0.235 A 
ATOM      3  C   UNL     1       0.171   1.318  -0.988  1.00  0.00     0.208 A 
ATOM      4  C   UNL     1      -0.406   0.310  -0.307  1.00  0.00     0.180 A 
ATOM      5  O   UNL     1       0.304  -0.699   0.334  1.00  0.00    -0.452 OA
ATOM      6  C   UNL     1       1.673  -0.671   0.299  1.00  0.00     0.141 A 
ATOM      7  C   UNL     1       2.348  -1.691   0.967  1.00  0.00     0.088 A 
ATOM      8  C   UNL     1       3.741  -1.710   0.961  1.00  0.00     0.140 A 
ATOM      9  F   UNL     1       4.366  -2.703   1.610  1.00  0.00    -0.206 F 
ATOM     10  C   UNL     1       4.467  -0.719   0.295  1.00  0.00     0.050 A 
ATOM     11  I   UNL     1       6.545  -0.749   0.286  1.00  0.00    -0.041 I 
ATOM     12  C   UNL     1       3.793   0.304  -0.375  1.00  0.00     0.034 A 
ATOM     13  C   UNL     1       2.394   0.319  -0.365  1.00  0.00     0.070 A 
ENDROOT
BRANCH   3  14
ATOM     14  O   UNL     1      -0.527   2.309  -1.652  1.00  0.00    -0.502 OA
ATOM     15  H   UNL     1       0.162   2.872  -2.068  1.00  0.00     0.293 HD
ENDBRANCH   3  14
BRANCH   4  16
ATOM     16  C   UNL     1      -1.870   0.150  -0.183  1.00  0.00     0.021 A 
ATOM     17  C   UNL     1      -2.456  -1.107  -0.402  1.00  0.00     0.013 A 
ATOM     18  C   UNL     1      -2.700   1.220   0.189  1.00  0.00     0.013 A 
ATOM     19  C   UNL     1      -3.836  -1.288  -0.268  1.00  0.00     0.021 A 
ATOM     20  C   UNL     1      -4.080   1.042   0.323  1.00  0.00     0.021 A 
ATOM     21  C   UNL     1      -4.642  -0.211   0.093  1.00  0.00     0.041 A 
ATOM     22  Cl  UNL     1      -6.340  -0.432   0.260  1.00  0.00    -0.084 Cl
ENDBRANCH   4  16
TORSDOF 2
