REMARK SMILES COc1cc2c(cc1O)C(=O)[C@@H](C)C2
REMARK SMILES IDX 3 1 4 2 5 3 6 4 7 5 8 6 10 7 11 8 12 9 13 10 14 11 2 12 1 13
REMARK SMILES IDX 9 14
REMARK H PARENT 9 15
ROOT
ATOM      1  C   UNL     1       1.525  -1.363  -0.269  1.00  0.00     0.160 A 
ATOM      2  C   UNL     1       1.262  -0.054   0.148  1.00  0.00     0.055 A 
ATOM      3  C   UNL     1      -0.021   0.452  -0.025  1.00  0.00    -0.033 A 
ATOM      4  C   UNL     1      -1.015  -0.336  -0.598  1.00  0.00     0.025 A 
ATOM      5  C   UNL     1      -0.795  -1.632  -1.018  1.00  0.00     0.062 A 
ATOM      6  C   UNL     1       0.489  -2.131  -0.846  1.00  0.00     0.158 A 
ATOM      7  C   UNL     1      -2.246   0.439  -0.655  1.00  0.00     0.166 C 
ATOM      8  O   UNL     1      -3.306   0.006  -1.071  1.00  0.00    -0.294 OA
ATOM      9  C   UNL     1      -1.983   1.841  -0.138  1.00  0.00     0.062 C 
ATOM     10  C   UNL     1      -2.970   2.218   0.955  1.00  0.00     0.017 C 
ATOM     11  C   UNL     1      -0.522   1.809   0.364  1.00  0.00     0.048 C 
ENDROOT
BRANCH   1  12
ATOM     12  O   UNL     1       2.730  -2.013  -0.174  1.00  0.00    -0.493 OA
ATOM     13  C   UNL     1       3.807  -1.279   0.399  1.00  0.00     0.278 C 
ENDBRANCH   1  12
BRANCH   6  14
ATOM     14  O   UNL     1       0.740  -3.414  -1.255  1.00  0.00    -0.504 OA
ATOM     15  H   UNL     1       1.683  -3.569  -1.048  1.00  0.00     0.293 HD
ENDBRANCH   6  14
TORSDOF 2
