REMARK SMILES O=C([O-])[C@H](O)[C@@H](O)C(=O)[O-]
REMARK SMILES IDX 4 1 2 2 1 3 3 4 6 5 8 6 9 7 10 8 7 9 5 11
REMARK H PARENT 7 10 5 12
ROOT
ATOM      1  C   UNL     1       0.697   0.036   0.341  1.00  0.00     0.194 C 
ENDROOT
BRANCH   1   2
ATOM      2  C   UNL     1       1.655  -1.113  -0.115  1.00  0.00     0.073 C 
ATOM      3  O   UNL     1       1.881  -1.982   0.795  1.00  0.00    -0.547 OA
ATOM      4  O   UNL     1       2.151  -1.046  -1.275  1.00  0.00    -0.547 OA
ENDBRANCH   1   2
BRANCH   1   5
ATOM      5  C   UNL     1      -0.540   0.102  -0.550  1.00  0.00     0.194 C 
BRANCH   5   6
ATOM      6  C   UNL     1      -1.177   1.529  -0.518  1.00  0.00     0.073 C 
ATOM      7  O   UNL     1      -2.392   1.538  -0.118  1.00  0.00    -0.547 OA
ATOM      8  O   UNL     1      -0.482   2.498  -0.935  1.00  0.00    -0.547 OA
ENDBRANCH   5   6
BRANCH   5   9
ATOM      9  O   UNL     1      -1.553  -0.869  -0.144  1.00  0.00    -0.384 OA
ATOM     10  H   UNL     1      -2.259  -0.266   0.192  1.00  0.00     0.211 HD
ENDBRANCH   5   9
ENDBRANCH   1   5
BRANCH   1  11
ATOM     11  O   UNL     1       0.346  -0.181   1.742  1.00  0.00    -0.384 OA
ATOM     12  H   UNL     1       0.695  -1.095   1.879  1.00  0.00     0.211 HD
ENDBRANCH   1  11
TORSDOF 5
