REMARK SMILES O=C(c1cnn(C2CCCC2)c1)C(F)(F)F
REMARK SMILES IDX 1 1 2 2 3 3 4 4 12 5 5 6 6 7 7 8 8 9 11 10 9 11 10 12 13 13
REMARK SMILES IDX 14 14 15 15 16 16
REMARK H PARENT
ROOT
ATOM      1  O   UNL     1       4.550  -0.243  -0.890  1.00  0.00    -0.284 OA
ATOM      2  C   UNL     1       3.561  -0.155  -0.158  1.00  0.00     0.269 C 
ENDROOT
BRANCH   2   3
ATOM      3  C   UNL     1       2.229  -0.094  -0.746  1.00  0.00     0.065 A 
ATOM      4  C   UNL     1       1.899  -0.125  -2.118  1.00  0.00     0.147 A 
ATOM      5  C   UNL     1       1.004   0.004  -0.114  1.00  0.00     0.121 A 
ATOM      6  N   UNL     1       0.584  -0.053  -2.335  1.00  0.00    -0.180 NA
ATOM      7  N   UNL     1       0.055   0.029  -1.101  1.00  0.00    -0.269 N 
BRANCH   7   8
ATOM      8  C   UNL     1      -1.388   0.119  -0.948  1.00  0.00     0.107 C 
ATOM      9  C   UNL     1      -1.994  -1.133  -0.292  1.00  0.00     0.027 C 
ATOM     10  C   UNL     1      -1.845   1.313  -0.091  1.00  0.00     0.027 C 
ATOM     11  C   UNL     1      -3.044  -0.604   0.675  1.00  0.00     0.002 C 
ATOM     12  C   UNL     1      -2.442   0.700   1.169  1.00  0.00     0.002 C 
ENDBRANCH   7   8
ENDBRANCH   2   3
BRANCH   2  13
ATOM     13  C   UNL     1       3.671  -0.105   1.364  1.00  0.00     0.454 C 
ATOM     14  F   UNL     1       4.954  -0.168   1.817  1.00  0.00    -0.163 F 
ATOM     15  F   UNL     1       3.007  -1.134   1.968  1.00  0.00    -0.163 F 
ATOM     16  F   UNL     1       3.141   1.039   1.888  1.00  0.00    -0.163 F 
ENDBRANCH   2  13
TORSDOF 3
