REMARK SMILES COc1ccc2c(c1)C[C@@H](NC(=O)N(C)C)CC2
REMARK SMILES IDX 3 1 4 2 5 3 6 4 7 5 8 6 9 7 10 8 17 9 18 10 2 11 1 12 11 13
REMARK SMILES IDX 12 14 14 15 13 17 15 18 16 19
REMARK H PARENT 11 16
ROOT
ATOM      1  C   UNL     1       4.308  -1.374  -0.511  1.00  0.00     0.119 A 
ATOM      2  C   UNL     1       4.071  -2.000   0.712  1.00  0.00     0.047 A 
ATOM      3  C   UNL     1       2.946  -1.676   1.470  1.00  0.00     0.008 A 
ATOM      4  C   UNL     1       2.029  -0.722   1.011  1.00  0.00    -0.044 A 
ATOM      5  C   UNL     1       2.268  -0.075  -0.213  1.00  0.00    -0.039 A 
ATOM      6  C   UNL     1       3.404  -0.417  -0.971  1.00  0.00     0.050 A 
ATOM      7  C   UNL     1       1.302   0.947  -0.768  1.00  0.00     0.061 C 
ATOM      8  C   UNL     1       0.303   1.486   0.271  1.00  0.00     0.088 C 
ATOM      9  C   UNL     1      -0.268   0.334   1.099  1.00  0.00     0.030 C 
ATOM     10  C   UNL     1       0.843  -0.369   1.872  1.00  0.00     0.038 C 
ENDROOT
BRANCH   1  11
ATOM     11  O   UNL     1       5.444  -1.785  -1.154  1.00  0.00    -0.497 OA
ATOM     12  C   UNL     1       5.758  -1.137  -2.380  1.00  0.00     0.278 C 
ENDBRANCH   1  11
BRANCH   8  13
ATOM     13  N   UNL     1      -0.787   2.227  -0.362  1.00  0.00    -0.335 N 
ATOM     14  C   UNL     1      -0.579   3.486  -0.868  1.00  0.00     0.317 C 
ATOM     15  N   UNL     1      -1.692   4.057  -1.471  1.00  0.00    -0.331 N 
ATOM     16  H   UNL     1      -1.423   1.675  -0.917  1.00  0.00     0.165 HD
ATOM     17  O   UNL     1       0.510   4.049  -0.795  1.00  0.00    -0.249 OA
ATOM     18  C   UNL     1      -3.063   3.700  -1.129  1.00  0.00     0.148 C 
ATOM     19  C   UNL     1      -1.518   5.382  -2.042  1.00  0.00     0.148 C 
ENDBRANCH   8  13
TORSDOF 2
