REMARK SMILES COc1cc2c(cc1OC)C(O)=C(C)C2
REMARK SMILES IDX 11 1 13 2 14 3 15 4 5 5 4 6 3 7 8 8 7 9 6 10 12 11 9 13
REMARK SMILES IDX 10 14 2 15 1 16
REMARK H PARENT 12 12
ROOT
ATOM      1  C   UNL     1       2.035  -0.799   0.600  1.00  0.00     0.122 C 
ATOM      2  C   UNL     1       2.808   0.195   0.130  1.00  0.00    -0.026 C 
ATOM      3  C   UNL     1       4.285   0.352   0.194  1.00  0.00     0.044 C 
ATOM      4  C   UNL     1       1.968   1.264  -0.545  1.00  0.00     0.071 C 
ATOM      5  C   UNL     1       0.583   0.709  -0.379  1.00  0.00    -0.029 A 
ATOM      6  C   UNL     1      -0.625   1.244  -0.797  1.00  0.00     0.055 A 
ATOM      7  C   UNL     1      -1.799   0.529  -0.522  1.00  0.00     0.161 A 
ATOM      8  C   UNL     1      -1.739  -0.713   0.170  1.00  0.00     0.161 A 
ATOM      9  C   UNL     1      -0.505  -1.233   0.582  1.00  0.00     0.062 A 
ATOM     10  C   UNL     1       0.642  -0.512   0.300  1.00  0.00     0.024 A 
ENDROOT
BRANCH   1  11
ATOM     11  O   UNL     1       2.378  -1.933   1.261  1.00  0.00    -0.507 OA
ATOM     12  H   UNL     1       3.344  -1.939   1.362  1.00  0.00     0.293 HD
ENDBRANCH   1  11
BRANCH   8  13
ATOM     13  O   UNL     1      -2.948  -1.332   0.389  1.00  0.00    -0.493 OA
ATOM     14  C   UNL     1      -2.930  -2.575   1.076  1.00  0.00     0.278 C 
ENDBRANCH   8  13
BRANCH   7  15
ATOM     15  O   UNL     1      -3.058   0.950  -0.881  1.00  0.00    -0.493 OA
ATOM     16  C   UNL     1      -3.167   2.185  -1.574  1.00  0.00     0.278 C 
ENDBRANCH   7  15
TORSDOF 3
