REMARK SMILES N=c1c2c([nH]c3ccccc13)CCCC2
REMARK SMILES IDX 5 1 4 2 3 3 2 4 11 5 10 6 9 7 8 8 7 9 6 10 15 11 14 12 13 13
REMARK SMILES IDX 12 14 1 16
REMARK H PARENT 5 15 1 17
ROOT
ATOM      1  N   UNL     1       0.543   1.331   0.401  1.00  0.00    -0.358 N 
ATOM      2  C   UNL     1      -0.709   0.787   0.224  1.00  0.00     0.020 A 
ATOM      3  C   UNL     1      -0.905  -0.507  -0.097  1.00  0.00    -0.003 A 
ATOM      4  C   UNL     1       0.290  -1.403  -0.259  1.00  0.00     0.068 A 
ATOM      5  C   UNL     1       1.644  -0.770  -0.155  1.00  0.00     0.023 A 
ATOM      6  C   UNL     1       2.826  -1.492  -0.373  1.00  0.00     0.012 A 
ATOM      7  C   UNL     1       4.067  -0.862  -0.254  1.00  0.00     0.001 A 
ATOM      8  C   UNL     1       4.136   0.487   0.084  1.00  0.00     0.002 A 
ATOM      9  C   UNL     1       2.963   1.212   0.296  1.00  0.00     0.027 A 
ATOM     10  C   UNL     1       1.712   0.597   0.165  1.00  0.00     0.048 A 
ATOM     11  C   UNL     1      -2.263  -1.122  -0.309  1.00  0.00     0.039 C 
ATOM     12  C   UNL     1      -3.382  -0.087  -0.439  1.00  0.00     0.005 C 
ATOM     13  C   UNL     1      -3.222   1.020   0.593  1.00  0.00     0.007 C 
ATOM     14  C   UNL     1      -1.878   1.728   0.425  1.00  0.00     0.054 C 
ATOM     15  H   UNL     1       0.617   2.334   0.514  1.00  0.00     0.166 HD
ENDROOT
BRANCH   4  16
ATOM     16  N   UNL     1       0.098  -2.670  -0.475  1.00  0.00    -0.300 NA
ATOM     17  H   UNL     1       0.968  -3.194  -0.554  1.00  0.00     0.188 HD
ENDBRANCH   4  16
TORSDOF 1
