REMARK SMILES O=[N+]([O-])OCCC[NH2+]CCCCN=c1c2c([nH]c3ccccc13)CCCC2
REMARK SMILES IDX 9 1 10 2 11 3 12 4 13 5 14 6 17 7 16 8 18 9 15 10 24 11
REMARK SMILES IDX 19 12 23 13 27 14 25 15 20 16 22 17 26 18 21 19 8 21 7 24
REMARK SMILES IDX 6 25 5 26 4 27 2 28 1 29 3 30
REMARK H PARENT 17 20 8 22 8 23
ROOT
ATOM      1  C   UNL     1       1.730  -1.179  -1.159  1.00  0.00     0.260 C 
ENDROOT
BRANCH   1   2
ATOM      2  C   UNL     1       1.178  -0.958  -2.562  1.00  0.00     0.063 C 
BRANCH   2   3
ATOM      3  C   UNL     1       0.428   0.359  -2.811  1.00  0.00     0.029 C 
BRANCH   3   4
ATOM      4  C   UNL     1      -0.618   0.747  -1.758  1.00  0.00     0.143 C 
BRANCH   4   5
ATOM      5  N   UNL     1      -1.304  -0.448  -1.328  1.00  0.00    -0.284 NA
BRANCH   5   6
ATOM      6  C   UNL     1      -2.106  -0.509  -0.323  1.00  0.00     0.072 A 
ATOM      7  N   UNL     1      -3.069  -1.038   2.272  1.00  0.00    -0.358 N 
ATOM      8  C   UNL     1      -3.032   0.267   1.813  1.00  0.00     0.021 A 
ATOM      9  C   UNL     1      -3.038  -2.101   1.355  1.00  0.00     0.048 A 
ATOM     10  C   UNL     1      -2.605   0.605   0.575  1.00  0.00    -0.003 A 
ATOM     11  C   UNL     1      -3.561   1.304   2.787  1.00  0.00     0.054 C 
ATOM     12  C   UNL     1      -3.376  -3.399   1.751  1.00  0.00     0.027 A 
ATOM     13  C   UNL     1      -2.581  -1.883   0.050  1.00  0.00     0.024 A 
ATOM     14  C   UNL     1      -2.715   2.009   0.044  1.00  0.00     0.039 C 
ATOM     15  C   UNL     1      -3.336   2.750   2.352  1.00  0.00     0.007 C 
ATOM     16  C   UNL     1      -3.309  -4.456   0.839  1.00  0.00     0.002 A 
ATOM     17  C   UNL     1      -2.510  -2.943  -0.865  1.00  0.00     0.012 A 
ATOM     18  C   UNL     1      -3.634   2.911   0.870  1.00  0.00     0.005 C 
ATOM     19  C   UNL     1      -2.885  -4.228  -0.469  1.00  0.00     0.001 A 
ATOM     20  H   UNL     1      -3.643  -1.198   3.096  1.00  0.00     0.166 HD
ENDBRANCH   5   6
ENDBRANCH   4   5
ENDBRANCH   3   4
ENDBRANCH   2   3
ENDBRANCH   1   2
BRANCH   1  21
ATOM     21  N   UNL     1       2.664  -0.085  -0.730  1.00  0.00    -0.346 N 
ATOM     22  H   UNL     1       2.179   0.817  -0.826  1.00  0.00     0.346 HD
ATOM     23  H   UNL     1       2.804  -0.213   0.281  1.00  0.00     0.346 HD
BRANCH  21  24
ATOM     24  C   UNL     1       3.981  -0.047  -1.439  1.00  0.00     0.262 C 
BRANCH  24  25
ATOM     25  C   UNL     1       4.852   1.085  -0.905  1.00  0.00     0.089 C 
BRANCH  25  26
ATOM     26  C   UNL     1       5.439   0.806   0.477  1.00  0.00     0.214 C 
BRANCH  26  27
ATOM     27  O   UNL     1       6.254   1.916   0.840  1.00  0.00    -0.314 OA
BRANCH  27  28
ATOM     28  N   UNL     1       6.821   1.771   2.134  1.00  0.00     0.294 N 
ATOM     29  O   UNL     1       6.519   0.751   2.756  1.00  0.00    -0.109 OA
ATOM     30  O   UNL     1       7.532   2.718   2.452  1.00  0.00    -0.109 OA
ENDBRANCH  27  28
ENDBRANCH  26  27
ENDBRANCH  25  26
ENDBRANCH  24  25
ENDBRANCH  21  24
ENDBRANCH   1  21
TORSDOF 11
