REMARK SMILES Cc1ccccc1F
REMARK SMILES IDX 1 1 2 2 3 3 4 4 5 5 6 6 7 7 8 8
REMARK H PARENT
ROOT
ATOM      1  C   UNL     1       2.200  -0.219   0.088  1.00  0.00     0.047 C 
ATOM      2  C   UNL     1       0.711  -0.091   0.008  1.00  0.00    -0.015 A 
ATOM      3  C   UNL     1      -0.116  -1.220   0.063  1.00  0.00     0.006 A 
ATOM      4  C   UNL     1      -1.506  -1.081   0.014  1.00  0.00     0.000 A 
ATOM      5  C   UNL     1      -2.083   0.187  -0.080  1.00  0.00     0.003 A 
ATOM      6  C   UNL     1      -1.268   1.317  -0.122  1.00  0.00     0.039 A 
ATOM      7  C   UNL     1       0.115   1.171  -0.074  1.00  0.00     0.126 A 
ATOM      8  F   UNL     1       0.882   2.270  -0.105  1.00  0.00    -0.207 F 
ENDROOT
TORSDOF 0
