REMARK SMILES COc1cc2c(cc1OC)C(=O)[C@H](C[C@H]1CC[N@@H+](Cc3ccccc3)CC1)C2
REMARK SMILES IDX 14 1 15 2 17 3 18 4 16 5 26 6 27 7 19 9 20 10 21 11 25 12
REMARK SMILES IDX 22 13 24 14 23 15 13 16 11 17 28 18 6 19 5 20 7 21 4 22 8 23
REMARK SMILES IDX 3 24 12 25 9 26 10 27 2 28 1 29
REMARK H PARENT 18 8
ROOT
ATOM      1  C   UNL     1       1.781  -2.239  -2.299  1.00  0.00     0.016 C 
ENDROOT
BRANCH   1   2
ATOM      2  C   UNL     1       2.508  -2.653  -1.002  1.00  0.00     0.001 C 
ATOM      3  C   UNL     1       4.886  -2.109  -1.765  1.00  0.00     0.262 C 
ATOM      4  N   UNL     1       4.952  -1.018  -0.727  1.00  0.00    -0.331 N 
ATOM      5  C   UNL     1       3.914  -3.194  -1.314  1.00  0.00     0.065 C 
ATOM      6  C   UNL     1       3.600  -0.414  -0.424  1.00  0.00     0.262 C 
ATOM      7  C   UNL     1       2.637  -1.511   0.019  1.00  0.00     0.065 C 
ATOM      8  H   UNL     1       5.294  -1.437   0.147  1.00  0.00     0.348 HD
BRANCH   4   9
ATOM      9  C   UNL     1       5.979   0.033  -1.109  1.00  0.00     0.299 C 
BRANCH   9  10
ATOM     10  C   UNL     1       6.353   0.935   0.035  1.00  0.00     0.006 A 
ATOM     11  C   UNL     1       7.146   0.456   1.091  1.00  0.00     0.009 A 
ATOM     12  C   UNL     1       5.897   2.262   0.075  1.00  0.00     0.009 A 
ATOM     13  C   UNL     1       7.468   1.287   2.164  1.00  0.00     0.001 A 
ATOM     14  C   UNL     1       6.222   3.088   1.152  1.00  0.00     0.001 A 
ATOM     15  C   UNL     1       7.005   2.600   2.195  1.00  0.00     0.000 A 
ENDBRANCH   9  10
ENDBRANCH   4   9
ENDBRANCH   1   2
BRANCH   1  16
ATOM     16  C   UNL     1       0.298  -1.889  -2.119  1.00  0.00     0.066 C 
ATOM     17  C   UNL     1      -0.243  -1.260  -3.390  1.00  0.00     0.166 C 
ATOM     18  C   UNL     1      -0.612  -3.114  -1.871  1.00  0.00     0.048 C 
ATOM     19  C   UNL     1      -1.462  -1.947  -3.793  1.00  0.00     0.025 A 
ATOM     20  C   UNL     1      -1.677  -2.997  -2.915  1.00  0.00    -0.033 A 
ATOM     21  C   UNL     1      -2.296  -1.664  -4.861  1.00  0.00     0.062 A 
ATOM     22  C   UNL     1      -2.780  -3.810  -3.092  1.00  0.00     0.055 A 
ATOM     23  C   UNL     1      -3.417  -2.481  -5.058  1.00  0.00     0.161 A 
ATOM     24  C   UNL     1      -3.667  -3.543  -4.151  1.00  0.00     0.161 A 
ATOM     25  O   UNL     1       0.255  -0.320  -3.985  1.00  0.00    -0.294 OA
BRANCH  23  26
ATOM     26  O   UNL     1      -4.284  -2.329  -6.107  1.00  0.00    -0.493 OA
ATOM     27  C   UNL     1      -4.016  -1.306  -7.058  1.00  0.00     0.278 C 
ENDBRANCH  23  26
BRANCH  24  28
ATOM     28  O   UNL     1      -4.706  -4.439  -4.211  1.00  0.00    -0.493 OA
ATOM     29  C   UNL     1      -5.957  -3.929  -4.663  1.00  0.00     0.278 C 
ENDBRANCH  24  28
ENDBRANCH   1  16
TORSDOF 6
