REMARK SMILES COc1cc2c(cc1OC)C(=O)[C@H](C)C2
REMARK SMILES IDX 3 1 4 2 5 3 6 4 7 5 8 6 11 7 12 8 13 9 14 10 15 11 2 12 1 13
REMARK SMILES IDX 9 14 10 15
REMARK H PARENT
ROOT
ATOM      1  C   UNL     1       1.724   0.656  -0.069  1.00  0.00     0.161 A 
ATOM      2  C   UNL     1       0.514   1.354  -0.221  1.00  0.00     0.055 A 
ATOM      3  C   UNL     1      -0.677   0.688   0.025  1.00  0.00    -0.033 A 
ATOM      4  C   UNL     1      -0.655  -0.643   0.411  1.00  0.00     0.025 A 
ATOM      5  C   UNL     1       0.512  -1.368   0.570  1.00  0.00     0.062 A 
ATOM      6  C   UNL     1       1.721  -0.710   0.328  1.00  0.00     0.161 A 
ATOM      7  C   UNL     1      -2.027  -1.093   0.602  1.00  0.00     0.166 C 
ATOM      8  O   UNL     1      -2.330  -2.232   0.908  1.00  0.00    -0.294 OA
ATOM      9  C   UNL     1      -2.975   0.069   0.374  1.00  0.00     0.062 C 
ATOM     10  C   UNL     1      -4.044  -0.285  -0.645  1.00  0.00     0.017 C 
ATOM     11  C   UNL     1      -2.067   1.230  -0.093  1.00  0.00     0.048 C 
ENDROOT
BRANCH   1  12
ATOM     12  O   UNL     1       2.963   1.210  -0.283  1.00  0.00    -0.493 OA
ATOM     13  C   UNL     1       3.020   2.574  -0.674  1.00  0.00     0.278 C 
ENDBRANCH   1  12
BRANCH   6  14
ATOM     14  O   UNL     1       2.957  -1.301   0.447  1.00  0.00    -0.493 OA
ATOM     15  C   UNL     1       2.997  -2.667   0.835  1.00  0.00     0.278 C 
ENDBRANCH   6  14
TORSDOF 2
