REMARK SMILES Nc1c2c(nc3ccccc13)CCCC2
REMARK SMILES IDX 1 1 2 4 3 5 11 6 4 7 15 8 10 9 6 10 5 11 12 12 14 13 9 14
REMARK SMILES IDX 7 15 13 16 8 17
REMARK H PARENT 1 2 1 3
ROOT
ATOM      1  N   UNL     1       0.545  -1.754   1.845  1.00  0.00    -0.398 N 
ATOM      2  H   UNL     1       1.311  -2.415   1.774  1.00  0.00     0.156 HD
ATOM      3  H   UNL     1       0.637  -1.214   2.704  1.00  0.00     0.156 HD
ENDROOT
BRANCH   1   4
ATOM      4  C   UNL     1       0.477  -0.876   0.731  1.00  0.00     0.046 A 
ATOM      5  C   UNL     1      -0.757  -0.271   0.436  1.00  0.00    -0.003 A 
ATOM      6  C   UNL     1       1.651  -0.447   0.055  1.00  0.00     0.023 A 
ATOM      7  C   UNL     1      -0.798   0.647  -0.613  1.00  0.00     0.046 A 
ATOM      8  C   UNL     1      -2.016  -0.682   1.164  1.00  0.00     0.039 C 
ATOM      9  C   UNL     1       2.960  -0.913   0.344  1.00  0.00     0.012 A 
ATOM     10  C   UNL     1       1.490   0.507  -0.971  1.00  0.00     0.073 A 
ATOM     11  N   UNL     1       0.302   1.030  -1.301  1.00  0.00    -0.252 NA
ATOM     12  C   UNL     1      -2.079   1.330  -1.018  1.00  0.00     0.056 C 
ATOM     13  C   UNL     1      -3.202   0.253   0.929  1.00  0.00     0.005 C 
ATOM     14  C   UNL     1       4.067  -0.458  -0.372  1.00  0.00     0.001 A 
ATOM     15  C   UNL     1       2.608   0.942  -1.671  1.00  0.00     0.029 A 
ATOM     16  C   UNL     1      -3.329   0.595  -0.548  1.00  0.00     0.007 C 
ATOM     17  C   UNL     1       3.890   0.471  -1.385  1.00  0.00     0.002 A 
ENDBRANCH   1   4
TORSDOF 1
