REMARK SMILES Cc1ccccc1
REMARK SMILES IDX 1 1 2 2 3 3 4 4 5 5 6 6 7 7
REMARK H PARENT
ROOT
ATOM      1  C   UNL     1      -2.220   0.029   0.083  1.00  0.00     0.044 C 
ATOM      2  C   UNL     1      -0.722   0.010   0.002  1.00  0.00    -0.051 A 
ATOM      3  C   UNL     1       0.005   1.207   0.036  1.00  0.00     0.003 A 
ATOM      4  C   UNL     1       1.400   1.188  -0.007  1.00  0.00     0.000 A 
ATOM      5  C   UNL     1       2.080  -0.027  -0.075  1.00  0.00     0.000 A 
ATOM      6  C   UNL     1       1.366  -1.224  -0.094  1.00  0.00     0.000 A 
ATOM      7  C   UNL     1      -0.029  -1.206  -0.051  1.00  0.00     0.003 A 
ENDROOT
TORSDOF 0
