REMARK SMILES C[N@H+]1CC[C@H](CC/C=C2\Cc3ccccc3C2=O)CC1
REMARK SMILES IDX 7 1 6 2 5 3 2 4 3 5 20 6 4 7 19 8 1 9 8 11 9 12 10 13 17 14
REMARK SMILES IDX 11 15 16 16 12 17 15 18 13 19 14 20 18 21
REMARK H PARENT 2 10
ROOT
ATOM      1  C   UNL     1       0.206  -0.175  -0.597  1.00  0.00     0.028 C 
ENDROOT
BRANCH   1   2
ATOM      2  C   UNL     1      -0.784  -0.690   0.454  1.00  0.00     0.008 C 
BRANCH   2   3
ATOM      3  C   UNL     1      -2.098   0.113   0.520  1.00  0.00     0.000 C 
ATOM      4  N   UNL     1      -5.028   0.155   0.520  1.00  0.00    -0.337 N 
ATOM      5  C   UNL     1      -4.275   0.348   1.811  1.00  0.00     0.262 C 
ATOM      6  C   UNL     1      -4.270   0.698  -0.663  1.00  0.00     0.262 C 
ATOM      7  C   UNL     1      -2.933  -0.364   1.721  1.00  0.00     0.065 C 
ATOM      8  C   UNL     1      -2.922  -0.004  -0.772  1.00  0.00     0.065 C 
ATOM      9  C   UNL     1      -6.419   0.724   0.598  1.00  0.00     0.332 C 
ATOM     10  H   UNL     1      -5.139  -0.858   0.377  1.00  0.00     0.347 HD
ENDBRANCH   2   3
ENDBRANCH   1   2
BRANCH   1  11
ATOM     11  C   UNL     1       1.459  -0.998  -0.588  1.00  0.00    -0.019 C 
BRANCH  11  12
ATOM     12  C   UNL     1       2.695  -0.547  -0.329  1.00  0.00     0.001 C 
ATOM     13  C   UNL     1       3.178   0.842   0.009  1.00  0.00     0.075 C 
ATOM     14  C   UNL     1       3.878  -1.466  -0.345  1.00  0.00     0.189 C 
ATOM     15  C   UNL     1       4.658   0.672   0.176  1.00  0.00    -0.032 A 
ATOM     16  C   UNL     1       5.053  -0.651  -0.029  1.00  0.00     0.026 A 
ATOM     17  C   UNL     1       5.602   1.636   0.491  1.00  0.00     0.005 A 
ATOM     18  C   UNL     1       6.370  -1.061   0.069  1.00  0.00     0.012 A 
ATOM     19  C   UNL     1       6.941   1.244   0.595  1.00  0.00     0.000 A 
ATOM     20  C   UNL     1       7.323  -0.093   0.386  1.00  0.00     0.001 A 
ATOM     21  O   UNL     1       3.867  -2.659  -0.570  1.00  0.00    -0.289 OA
ENDBRANCH  11  12
ENDBRANCH   1  11
TORSDOF 4
