REMARK SMILES OC1=CNc2cc3onc(CC[C@H]4CC[N@H+](Cc5ccccc5)CC4)c3cc2C1
REMARK SMILES IDX 11 1 10 2 2 3 3 4 29 5 4 6 28 7 5 8 27 9 6 10 26 11 7 12
REMARK SMILES IDX 8 13 9 14 1 16 12 18 13 19 25 20 14 21 24 22 15 23 16 24
REMARK SMILES IDX 17 26 18 27 19 28 23 29 20 30 22 31 21 32
REMARK H PARENT 4 15 1 17 16 25
ROOT
ATOM      1  C   UNL     1       1.680  -1.376   0.570  1.00  0.00     0.061 C 
ENDROOT
BRANCH   1   2
ATOM      2  C   UNL     1       1.831  -2.462   1.583  1.00  0.00     0.091 A 
ATOM      3  C   UNL     1       4.276  -1.114   7.304  1.00  0.00     0.113 C 
ATOM      4  C   UNL     1       4.093  -2.393   7.650  1.00  0.00     0.125 C 
ATOM      5  C   UNL     1       3.864  -0.620   5.940  1.00  0.00     0.113 C 
ATOM      6  N   UNL     1       3.521  -3.328   6.829  1.00  0.00    -0.358 N 
ATOM      7  C   UNL     1       3.286  -1.696   5.032  1.00  0.00    -0.016 A 
ATOM      8  C   UNL     1       3.168  -3.027   5.500  1.00  0.00     0.046 A 
ATOM      9  C   UNL     1       2.884  -1.352   3.724  1.00  0.00     0.020 A 
ATOM     10  C   UNL     1       2.628  -4.027   4.682  1.00  0.00     0.077 A 
ATOM     11  C   UNL     1       2.351  -2.358   2.900  1.00  0.00     0.045 A 
ATOM     12  C   UNL     1       2.247  -3.643   3.400  1.00  0.00     0.169 A 
ATOM     13  O   UNL     1       1.710  -4.452   2.450  1.00  0.00    -0.356 OA
ATOM     14  N   UNL     1       1.453  -3.718   1.305  1.00  0.00    -0.084 NA
ATOM     15  H   UNL     1       3.623  -4.301   7.093  1.00  0.00     0.166 HD
BRANCH   3  16
ATOM     16  O   UNL     1       4.859  -0.223   8.181  1.00  0.00    -0.510 OA
ATOM     17  H   UNL     1       4.968   0.634   7.735  1.00  0.00     0.293 HD
ENDBRANCH   3  16
ENDBRANCH   1   2
BRANCH   1  18
ATOM     18  C   UNL     1       0.451  -1.501  -0.345  1.00  0.00     0.010 C 
BRANCH  18  19
ATOM     19  C   UNL     1      -0.912  -1.605   0.370  1.00  0.00     0.000 C 
ATOM     20  C   UNL     1      -1.228  -0.382   1.239  1.00  0.00     0.065 C 
ATOM     21  C   UNL     1      -2.031  -1.811  -0.662  1.00  0.00     0.065 C 
ATOM     22  C   UNL     1      -2.600  -0.496   1.896  1.00  0.00     0.262 C 
ATOM     23  C   UNL     1      -3.393  -1.931   0.004  1.00  0.00     0.262 C 
ATOM     24  N   UNL     1      -3.658  -0.704   0.838  1.00  0.00    -0.331 N 
ATOM     25  H   UNL     1      -3.628   0.112   0.215  1.00  0.00     0.348 HD
BRANCH  24  26
ATOM     26  C   UNL     1      -5.060  -0.730   1.417  1.00  0.00     0.299 C 
BRANCH  26  27
ATOM     27  C   UNL     1      -5.503   0.606   1.948  1.00  0.00     0.006 A 
ATOM     28  C   UNL     1      -5.591   0.831   3.330  1.00  0.00     0.009 A 
ATOM     29  C   UNL     1      -5.817   1.653   1.067  1.00  0.00     0.009 A 
ATOM     30  C   UNL     1      -5.977   2.080   3.819  1.00  0.00     0.001 A 
ATOM     31  C   UNL     1      -6.203   2.900   1.561  1.00  0.00     0.001 A 
ATOM     32  C   UNL     1      -6.280   3.113   2.935  1.00  0.00     0.000 A 
ENDBRANCH  26  27
ENDBRANCH  24  26
ENDBRANCH  18  19
ENDBRANCH   1  18
TORSDOF 6
