REMARK SMILES N=c1c2c([nH]c3cc(Cl)ccc13)[C@H]1CC[C@@H]2C1
REMARK SMILES IDX 5 1 4 2 3 3 2 4 12 5 11 6 10 7 8 8 9 9 7 10 6 11 16 12 15 13
REMARK SMILES IDX 14 14 13 15 17 16 1 18
REMARK H PARENT 5 17 1 19
ROOT
ATOM      1  N   UNL     1       0.704  -1.335  -0.350  1.00  0.00    -0.358 N 
ATOM      2  C   UNL     1      -0.526  -0.758  -0.365  1.00  0.00     0.024 A 
ATOM      3  C   UNL     1      -0.782   0.545  -0.197  1.00  0.00     0.000 A 
ATOM      4  C   UNL     1       0.326   1.485   0.015  1.00  0.00     0.068 A 
ATOM      5  C   UNL     1       1.699   0.879  -0.012  1.00  0.00     0.023 A 
ATOM      6  C   UNL     1       2.826   1.691   0.159  1.00  0.00     0.014 A 
ATOM      7  C   UNL     1       4.099   1.120   0.136  1.00  0.00     0.021 A 
ATOM      8  C   UNL     1       4.240  -0.256  -0.053  1.00  0.00     0.043 A 
ATOM      9  Cl  UNL     1       5.814  -0.954  -0.070  1.00  0.00    -0.084 Cl
ATOM     10  C   UNL     1       3.122  -1.075  -0.224  1.00  0.00     0.047 A 
ATOM     11  C   UNL     1       1.841  -0.516  -0.220  1.00  0.00     0.049 A 
ATOM     12  C   UNL     1      -2.263   0.747  -0.288  1.00  0.00     0.024 C 
ATOM     13  C   UNL     1      -2.901   0.106   0.964  1.00  0.00     0.009 C 
ATOM     14  C   UNL     1      -2.616  -1.411   0.766  1.00  0.00     0.010 C 
ATOM     15  C   UNL     1      -1.851  -1.448  -0.575  1.00  0.00     0.037 C 
ATOM     16  C   UNL     1      -2.571  -0.328  -1.344  1.00  0.00     0.018 C 
ATOM     17  H   UNL     1       0.805  -2.298  -0.645  1.00  0.00     0.166 HD
ENDROOT
BRANCH   4  18
ATOM     18  N   UNL     1       0.160   2.754   0.212  1.00  0.00    -0.300 NA
ATOM     19  H   UNL     1      -0.835   2.995   0.204  1.00  0.00     0.188 HD
ENDBRANCH   4  18
TORSDOF 1
