REMARK SMILES CCOCC[n+]1ccc(CC=C(O)[C@H]2Cc3cc(OC)c(OC)cc3S2)cc1
REMARK SMILES IDX 9 1 8 2 7 3 6 4 28 5 27 6 10 7 11 8 12 9 13 10 14 12 15 13
REMARK SMILES IDX 26 14 16 15 25 16 17 17 24 18 18 19 21 20 19 21 20 22 22 23
REMARK SMILES IDX 23 24 5 25 4 26 3 27 2 28 1 29
REMARK H PARENT 13 11
ROOT
ATOM      1  C   UNL     1       2.362  -0.039  -1.558  1.00  0.00    -0.032 A 
ATOM      2  C   UNL     1       2.714  -0.554  -0.309  1.00  0.00     0.074 A 
ATOM      3  C   UNL     1       3.745   0.030   0.415  1.00  0.00     0.308 A 
ATOM      4  N   UNL     1       4.415   1.096  -0.080  1.00  0.00    -0.203 N 
ATOM      5  C   UNL     1       4.085   1.620  -1.283  1.00  0.00     0.308 A 
ATOM      6  C   UNL     1       3.058   1.069  -2.041  1.00  0.00     0.074 A 
ENDROOT
BRANCH   1   7
ATOM      7  C   UNL     1       1.218  -0.651  -2.335  1.00  0.00     0.067 C 
BRANCH   7   8
ATOM      8  C   UNL     1      -0.115  -0.144  -1.865  1.00  0.00     0.020 C 
BRANCH   8   9
ATOM      9  C   UNL     1      -0.919  -0.789  -1.005  1.00  0.00     0.102 C 
BRANCH   9  10
ATOM     10  O   UNL     1      -0.503  -1.993  -0.453  1.00  0.00    -0.511 OA
ATOM     11  H   UNL     1      -1.119  -2.214   0.274  1.00  0.00     0.293 HD
ENDBRANCH   9  10
BRANCH   9  12
ATOM     12  C   UNL     1      -2.263  -0.250  -0.562  1.00  0.00     0.121 C 
ATOM     13  C   UNL     1      -3.456  -1.089  -1.064  1.00  0.00     0.059 C 
ATOM     14  S   UNL     1      -2.356  -0.243   1.267  1.00  0.00    -0.114 SA
ATOM     15  C   UNL     1      -4.526  -1.018  -0.011  1.00  0.00    -0.029 A 
ATOM     16  C   UNL     1      -4.080  -0.623   1.247  1.00  0.00     0.015 A 
ATOM     17  C   UNL     1      -5.858  -1.385  -0.201  1.00  0.00     0.055 A 
ATOM     18  C   UNL     1      -4.947  -0.570   2.322  1.00  0.00     0.065 A 
ATOM     19  C   UNL     1      -6.758  -1.338   0.876  1.00  0.00     0.161 A 
ATOM     20  C   UNL     1      -6.297  -0.906   2.140  1.00  0.00     0.161 A 
BRANCH  19  21
ATOM     21  O   UNL     1      -8.068  -1.724   0.775  1.00  0.00    -0.493 OA
ATOM     22  C   UNL     1      -8.543  -2.186  -0.482  1.00  0.00     0.278 C 
ENDBRANCH  19  21
BRANCH  20  23
ATOM     23  O   UNL     1      -7.024  -0.810   3.300  1.00  0.00    -0.493 OA
ATOM     24  C   UNL     1      -8.411  -0.520   3.175  1.00  0.00     0.278 C 
ENDBRANCH  20  23
ENDBRANCH   9  12
ENDBRANCH   8   9
ENDBRANCH   7   8
ENDBRANCH   1   7
BRANCH   4  25
ATOM     25  C   UNL     1       5.507   1.702   0.713  1.00  0.00     0.385 C 
BRANCH  25  26
ATOM     26  C   UNL     1       6.835   1.035   0.365  1.00  0.00     0.233 C 
BRANCH  26  27
ATOM     27  O   UNL     1       7.840   1.447   1.285  1.00  0.00    -0.375 OA
BRANCH  27  28
ATOM     28  C   UNL     1       8.628   2.556   0.852  1.00  0.00     0.157 C 
ATOM     29  C   UNL     1       9.752   2.097  -0.059  1.00  0.00     0.035 C 
ENDBRANCH  27  28
ENDBRANCH  26  27
ENDBRANCH  25  26
ENDBRANCH   4  25
TORSDOF 11
