REMARK SMILES O=C1CCc2cc(C(O)=CC[C@H]3CC[N@H+](Cc4ccc(O)cc4)CC3)cc3ccn1c23
REMARK SMILES IDX 12 1 13 2 14 3 15 4 24 5 25 6 11 8 10 9 8 10 9 11 7 13 6 14
REMARK SMILES IDX 26 15 5 16 27 17 31 18 4 19 28 20 30 21 3 22 29 23 2 24 1 25
REMARK SMILES IDX 16 26 17 27 18 28 23 29 19 30 22 31 20 32 21 33
REMARK H PARENT 15 7 9 12 21 34
ROOT
ATOM      1  C   UNL     1      -0.492  -1.692  -0.254  1.00  0.00     0.004 C 
ATOM      2  C   UNL     1      -1.871  -1.748  -0.925  1.00  0.00     0.065 C 
ATOM      3  C   UNL     1      -2.997  -1.532   0.078  1.00  0.00     0.262 C 
ATOM      4  N   UNL     1      -2.789  -0.217   0.794  1.00  0.00    -0.331 N 
ATOM      5  C   UNL     1      -1.466  -0.170   1.516  1.00  0.00     0.262 C 
ATOM      6  C   UNL     1      -0.333  -0.376   0.521  1.00  0.00     0.065 C 
ATOM      7  H   UNL     1      -2.777   0.516   0.074  1.00  0.00     0.348 HD
ENDROOT
BRANCH   1   8
ATOM      8  C   UNL     1       0.666  -1.930  -1.244  1.00  0.00     0.035 C 
BRANCH   8   9
ATOM      9  C   UNL     1       0.764  -0.915  -2.349  1.00  0.00     0.020 C 
BRANCH   9  10
ATOM     10  C   UNL     1       1.692   0.040  -2.509  1.00  0.00     0.118 C 
BRANCH  10  11
ATOM     11  O   UNL     1       1.593   0.899  -3.583  1.00  0.00    -0.508 OA
ATOM     12  H   UNL     1       2.422   1.409  -3.639  1.00  0.00     0.293 HD
ENDBRANCH  10  11
BRANCH  10  13
ATOM     13  C   UNL     1       2.816   0.290  -1.597  1.00  0.00     0.017 A 
ATOM     14  C   UNL     1       3.895  -0.607  -1.537  1.00  0.00     0.017 A 
ATOM     15  C   UNL     1       2.792   1.445  -0.786  1.00  0.00     0.022 A 
ATOM     16  C   UNL     1       4.971  -0.375  -0.678  1.00  0.00    -0.022 A 
ATOM     17  C   UNL     1       3.857   1.677   0.103  1.00  0.00     0.001 A 
ATOM     18  C   UNL     1       4.902   0.773   0.106  1.00  0.00     0.059 A 
ATOM     19  C   UNL     1       6.131  -1.296  -0.459  1.00  0.00     0.047 C 
ATOM     20  C   UNL     1       4.174   2.655   1.085  1.00  0.00     0.029 A 
ATOM     21  N   UNL     1       5.852   1.177   1.016  1.00  0.00    -0.287 N 
ATOM     22  C   UNL     1       7.347  -0.533   0.099  1.00  0.00     0.106 C 
ATOM     23  C   UNL     1       5.384   2.305   1.655  1.00  0.00     0.095 A 
ATOM     24  C   UNL     1       7.060   0.489   1.194  1.00  0.00     0.231 C 
ATOM     25  O   UNL     1       7.817   0.812   2.097  1.00  0.00    -0.274 OA
ENDBRANCH  10  13
ENDBRANCH   9  10
ENDBRANCH   8   9
ENDBRANCH   1   8
BRANCH   4  26
ATOM     26  C   UNL     1      -3.933   0.130   1.725  1.00  0.00     0.299 C 
BRANCH  26  27
ATOM     27  C   UNL     1      -5.213   0.442   0.998  1.00  0.00     0.006 A 
ATOM     28  C   UNL     1      -5.358   1.647   0.288  1.00  0.00     0.013 A 
ATOM     29  C   UNL     1      -6.275  -0.476   1.000  1.00  0.00     0.013 A 
ATOM     30  C   UNL     1      -6.537   1.924  -0.409  1.00  0.00     0.046 A 
ATOM     31  C   UNL     1      -7.449  -0.198   0.300  1.00  0.00     0.046 A 
ATOM     32  C   UNL     1      -7.571   0.996  -0.399  1.00  0.00     0.115 A 
BRANCH  32  33
ATOM     33  O   UNL     1      -8.738   1.217  -1.065  1.00  0.00    -0.508 OA
ATOM     34  H   UNL     1      -8.725   2.103  -1.464  1.00  0.00     0.293 HD
ENDBRANCH  32  33
ENDBRANCH  26  27
ENDBRANCH   4  26
TORSDOF 8
