REMARK SMILES O=C1C(=NCCCN=c2c3c([nH]c4cc(Cl)ccc24)CCCC3)CC(=O)c2c(O)cccc21
REMARK SMILES IDX 6 1 7 2 8 3 9 4 12 5 11 6 13 7 10 8 20 9 14 10 19 11 23 12
REMARK SMILES IDX 21 13 15 14 18 15 22 16 17 17 16 19 5 20 4 21 3 22 24 23
REMARK SMILES IDX 2 24 25 25 33 26 27 27 32 28 28 29 31 30 30 31 1 32 26 33
REMARK SMILES IDX 29 34
REMARK H PARENT 12 18 29 35
ROOT
ATOM      1  C   UNL     1       0.625  -0.494  -1.670  1.00  0.00     0.047 C 
ENDROOT
BRANCH   1   2
ATOM      2  C   UNL     1      -0.457  -1.133  -0.794  1.00  0.00     0.145 C 
BRANCH   2   3
ATOM      3  N   UNL     1      -1.713  -0.453  -1.049  1.00  0.00    -0.284 NA
BRANCH   3   4
ATOM      4  C   UNL     1      -2.698  -0.360  -0.217  1.00  0.00     0.072 A 
ATOM      5  N   UNL     1      -4.496   0.684   1.685  1.00  0.00    -0.358 N 
ATOM      6  C   UNL     1      -4.610   1.068   0.365  1.00  0.00     0.021 A 
ATOM      7  C   UNL     1      -3.760  -0.459   2.034  1.00  0.00     0.049 A 
ATOM      8  C   UNL     1      -3.807   0.587  -0.604  1.00  0.00    -0.003 A 
ATOM      9  C   UNL     1      -5.688   2.085   0.054  1.00  0.00     0.054 C 
ATOM     10  C   UNL     1      -3.901  -1.014   3.313  1.00  0.00     0.047 A 
ATOM     11  C   UNL     1      -2.872  -1.044   1.109  1.00  0.00     0.024 A 
ATOM     12  C   UNL     1      -3.907   0.986  -2.052  1.00  0.00     0.039 C 
ATOM     13  C   UNL     1      -5.543   2.746  -1.317  1.00  0.00     0.007 C 
ATOM     14  C   UNL     1      -3.228  -2.188   3.641  1.00  0.00     0.043 A 
ATOM     15  C   UNL     1      -2.250  -2.255   1.436  1.00  0.00     0.014 A 
ATOM     16  C   UNL     1      -5.210   1.713  -2.385  1.00  0.00     0.005 C 
ATOM     17  C   UNL     1      -2.419  -2.821   2.703  1.00  0.00     0.021 A 
ATOM     18  H   UNL     1      -5.240   0.969   2.312  1.00  0.00     0.166 HD
ATOM     19  Cl  UNL     1      -3.425  -2.880   5.204  1.00  0.00    -0.084 Cl
ENDBRANCH   3   4
ENDBRANCH   2   3
ENDBRANCH   1   2
BRANCH   1  20
ATOM     20  C   UNL     1       1.051   0.886  -1.169  1.00  0.00     0.144 C 
BRANCH  20  21
ATOM     21  N   UNL     1       1.860   0.751   0.043  1.00  0.00    -0.285 NA
BRANCH  21  22
ATOM     22  C   UNL     1       3.147   0.809  -0.010  1.00  0.00     0.090 C 
ATOM     23  C   UNL     1       3.982   0.960  -1.241  1.00  0.00     0.141 C 
ATOM     24  C   UNL     1       3.909   0.713   1.294  1.00  0.00     0.208 C 
ATOM     25  C   UNL     1       5.431   0.575  -1.121  1.00  0.00     0.173 C 
ATOM     26  C   UNL     1       5.162  -0.048   1.270  1.00  0.00     0.038 A 
ATOM     27  C   UNL     1       5.880  -0.177   0.081  1.00  0.00     0.071 A 
ATOM     28  C   UNL     1       5.617  -0.639   2.456  1.00  0.00     0.013 A 
ATOM     29  C   UNL     1       7.046  -0.955   0.084  1.00  0.00     0.127 A 
ATOM     30  C   UNL     1       6.787  -1.395   2.449  1.00  0.00     0.005 A 
ATOM     31  C   UNL     1       7.497  -1.562   1.261  1.00  0.00     0.047 A 
ATOM     32  O   UNL     1       3.483   1.219   2.319  1.00  0.00    -0.287 OA
ATOM     33  O   UNL     1       6.221   0.890  -2.008  1.00  0.00    -0.294 OA
BRANCH  29  34
ATOM     34  O   UNL     1       7.742  -1.169  -1.071  1.00  0.00    -0.507 OA
ATOM     35  H   UNL     1       8.606  -1.568  -0.877  1.00  0.00     0.293 HD
ENDBRANCH  29  34
ENDBRANCH  21  22
ENDBRANCH  20  21
ENDBRANCH   1  20
TORSDOF 7
