REMARK SMILES COc1cc(C=Cc2nnc(-c3ccc(Cl)cc3)o2)ccc1O
REMARK SMILES IDX 6 1 5 2 22 3 21 4 3 5 20 6 4 7 23 8 2 10 1 11 7 12 8 13 9 14
REMARK SMILES IDX 19 15 10 16 11 17 12 18 13 19 18 20 14 21 17 22 15 23 16 24
REMARK H PARENT 23 9
ROOT
ATOM      1  C   UNL     1      -1.412   1.252   0.391  1.00  0.00     0.014 C 
ENDROOT
BRANCH   1   2
ATOM      2  C   UNL     1      -2.805   0.799   0.506  1.00  0.00    -0.022 A 
ATOM      3  C   UNL     1      -5.481   0.031   0.744  1.00  0.00     0.157 A 
ATOM      4  C   UNL     1      -4.995   1.089   1.510  1.00  0.00     0.051 A 
ATOM      5  C   UNL     1      -4.651  -0.648  -0.159  1.00  0.00     0.161 A 
ATOM      6  C   UNL     1      -3.660   1.475   1.385  1.00  0.00     0.012 A 
ATOM      7  C   UNL     1      -3.313  -0.253  -0.274  1.00  0.00     0.058 A 
BRANCH   3   8
ATOM      8  O   UNL     1      -6.790  -0.350   0.866  1.00  0.00    -0.504 OA
ATOM      9  H   UNL     1      -7.229   0.219   1.516  1.00  0.00     0.293 HD
ENDBRANCH   3   8
BRANCH   5  10
ATOM     10  O   UNL     1      -5.235  -1.665  -0.868  1.00  0.00    -0.493 OA
ATOM     11  C   UNL     1      -4.438  -2.339  -1.831  1.00  0.00     0.278 C 
ENDBRANCH   5  10
ENDBRANCH   1   2
BRANCH   1  12
ATOM     12  C   UNL     1      -0.366   0.415   0.314  1.00  0.00     0.071 C 
BRANCH  12  13
ATOM     13  C   UNL     1       0.966   0.904   0.221  1.00  0.00     0.241 A 
ATOM     14  N   UNL     1       1.369   2.167   0.190  1.00  0.00    -0.108 NA
ATOM     15  O   UNL     1       2.055   0.052   0.149  1.00  0.00    -0.417 OA
ATOM     16  N   UNL     1       2.743   2.171   0.096  1.00  0.00    -0.107 NA
ATOM     17  C   UNL     1       3.116   0.911   0.074  1.00  0.00     0.248 A 
BRANCH  17  18
ATOM     18  C   UNL     1       4.449   0.330  -0.015  1.00  0.00     0.039 A 
ATOM     19  C   UNL     1       4.656  -1.059  -0.018  1.00  0.00     0.015 A 
ATOM     20  C   UNL     1       5.569   1.173  -0.101  1.00  0.00     0.015 A 
ATOM     21  C   UNL     1       5.947  -1.591  -0.105  1.00  0.00     0.021 A 
ATOM     22  C   UNL     1       6.862   0.644  -0.188  1.00  0.00     0.021 A 
ATOM     23  C   UNL     1       7.044  -0.736  -0.190  1.00  0.00     0.041 A 
ATOM     24  Cl  UNL     1       8.631  -1.390  -0.296  1.00  0.00    -0.084 Cl
ENDBRANCH  17  18
ENDBRANCH  12  13
ENDBRANCH   1  12
TORSDOF 6
