REMARK SMILES CCC1=C[C@@H]2Cc3[nH]c4cc(Cl)ccc4c(=N)c3[C@H](C1)C2
REMARK SMILES IDX 8 1 7 2 18 3 16 4 15 5 14 6 13 7 11 8 12 9 10 10 9 11 19 12
REMARK SMILES IDX 20 13 3 14 4 15 5 16 6 17 21 18 17 20 2 22 1 23
REMARK H PARENT 8 19 17 21
ROOT
ATOM      1  N   UNL     1      -2.765  -1.669  -0.961  1.00  0.00    -0.358 N 
ATOM      2  C   UNL     1      -1.522  -1.331  -0.470  1.00  0.00     0.021 A 
ATOM      3  C   UNL     1      -1.335  -0.433   0.525  1.00  0.00     0.000 A 
ATOM      4  C   UNL     1      -2.547   0.251   1.105  1.00  0.00     0.068 A 
ATOM      5  C   UNL     1      -3.876  -0.106   0.525  1.00  0.00     0.023 A 
ATOM      6  C   UNL     1      -5.048   0.496   1.005  1.00  0.00     0.014 A 
ATOM      7  C   UNL     1      -6.283   0.151   0.457  1.00  0.00     0.021 A 
ATOM      8  C   UNL     1      -6.342  -0.794  -0.565  1.00  0.00     0.043 A 
ATOM      9  Cl  UNL     1      -7.866  -1.228  -1.237  1.00  0.00    -0.084 Cl
ATOM     10  C   UNL     1      -5.179  -1.397  -1.046  1.00  0.00     0.047 A 
ATOM     11  C   UNL     1      -3.934  -1.048  -0.512  1.00  0.00     0.049 A 
ATOM     12  C   UNL     1       0.043  -0.101   1.078  1.00  0.00     0.028 C 
ATOM     13  C   UNL     1       0.588   1.205   0.452  1.00  0.00     0.039 C 
ATOM     14  C   UNL     1       1.154   1.024  -0.946  1.00  0.00    -0.074 C 
ATOM     15  C   UNL     1       1.344  -0.203  -1.470  1.00  0.00    -0.024 C 
ATOM     16  C   UNL     1       1.035  -1.482  -0.721  1.00  0.00     0.018 C 
ATOM     17  C   UNL     1      -0.343  -2.034  -1.132  1.00  0.00     0.062 C 
ATOM     18  C   UNL     1       1.034  -1.237   0.789  1.00  0.00     0.017 C 
ATOM     19  H   UNL     1      -2.810  -2.243  -1.794  1.00  0.00     0.166 HD
ENDROOT
BRANCH   4  20
ATOM     20  N   UNL     1      -2.503   1.127   2.060  1.00  0.00    -0.300 NA
ATOM     21  H   UNL     1      -1.552   1.307   2.380  1.00  0.00     0.188 HD
ENDBRANCH   4  20
BRANCH  14  22
ATOM     22  C   UNL     1       1.505   2.278  -1.708  1.00  0.00     0.027 C 
ATOM     23  C   UNL     1       0.277   2.989  -2.259  1.00  0.00     0.008 C 
ENDBRANCH  14  22
TORSDOF 2
