REMARK SMILES CC1=C[C@H]2Cc3nc4cc(Cl)ccc4c(N)c3[C@@H](C1)C2
REMARK SMILES IDX 1 1 2 2 3 3 4 4 5 5 6 6 7 7 8 8 9 9 10 10 11 11 12 12 13 13
REMARK SMILES IDX 14 14 15 15 17 16 18 17 19 18 20 19 16 20
REMARK H PARENT 16 21 16 22
ROOT
ATOM      1  C   UNL     1      -1.818   3.150   0.879  1.00  0.00     0.039 C 
ATOM      2  C   UNL     1      -1.620   1.744   0.392  1.00  0.00    -0.076 C 
ATOM      3  C   UNL     1      -1.942   1.364  -0.859  1.00  0.00    -0.024 C 
ATOM      4  C   UNL     1      -1.768  -0.053  -1.359  1.00  0.00     0.018 C 
ATOM      5  C   UNL     1      -0.473  -0.191  -2.171  1.00  0.00     0.064 C 
ATOM      6  C   UNL     1       0.778  -0.289  -1.326  1.00  0.00     0.047 A 
ATOM      7  N   UNL     1       1.936  -0.214  -2.022  1.00  0.00    -0.252 NA
ATOM      8  C   UNL     1       3.094  -0.375  -1.375  1.00  0.00     0.074 A 
ATOM      9  C   UNL     1       4.257  -0.339  -2.131  1.00  0.00     0.049 A 
ATOM     10  C   UNL     1       5.505  -0.526  -1.546  1.00  0.00     0.043 A 
ATOM     11  Cl  UNL     1       6.924  -0.480  -2.518  1.00  0.00    -0.084 Cl
ATOM     12  C   UNL     1       5.611  -0.759  -0.184  1.00  0.00     0.021 A 
ATOM     13  C   UNL     1       4.452  -0.791   0.592  1.00  0.00     0.014 A 
ATOM     14  C   UNL     1       3.172  -0.588   0.018  1.00  0.00     0.024 A 
ATOM     15  C   UNL     1       1.952  -0.582   0.754  1.00  0.00     0.046 A 
ATOM     16  C   UNL     1       0.729  -0.502   0.058  1.00  0.00     0.001 A 
ATOM     17  C   UNL     1      -0.620  -0.592   0.767  1.00  0.00     0.028 C 
ATOM     18  C   UNL     1      -1.021   0.770   1.385  1.00  0.00     0.039 C 
ATOM     19  C   UNL     1      -1.720  -1.048  -0.198  1.00  0.00     0.017 C 
ENDROOT
BRANCH  15  20
ATOM     20  N   UNL     1       1.959  -0.862   2.143  1.00  0.00    -0.398 N 
ATOM     21  H   UNL     1       1.129  -0.552   2.634  1.00  0.00     0.156 HD
ATOM     22  H   UNL     1       2.793  -0.531   2.617  1.00  0.00     0.156 HD
ENDBRANCH  15  20
TORSDOF 1
