REMARK SMILES N#Cc1cc(C#N)c(NCCC[C@H]2CC[N@H+](Cc3ccccc3)CC2)nc1N
REMARK SMILES IDX 11 1 12 2 13 3 15 4 16 5 14 6 24 7 25 8 17 10 18 11 19 12
REMARK SMILES IDX 23 13 20 14 22 15 21 16 10 17 9 18 8 20 5 21 26 22 4 23
REMARK SMILES IDX 27 24 3 25 6 26 7 27 28 28 2 31 1 32
REMARK H PARENT 16 9 9 19 28 29 28 30
ROOT
ATOM      1  C   UNL     1       2.088   1.325  -0.063  1.00  0.00     0.021 C 
ENDROOT
BRANCH   1   2
ATOM      2  C   UNL     1       1.042   0.222  -0.257  1.00  0.00     0.006 C 
BRANCH   2   3
ATOM      3  C   UNL     1      -0.349   0.686  -0.733  1.00  0.00     0.000 C 
ATOM      4  C   UNL     1      -2.690  -0.129  -1.293  1.00  0.00     0.262 C 
ATOM      5  N   UNL     1      -3.237   0.852  -0.290  1.00  0.00    -0.331 N 
ATOM      6  C   UNL     1      -1.280  -0.531  -0.877  1.00  0.00     0.065 C 
ATOM      7  C   UNL     1      -2.396   2.100  -0.217  1.00  0.00     0.262 C 
ATOM      8  C   UNL     1      -0.979   1.727   0.206  1.00  0.00     0.065 C 
ATOM      9  H   UNL     1      -3.171   0.401   0.631  1.00  0.00     0.348 HD
BRANCH   5  10
ATOM     10  C   UNL     1      -4.718   1.133  -0.465  1.00  0.00     0.299 C 
BRANCH  10  11
ATOM     11  C   UNL     1      -5.113   1.803  -1.753  1.00  0.00     0.006 A 
ATOM     12  C   UNL     1      -5.444   1.040  -2.884  1.00  0.00     0.009 A 
ATOM     13  C   UNL     1      -5.156   3.203  -1.847  1.00  0.00     0.009 A 
ATOM     14  C   UNL     1      -5.792   1.664  -4.083  1.00  0.00     0.001 A 
ATOM     15  C   UNL     1      -5.504   3.823  -3.048  1.00  0.00     0.001 A 
ATOM     16  C   UNL     1      -5.819   3.054  -4.165  1.00  0.00     0.000 A 
ENDBRANCH  10  11
ENDBRANCH   5  10
ENDBRANCH   2   3
ENDBRANCH   1   2
BRANCH   1  17
ATOM     17  C   UNL     1       2.444   2.072  -1.351  1.00  0.00     0.114 C 
BRANCH  17  18
ATOM     18  N   UNL     1       3.399   3.129  -1.033  1.00  0.00    -0.369 N 
ATOM     19  H   UNL     1       4.215   2.765  -0.541  1.00  0.00     0.162 HD
BRANCH  18  20
ATOM     20  C   UNL     1       3.809   3.921  -2.123  1.00  0.00     0.146 A 
ATOM     21  C   UNL     1       4.768   4.926  -1.943  1.00  0.00     0.096 A 
ATOM     22  N   UNL     1       3.213   3.732  -3.326  1.00  0.00    -0.212 NA
ATOM     23  C   UNL     1       5.138   5.716  -3.035  1.00  0.00     0.046 A 
ATOM     24  C   UNL     1       3.572   4.502  -4.378  1.00  0.00     0.143 A 
ATOM     25  C   UNL     1       4.540   5.497  -4.276  1.00  0.00     0.096 A 
BRANCH  21  26
ATOM     26  C   UNL     1       5.375   5.159  -0.669  1.00  0.00     0.103 C 
ATOM     27  N   UNL     1       5.881   5.337   0.360  1.00  0.00    -0.192 NA
ENDBRANCH  21  26
BRANCH  24  28
ATOM     28  N   UNL     1       2.952   4.175  -5.578  1.00  0.00    -0.383 N 
ATOM     29  H   UNL     1       2.576   4.968  -6.088  1.00  0.00     0.158 HD
ATOM     30  H   UNL     1       2.257   3.454  -5.410  1.00  0.00     0.158 HD
ENDBRANCH  24  28
BRANCH  25  31
ATOM     31  C   UNL     1       4.914   6.298  -5.399  1.00  0.00     0.103 C 
ATOM     32  N   UNL     1       5.204   6.977  -6.294  1.00  0.00    -0.192 NA
ENDBRANCH  25  31
ENDBRANCH  18  20
ENDBRANCH  17  18
ENDBRANCH   1  17
TORSDOF 10
