REMARK SMILES O=C(NCCCCNc1c2c(nc3ccccc13)CCCC2)c1ccc(F)cc1
REMARK SMILES IDX 5 1 6 2 7 3 8 4 9 6 10 7 18 8 11 9 22 10 17 11 13 12 12 13
REMARK SMILES IDX 19 14 21 15 16 16 14 17 20 18 15 19 4 20 3 21 2 22 1 24
REMARK SMILES IDX 23 25 24 26 29 27 25 28 28 29 26 30 27 31
REMARK H PARENT 8 5 3 23
ROOT
ATOM      1  C   UNL     1       1.415  -0.314   1.748  1.00  0.00     0.023 C 
ENDROOT
BRANCH   1   2
ATOM      2  C   UNL     1       0.955   0.911   0.950  1.00  0.00     0.023 C 
BRANCH   2   3
ATOM      3  C   UNL     1      -0.340   0.659   0.172  1.00  0.00     0.113 C 
BRANCH   3   4
ATOM      4  N   UNL     1      -1.470   0.531   1.103  1.00  0.00    -0.384 N 
ATOM      5  H   UNL     1      -1.370  -0.309   1.667  1.00  0.00     0.160 HD
BRANCH   4   6
ATOM      6  C   UNL     1      -2.718   0.496   0.406  1.00  0.00     0.049 A 
ATOM      7  C   UNL     1      -3.281  -0.729  -0.010  1.00  0.00    -0.003 A 
ATOM      8  C   UNL     1      -3.343   1.719   0.037  1.00  0.00     0.024 A 
ATOM      9  C   UNL     1      -4.431  -0.672  -0.804  1.00  0.00     0.046 A 
ATOM     10  C   UNL     1      -2.641  -2.058   0.320  1.00  0.00     0.039 C 
ATOM     11  C   UNL     1      -2.868   2.993   0.435  1.00  0.00     0.012 A 
ATOM     12  C   UNL     1      -4.507   1.648  -0.750  1.00  0.00     0.073 A 
ATOM     13  N   UNL     1      -5.034   0.487  -1.160  1.00  0.00    -0.252 NA
ATOM     14  C   UNL     1      -5.122  -1.919  -1.294  1.00  0.00     0.056 C 
ATOM     15  C   UNL     1      -3.533  -3.271   0.059  1.00  0.00     0.005 C 
ATOM     16  C   UNL     1      -3.518   4.164   0.050  1.00  0.00     0.001 A 
ATOM     17  C   UNL     1      -5.139   2.828  -1.123  1.00  0.00     0.029 A 
ATOM     18  C   UNL     1      -4.221  -3.147  -1.290  1.00  0.00     0.007 C 
ATOM     19  C   UNL     1      -4.659   4.081  -0.735  1.00  0.00     0.002 A 
ENDBRANCH   4   6
ENDBRANCH   3   4
ENDBRANCH   2   3
ENDBRANCH   1   2
BRANCH   1  20
ATOM     20  C   UNL     1       2.734  -0.070   2.484  1.00  0.00     0.116 C 
BRANCH  20  21
ATOM     21  N   UNL     1       3.849   0.156   1.587  1.00  0.00    -0.352 N 
ATOM     22  C   UNL     1       4.460  -0.887   0.921  1.00  0.00     0.251 C 
ATOM     23  H   UNL     1       4.038   1.107   1.302  1.00  0.00     0.163 HD
ATOM     24  O   UNL     1       4.125  -2.059   1.047  1.00  0.00    -0.269 OA
BRANCH  22  25
ATOM     25  C   UNL     1       5.552  -0.521  -0.023  1.00  0.00     0.040 A 
ATOM     26  C   UNL     1       5.795  -1.365  -1.117  1.00  0.00     0.017 A 
ATOM     27  C   UNL     1       6.350   0.617   0.168  1.00  0.00     0.017 A 
ATOM     28  C   UNL     1       6.809  -1.061  -2.027  1.00  0.00     0.040 A 
ATOM     29  C   UNL     1       7.365   0.917  -0.745  1.00  0.00     0.040 A 
ATOM     30  C   UNL     1       7.582   0.079  -1.834  1.00  0.00     0.123 A 
ATOM     31  F   UNL     1       8.556   0.370  -2.705  1.00  0.00    -0.207 F 
ENDBRANCH  22  25
ENDBRANCH  20  21
ENDBRANCH   1  20
TORSDOF 7
