REMARK SMILES Cc1ccccc1NC(=O)Oc1ccc2c(c1)[C@]1(C)CC[N@@H+](C)[C@@H]1N2C
REMARK SMILES IDX 9 1 8 2 10 3 11 5 12 6 21 7 22 8 20 9 24 10 18 11 25 12
REMARK SMILES IDX 16 13 15 14 17 15 14 16 13 17 23 18 19 20 26 21 7 22 6 23
REMARK SMILES IDX 2 24 5 25 3 26 4 27 1 28
REMARK H PARENT 8 4 22 19
ROOT
ATOM      1  C   UNL     1      -2.708   0.050  -0.773  1.00  0.00     0.417 C 
ATOM      2  N   UNL     1      -3.926   0.463  -1.238  1.00  0.00    -0.291 N 
ATOM      3  O   UNL     1      -2.412  -0.324   0.352  1.00  0.00    -0.224 OA
ATOM      4  H   UNL     1      -3.858   0.936  -2.129  1.00  0.00     0.173 HD
ENDROOT
BRANCH   1   5
ATOM      5  O   UNL     1      -1.787   0.185  -1.815  1.00  0.00    -0.410 OA
BRANCH   5   6
ATOM      6  C   UNL     1      -0.464  -0.175  -1.520  1.00  0.00     0.133 A 
ATOM      7  C   UNL     1       4.616   1.796   0.543  1.00  0.00     0.265 C 
ATOM      8  N   UNL     1       4.900   0.372   0.192  1.00  0.00    -0.317 N 
ATOM      9  C   UNL     1       3.139   1.948   0.262  1.00  0.00     0.081 C 
ATOM     10  C   UNL     1       3.697  -0.424   0.542  1.00  0.00     0.296 C 
ATOM     11  C   UNL     1       2.543   0.606   0.698  1.00  0.00     0.072 C 
ATOM     12  N   UNL     1       3.501  -1.219  -0.663  1.00  0.00    -0.325 N 
ATOM     13  C   UNL     1       1.567   0.083  -0.306  1.00  0.00    -0.007 A 
ATOM     14  C   UNL     1       2.157  -0.948  -1.046  1.00  0.00     0.045 A 
ATOM     15  C   UNL     1       0.262   0.495  -0.536  1.00  0.00     0.054 A 
ATOM     16  C   UNL     1       1.440  -1.571  -2.061  1.00  0.00     0.030 A 
ATOM     17  C   UNL     1       0.117  -1.182  -2.297  1.00  0.00     0.049 A 
ATOM     18  C   UNL     1       6.193  -0.146   0.701  1.00  0.00     0.334 C 
ATOM     19  H   UNL     1       4.886   0.264  -0.832  1.00  0.00     0.349 HD
ATOM     20  C   UNL     1       1.998   0.634   2.124  1.00  0.00     0.025 C 
ATOM     21  C   UNL     1       3.759  -2.659  -0.552  1.00  0.00     0.150 C 
ENDBRANCH   5   6
ENDBRANCH   1   5
BRANCH   2  22
ATOM     22  C   UNL     1      -5.169   0.543  -0.577  1.00  0.00     0.047 A 
ATOM     23  C   UNL     1      -6.054   1.499  -1.112  1.00  0.00     0.026 A 
ATOM     24  C   UNL     1      -5.599  -0.244   0.506  1.00  0.00    -0.027 A 
ATOM     25  C   UNL     1      -7.307   1.733  -0.546  1.00  0.00     0.002 A 
ATOM     26  C   UNL     1      -6.861   0.024   1.081  1.00  0.00     0.005 A 
ATOM     27  C   UNL     1      -7.705   1.004   0.563  1.00  0.00     0.000 A 
ATOM     28  C   UNL     1      -4.839  -1.403   1.088  1.00  0.00     0.046 C 
ENDBRANCH   2  22
TORSDOF 3
