REMARK SMILES CC1=C[C@H]2Cc3nc4cc(Cl)ccc4c(N)c3[C@@H](C1)C2
REMARK SMILES IDX 15 1 17 2 6 3 7 4 8 5 9 6 10 7 11 8 12 9 13 10 14 11 5 12
REMARK SMILES IDX 4 13 3 14 2 15 1 16 19 17 18 18 20 19 16 20
REMARK H PARENT 16 21 16 22
ROOT
ATOM      1  C   UNL     1       0.604  -0.629  -0.397  1.00  0.00     0.046 A 
ATOM      2  C   UNL     1      -0.059   0.598  -0.584  1.00  0.00     0.001 A 
ATOM      3  C   UNL     1       0.481   1.732   0.030  1.00  0.00     0.047 A 
ATOM      4  N   UNL     1       1.637   1.708   0.734  1.00  0.00    -0.252 NA
ATOM      5  C   UNL     1       2.299   0.552   0.859  1.00  0.00     0.074 A 
ATOM      6  C   UNL     1       3.493   0.572   1.564  1.00  0.00     0.049 A 
ATOM      7  C   UNL     1       4.259  -0.579   1.723  1.00  0.00     0.043 A 
ATOM      8  Cl  UNL     1       5.737  -0.513   2.601  1.00  0.00    -0.084 Cl
ATOM      9  C   UNL     1       3.838  -1.780   1.172  1.00  0.00     0.021 A 
ATOM     10  C   UNL     1       2.638  -1.821   0.463  1.00  0.00     0.014 A 
ATOM     11  C   UNL     1       1.842  -0.660   0.298  1.00  0.00     0.024 A 
ATOM     12  C   UNL     1      -0.165   3.094  -0.098  1.00  0.00     0.064 C 
ATOM     13  C   UNL     1      -1.587   3.055  -0.676  1.00  0.00     0.018 C 
ATOM     14  C   UNL     1      -2.586   2.616   0.374  1.00  0.00    -0.024 C 
ATOM     15  C   UNL     1      -3.049   1.356   0.462  1.00  0.00    -0.076 C 
ATOM     16  C   UNL     1      -4.053   0.939   1.496  1.00  0.00     0.039 C 
ATOM     17  C   UNL     1      -2.569   0.266  -0.478  1.00  0.00     0.039 C 
ATOM     18  C   UNL     1      -1.369   0.685  -1.361  1.00  0.00     0.028 C 
ATOM     19  C   UNL     1      -1.600   2.109  -1.880  1.00  0.00     0.017 C 
ENDROOT
BRANCH   1  20
ATOM     20  N   UNL     1       0.119  -1.768  -1.092  1.00  0.00    -0.398 N 
ATOM     21  H   UNL     1       0.460  -1.762  -2.052  1.00  0.00     0.156 HD
ATOM     22  H   UNL     1       0.373  -2.642  -0.644  1.00  0.00     0.156 HD
ENDBRANCH   1  20
TORSDOF 1
