REMARK SMILES C[NH+]1CCC(=CCC=C2C=c3ccccc3=C2O)CC1
REMARK SMILES IDX 7 1 6 2 5 3 4 4 19 5 3 6 20 7 2 8 1 9 8 11 9 12 10 13 17 14
REMARK SMILES IDX 11 15 16 16 12 17 15 18 13 19 14 20 18 21
REMARK H PARENT 2 10 18 22
ROOT
ATOM      1  C   UNL     1       0.222  -2.013  -0.233  1.00  0.00     0.055 C 
ENDROOT
BRANCH   1   2
ATOM      2  C   UNL     1      -0.671  -1.163  -1.096  1.00  0.00    -0.023 C 
BRANCH   2   3
ATOM      3  C   UNL     1      -2.001  -0.976  -0.999  1.00  0.00    -0.063 C 
ATOM      4  C   UNL     1      -2.734  -0.086  -1.979  1.00  0.00     0.092 C 
ATOM      5  C   UNL     1      -2.890  -1.567   0.071  1.00  0.00     0.092 C 
ATOM      6  C   UNL     1      -3.536   0.995  -1.250  1.00  0.00     0.266 C 
ATOM      7  C   UNL     1      -3.698  -0.475   0.781  1.00  0.00     0.266 C 
ATOM      8  N   UNL     1      -4.468   0.354  -0.235  1.00  0.00    -0.337 N 
ATOM      9  C   UNL     1      -5.351   1.369   0.429  1.00  0.00     0.332 C 
ATOM     10  H   UNL     1      -5.082  -0.291  -0.751  1.00  0.00     0.347 HD
ENDBRANCH   2   3
ENDBRANCH   1   2
BRANCH   1  11
ATOM     11  C   UNL     1       0.926  -1.188   0.802  1.00  0.00    -0.011 C 
BRANCH  11  12
ATOM     12  C   UNL     1       2.114  -0.574   0.682  1.00  0.00     0.014 C 
ATOM     13  C   UNL     1       2.739   0.170   1.774  1.00  0.00     0.020 C 
ATOM     14  C   UNL     1       3.014  -0.492  -0.462  1.00  0.00     0.130 C 
ATOM     15  C   UNL     1       3.909   0.638   1.309  1.00  0.00    -0.014 A 
ATOM     16  C   UNL     1       4.088   0.227  -0.093  1.00  0.00     0.024 A 
ATOM     17  C   UNL     1       4.925   1.426   1.964  1.00  0.00     0.009 A 
ATOM     18  C   UNL     1       5.278   0.628  -0.809  1.00  0.00     0.012 A 
ATOM     19  C   UNL     1       6.018   1.768   1.251  1.00  0.00     0.001 A 
ATOM     20  C   UNL     1       6.195   1.367  -0.149  1.00  0.00     0.001 A 
BRANCH  14  21
ATOM     21  O   UNL     1       2.722  -1.063  -1.661  1.00  0.00    -0.507 OA
ATOM     22  H   UNL     1       3.494  -0.930  -2.236  1.00  0.00     0.293 HD
ENDBRANCH  14  21
ENDBRANCH  11  12
ENDBRANCH   1  11
TORSDOF 5
