REMARK SMILES COc1ccc([C@H]2CC(c3cc(F)ccc3F)=NN2c2ccc(S(N)(=O)=O)cc2)c(OC)c1
REMARK SMILES IDX 20 1 21 2 22 3 23 4 28 5 29 6 19 7 7 8 8 9 9 10 18 11 6 12
REMARK SMILES IDX 3 13 4 14 33 15 5 16 30 17 2 18 1 19 31 20 32 21 10 22 11 23
REMARK SMILES IDX 16 24 12 25 15 26 14 27 17 28 13 29 24 30 26 31 27 32 25 33
REMARK H PARENT 25 34 25 35
ROOT
ATOM      1  C   UNL     1      -1.723   1.167  -0.447  1.00  0.00     0.060 A 
ATOM      2  C   UNL     1      -2.939   1.517   0.170  1.00  0.00     0.029 A 
ATOM      3  C   UNL     1      -3.467   2.810   0.090  1.00  0.00     0.024 A 
ATOM      4  C   UNL     1      -2.768   3.787  -0.612  1.00  0.00     0.082 A 
ATOM      5  C   UNL     1      -1.568   3.476  -1.249  1.00  0.00     0.024 A 
ATOM      6  C   UNL     1      -1.055   2.176  -1.161  1.00  0.00     0.029 A 
ENDROOT
BRANCH   1   7
ATOM      7  N   UNL     1      -1.221  -0.129  -0.341  1.00  0.00    -0.257 N 
ATOM      8  C   UNL     1       0.015  -0.627  -0.954  1.00  0.00     0.148 C 
ATOM      9  C   UNL     1      -0.154  -2.143  -0.842  1.00  0.00     0.091 C 
ATOM     10  C   UNL     1      -1.297  -2.217   0.138  1.00  0.00     0.074 C 
ATOM     11  N   UNL     1      -1.893  -1.087   0.362  1.00  0.00    -0.176 NA
BRANCH   8  12
ATOM     12  C   UNL     1       1.284  -0.171  -0.241  1.00  0.00     0.019 A 
ATOM     13  C   UNL     1       3.655   0.627   1.065  1.00  0.00     0.122 A 
ATOM     14  C   UNL     1       2.446   0.594   1.757  1.00  0.00     0.047 A 
ATOM     15  C   UNL     1       3.686   0.249  -0.279  1.00  0.00     0.093 A 
ATOM     16  C   UNL     1       1.273   0.196   1.116  1.00  0.00     0.013 A 
ATOM     17  C   UNL     1       2.512  -0.153  -0.934  1.00  0.00     0.127 A 
BRANCH  13  18
ATOM     18  O   UNL     1       4.724   1.036   1.814  1.00  0.00    -0.497 OA
ATOM     19  C   UNL     1       5.982   1.127   1.157  1.00  0.00     0.278 C 
ENDBRANCH  13  18
BRANCH  17  20
ATOM     20  O   UNL     1       2.457  -0.564  -2.243  1.00  0.00    -0.496 OA
ATOM     21  C   UNL     1       3.646  -0.466  -3.017  1.00  0.00     0.278 C 
ENDBRANCH  17  20
ENDBRANCH   8  12
BRANCH  10  22
ATOM     22  C   UNL     1      -1.710  -3.500   0.748  1.00  0.00     0.037 A 
ATOM     23  C   UNL     1      -1.224  -4.714   0.246  1.00  0.00     0.052 A 
ATOM     24  C   UNL     1      -2.594  -3.521   1.834  1.00  0.00     0.132 A 
ATOM     25  C   UNL     1      -1.627  -5.912   0.831  1.00  0.00     0.124 A 
ATOM     26  C   UNL     1      -2.991  -4.728   2.413  1.00  0.00     0.043 A 
ATOM     27  C   UNL     1      -2.506  -5.932   1.908  1.00  0.00     0.042 A 
ATOM     28  F   UNL     1      -3.076  -2.391   2.369  1.00  0.00    -0.206 F 
ATOM     29  F   UNL     1      -1.160  -7.068   0.343  1.00  0.00    -0.207 F 
ENDBRANCH  10  22
ENDBRANCH   1   7
BRANCH   4  30
ATOM     30  S   UNL     1      -3.409   5.434  -0.713  1.00  0.00     0.238 S 
ATOM     31  O   UNL     1      -4.819   5.404  -0.398  1.00  0.00    -0.207 OA
ATOM     32  O   UNL     1      -2.894   6.058  -1.908  1.00  0.00    -0.207 OA
BRANCH  30  33
ATOM     33  N   UNL     1      -2.664   6.162   0.613  1.00  0.00    -0.225 NA
ATOM     34  H   UNL     1      -3.384   6.423   1.289  1.00  0.00     0.137 HD
ATOM     35  H   UNL     1      -1.944   5.576   1.034  1.00  0.00     0.137 HD
ENDBRANCH  30  33
ENDBRANCH   4  30
TORSDOF 7
