REMARK SMILES C[N+](C)(CCNC(=O)C(=O)NCC[N+](C)(C)Cc1ccccc1Cl)Cc1ccccc1Cl
REMARK SMILES IDX 6 1 7 2 8 3 5 5 4 6 2 7 1 8 3 9 25 10 26 11 27 12 31 13
REMARK SMILES IDX 28 14 30 15 29 16 32 17 9 18 11 19 10 20 12 22 13 23 14 24
REMARK SMILES IDX 15 25 16 26 17 27 18 28 19 29 23 30 20 31 22 32 21 33 24 34
REMARK H PARENT 6 4 11 21
ROOT
ATOM      1  N   UNL     1       1.592  -0.837  -1.464  1.00  0.00    -0.342 N 
ATOM      2  C   UNL     1       0.853   0.322  -1.311  1.00  0.00     0.309 C 
ATOM      3  O   UNL     1       1.234   1.446  -1.600  1.00  0.00    -0.264 OA
ATOM      4  H   UNL     1       1.069  -1.695  -1.283  1.00  0.00     0.164 HD
ENDROOT
BRANCH   1   5
ATOM      5  C   UNL     1       2.704  -0.888  -2.400  1.00  0.00     0.177 C 
BRANCH   5   6
ATOM      6  C   UNL     1       4.062  -1.324  -1.808  1.00  0.00     0.285 C 
BRANCH   6   7
ATOM      7  N   UNL     1       4.807  -0.293  -0.916  1.00  0.00    -0.323 N 
ATOM      8  C   UNL     1       4.091  -0.091   0.406  1.00  0.00     0.334 C 
ATOM      9  C   UNL     1       4.930   1.053  -1.624  1.00  0.00     0.334 C 
BRANCH   7  10
ATOM     10  C   UNL     1       6.234  -0.895  -0.670  1.00  0.00     0.301 C 
BRANCH  10  11
ATOM     11  C   UNL     1       7.194  -0.135   0.214  1.00  0.00     0.025 A 
ATOM     12  C   UNL     1       7.159  -0.344   1.607  1.00  0.00     0.011 A 
ATOM     13  C   UNL     1       8.163   0.750  -0.294  1.00  0.00     0.049 A 
ATOM     14  C   UNL     1       8.034   0.333   2.460  1.00  0.00     0.001 A 
ATOM     15  C   UNL     1       9.036   1.427   0.563  1.00  0.00     0.021 A 
ATOM     16  C   UNL     1       8.967   1.222   1.938  1.00  0.00     0.002 A 
ATOM     17  Cl  UNL     1       8.343   1.035  -1.989  1.00  0.00    -0.084 Cl
ENDBRANCH  10  11
ENDBRANCH   7  10
ENDBRANCH   6   7
ENDBRANCH   5   6
ENDBRANCH   1   5
BRANCH   2  18
ATOM     18  C   UNL     1      -0.571   0.105  -0.745  1.00  0.00     0.309 C 
ATOM     19  N   UNL     1      -1.350   1.243  -0.712  1.00  0.00    -0.342 N 
ATOM     20  O   UNL     1      -0.938  -1.008  -0.400  1.00  0.00    -0.264 OA
ATOM     21  H   UNL     1      -0.943   2.059  -1.171  1.00  0.00     0.164 HD
BRANCH  19  22
ATOM     22  C   UNL     1      -2.791   1.167  -0.545  1.00  0.00     0.177 C 
BRANCH  22  23
ATOM     23  C   UNL     1      -3.230   0.727   0.870  1.00  0.00     0.285 C 
BRANCH  23  24
ATOM     24  N   UNL     1      -4.764   0.591   1.069  1.00  0.00    -0.323 N 
ATOM     25  C   UNL     1      -5.468   1.908   0.764  1.00  0.00     0.334 C 
ATOM     26  C   UNL     1      -4.996   0.272   2.550  1.00  0.00     0.334 C 
BRANCH  24  27
ATOM     27  C   UNL     1      -5.308  -0.564   0.180  1.00  0.00     0.301 C 
BRANCH  27  28
ATOM     28  C   UNL     1      -6.755  -0.965   0.351  1.00  0.00     0.025 A 
ATOM     29  C   UNL     1      -7.091  -1.923   1.328  1.00  0.00     0.011 A 
ATOM     30  C   UNL     1      -7.790  -0.449  -0.450  1.00  0.00     0.049 A 
ATOM     31  C   UNL     1      -8.416  -2.320   1.521  1.00  0.00     0.001 A 
ATOM     32  C   UNL     1      -9.115  -0.849  -0.253  1.00  0.00     0.021 A 
ATOM     33  C   UNL     1      -9.428  -1.780   0.735  1.00  0.00     0.002 A 
ATOM     34  Cl  UNL     1      -7.489   0.678  -1.725  1.00  0.00    -0.084 Cl
ENDBRANCH  27  28
ENDBRANCH  24  27
ENDBRANCH  23  24
ENDBRANCH  22  23
ENDBRANCH  19  22
ENDBRANCH   2  18
TORSDOF 11
