REMARK SMILES C[N@H+]1CC[C@H](/C=C2\Cc3ccccc3C2=O)CC1
REMARK SMILES IDX 6 1 5 2 2 3 18 4 3 5 17 6 4 7 1 8 7 10 8 11 15 12 9 13 14 14
REMARK SMILES IDX 10 15 13 16 11 17 12 18 16 19
REMARK H PARENT 2 9
ROOT
ATOM      1  C   UNL     1      -0.251  -0.324  -1.045  1.00  0.00    -0.015 C 
ENDROOT
BRANCH   1   2
ATOM      2  C   UNL     1       1.048   0.030  -0.374  1.00  0.00     0.023 C 
ATOM      3  N   UNL     1       3.955   0.218  -0.518  1.00  0.00    -0.337 N 
ATOM      4  C   UNL     1       3.311  -0.872   0.302  1.00  0.00     0.262 C 
ATOM      5  C   UNL     1       3.117   1.472  -0.559  1.00  0.00     0.262 C 
ATOM      6  C   UNL     1       1.948  -1.209  -0.283  1.00  0.00     0.069 C 
ATOM      7  C   UNL     1       1.752   1.151  -1.150  1.00  0.00     0.069 C 
ATOM      8  C   UNL     1       5.360   0.504  -0.059  1.00  0.00     0.332 C 
ATOM      9  H   UNL     1       4.036  -0.130  -1.484  1.00  0.00     0.347 HD
ENDBRANCH   1   2
BRANCH   1  10
ATOM     10  C   UNL     1      -1.474  -0.226  -0.503  1.00  0.00     0.001 C 
ATOM     11  C   UNL     1      -1.914   0.239   0.864  1.00  0.00     0.075 C 
ATOM     12  C   UNL     1      -2.694  -0.614  -1.282  1.00  0.00     0.189 C 
ATOM     13  C   UNL     1      -3.406   0.101   0.823  1.00  0.00    -0.032 A 
ATOM     14  C   UNL     1      -3.848  -0.388  -0.408  1.00  0.00     0.026 A 
ATOM     15  C   UNL     1      -4.321   0.392   1.821  1.00  0.00     0.005 A 
ATOM     16  C   UNL     1      -5.184  -0.603  -0.692  1.00  0.00     0.012 A 
ATOM     17  C   UNL     1      -5.680   0.182   1.556  1.00  0.00     0.000 A 
ATOM     18  C   UNL     1      -6.108  -0.311   0.311  1.00  0.00     0.001 A 
ATOM     19  O   UNL     1      -2.717  -1.034  -2.421  1.00  0.00    -0.289 OA
ENDBRANCH   1  10
TORSDOF 2
