REMARK SMILES CN(C)S(=O)(=O)N[C@H]1CCc2cc(O)ccc2C1
REMARK SMILES IDX 7 1 4 3 5 4 6 5 2 6 1 7 3 8 8 9 9 10 18 11 10 12 17 13 11 14
REMARK SMILES IDX 16 15 12 16 15 17 13 18 14 19
REMARK H PARENT 7 2 14 20
ROOT
ATOM      1  N   UNL     1       1.370   0.437  -1.776  1.00  0.00    -0.199 NA
ATOM      2  H   UNL     1       2.140   0.203  -1.156  1.00  0.00     0.142 HD
ENDROOT
BRANCH   1   3
ATOM      3  S   UNL     1       1.825   0.702  -3.353  1.00  0.00     0.279 S 
ATOM      4  O   UNL     1       3.160   1.249  -3.327  1.00  0.00    -0.195 OA
ATOM      5  O   UNL     1       0.735   1.358  -4.031  1.00  0.00    -0.195 OA
BRANCH   3   6
ATOM      6  N   UNL     1       1.927  -0.898  -3.895  1.00  0.00    -0.195 NA
ATOM      7  C   UNL     1       3.058  -1.681  -3.354  1.00  0.00     0.125 C 
ATOM      8  C   UNL     1       1.844  -1.020  -5.369  1.00  0.00     0.125 C 
ENDBRANCH   3   6
ENDBRANCH   1   3
BRANCH   1   9
ATOM      9  C   UNL     1       0.041  -0.138  -1.503  1.00  0.00     0.075 C 
ATOM     10  C   UNL     1       0.154  -1.131  -0.345  1.00  0.00     0.025 C 
ATOM     11  C   UNL     1      -0.938   0.987  -1.135  1.00  0.00     0.056 C 
ATOM     12  C   UNL     1      -1.194  -1.798  -0.085  1.00  0.00     0.037 C 
ATOM     13  C   UNL     1      -2.229   0.483  -0.533  1.00  0.00    -0.043 A 
ATOM     14  C   UNL     1      -2.335  -0.816  -0.004  1.00  0.00    -0.041 A 
ATOM     15  C   UNL     1      -3.328   1.353  -0.455  1.00  0.00     0.008 A 
ATOM     16  C   UNL     1      -3.550  -1.230   0.561  1.00  0.00     0.050 A 
ATOM     17  C   UNL     1      -4.529   0.935   0.119  1.00  0.00     0.046 A 
ATOM     18  C   UNL     1      -4.630  -0.357   0.620  1.00  0.00     0.115 A 
BRANCH  18  19
ATOM     19  O   UNL     1      -5.785  -0.812   1.185  1.00  0.00    -0.508 OA
ATOM     20  H   UNL     1      -6.445  -0.100   1.149  1.00  0.00     0.293 HD
ENDBRANCH  18  19
ENDBRANCH   1   9
TORSDOF 4
