REMARK SMILES O=C1CCc2cc(C(O)=CC[C@H]3CC[N@H+](Cc4ccccc4)CC3)cc3c2N1CC3
REMARK SMILES IDX 10 1 8 2 9 3 7 5 6 6 25 7 5 8 26 9 27 10 4 11 30 12 28 13
REMARK SMILES IDX 3 14 29 15 2 16 1 17 11 18 12 19 24 20 13 21 23 22 14 23
REMARK SMILES IDX 15 24 16 26 17 27 18 28 22 29 19 30 21 31 20 32
REMARK H PARENT 9 4 15 25
ROOT
ATOM      1  C   UNL     1      -0.425  -2.614   1.451  1.00  0.00     0.020 C 
ENDROOT
BRANCH   1   2
ATOM      2  C   UNL     1      -1.415  -2.943   0.610  1.00  0.00     0.118 C 
BRANCH   2   3
ATOM      3  O   UNL     1      -1.463  -4.226   0.104  1.00  0.00    -0.508 OA
ATOM      4  H   UNL     1      -2.333  -4.351  -0.318  1.00  0.00     0.293 HD
ENDBRANCH   2   3
BRANCH   2   5
ATOM      5  C   UNL     1      -2.469  -2.035   0.137  1.00  0.00     0.017 A 
ATOM      6  C   UNL     1      -3.459  -1.564   1.035  1.00  0.00     0.017 A 
ATOM      7  C   UNL     1      -2.491  -1.655  -1.222  1.00  0.00     0.018 A 
ATOM      8  C   UNL     1      -4.471  -0.715   0.587  1.00  0.00    -0.023 A 
ATOM      9  C   UNL     1      -3.490  -0.801  -1.650  1.00  0.00    -0.021 A 
ATOM     10  C   UNL     1      -4.448  -0.374  -0.747  1.00  0.00     0.050 A 
ATOM     11  C   UNL     1      -5.499  -0.062   1.458  1.00  0.00     0.047 C 
ATOM     12  C   UNL     1      -3.770  -0.227  -3.007  1.00  0.00     0.059 C 
ATOM     13  N   UNL     1      -5.362   0.474  -1.343  1.00  0.00    -0.312 N 
ATOM     14  C   UNL     1      -6.744   0.356   0.665  1.00  0.00     0.105 C 
ATOM     15  C   UNL     1      -4.946   0.741  -2.720  1.00  0.00     0.130 C 
ATOM     16  C   UNL     1      -6.446   0.996  -0.688  1.00  0.00     0.227 C 
ATOM     17  O   UNL     1      -7.185   1.843  -1.183  1.00  0.00    -0.275 OA
ENDBRANCH   2   5
ENDBRANCH   1   2
BRANCH   1  18
ATOM     18  C   UNL     1      -0.162  -1.280   2.093  1.00  0.00     0.035 C 
BRANCH  18  19
ATOM     19  C   UNL     1       1.106  -0.563   1.584  1.00  0.00     0.004 C 
ATOM     20  C   UNL     1       2.393  -1.352   1.874  1.00  0.00     0.065 C 
ATOM     21  C   UNL     1       1.014  -0.211   0.090  1.00  0.00     0.065 C 
ATOM     22  C   UNL     1       3.628  -0.614   1.370  1.00  0.00     0.262 C 
ATOM     23  C   UNL     1       2.265   0.512  -0.393  1.00  0.00     0.262 C 
ATOM     24  N   UNL     1       3.472  -0.346  -0.105  1.00  0.00    -0.331 N 
ATOM     25  H   UNL     1       3.294  -1.256  -0.549  1.00  0.00     0.348 HD
BRANCH  24  26
ATOM     26  C   UNL     1       4.742   0.155  -0.766  1.00  0.00     0.299 C 
BRANCH  26  27
ATOM     27  C   UNL     1       5.243   1.493  -0.297  1.00  0.00     0.006 A 
ATOM     28  C   UNL     1       4.821   2.676  -0.924  1.00  0.00     0.009 A 
ATOM     29  C   UNL     1       6.141   1.583   0.779  1.00  0.00     0.009 A 
ATOM     30  C   UNL     1       5.272   3.918  -0.474  1.00  0.00     0.001 A 
ATOM     31  C   UNL     1       6.590   2.827   1.226  1.00  0.00     0.001 A 
ATOM     32  C   UNL     1       6.153   3.992   0.602  1.00  0.00     0.000 A 
ENDBRANCH  26  27
ENDBRANCH  24  26
ENDBRANCH  18  19
ENDBRANCH   1  18
TORSDOF 7
