REMARK SMILES O=C(Cc1cc(=O)oc2cc(O)ccc12)NCCCCNc1c2c(nc3ccccc13)CCCC2
REMARK SMILES IDX 17 1 16 2 2 3 1 4 3 6 4 7 5 8 15 9 6 10 14 11 9 12 8 13
REMARK SMILES IDX 13 14 10 15 11 16 7 17 12 18 18 20 19 21 20 22 21 23 22 25
REMARK SMILES IDX 23 26 31 27 24 28 35 29 30 30 26 31 25 32 32 33 34 34 29 35
REMARK SMILES IDX 27 36 33 37 28 38
REMARK H PARENT 16 5 12 19 21 24
ROOT
ATOM      1  C   UNL     1       1.237  -1.483  -2.509  1.00  0.00     0.116 C 
ENDROOT
BRANCH   1   2
ATOM      2  N   UNL     1       0.840  -0.500  -1.523  1.00  0.00    -0.356 N 
ATOM      3  C   UNL     1       1.314   0.795  -1.607  1.00  0.00     0.224 C 
ATOM      4  O   UNL     1       1.916   1.227  -2.587  1.00  0.00    -0.275 OA
ATOM      5  H   UNL     1       0.554  -0.836  -0.610  1.00  0.00     0.163 HD
BRANCH   3   6
ATOM      6  C   UNL     1       1.028   1.659  -0.384  1.00  0.00     0.136 C 
BRANCH   6   7
ATOM      7  C   UNL     1       2.042   1.431   0.711  1.00  0.00    -0.020 A 
ATOM      8  C   UNL     1       1.704   0.759   1.823  1.00  0.00     0.098 A 
ATOM      9  C   UNL     1       3.410   1.966   0.622  1.00  0.00     0.022 A 
ATOM     10  C   UNL     1       2.628   0.481   2.932  1.00  0.00     0.336 A 
ATOM     11  C   UNL     1       3.885   2.728  -0.453  1.00  0.00     0.016 A 
ATOM     12  C   UNL     1       4.299   1.718   1.674  1.00  0.00     0.142 A 
ATOM     13  O   UNL     1       3.913   0.974   2.807  1.00  0.00    -0.423 OA
ATOM     14  C   UNL     1       5.201   3.208  -0.467  1.00  0.00     0.047 A 
ATOM     15  C   UNL     1       5.615   2.189   1.677  1.00  0.00     0.094 A 
ATOM     16  C   UNL     1       6.054   2.935   0.595  1.00  0.00     0.119 A 
ATOM     17  O   UNL     1       2.265  -0.167   3.907  1.00  0.00    -0.246 OA
BRANCH  16  18
ATOM     18  O   UNL     1       7.324   3.426   0.534  1.00  0.00    -0.508 OA
ATOM     19  H   UNL     1       7.804   3.155   1.334  1.00  0.00     0.293 HD
ENDBRANCH  16  18
ENDBRANCH   6   7
ENDBRANCH   3   6
ENDBRANCH   1   2
BRANCH   1  20
ATOM     20  C   UNL     1       0.304  -2.690  -2.569  1.00  0.00     0.023 C 
BRANCH  20  21
ATOM     21  C   UNL     1      -0.983  -2.459  -3.370  1.00  0.00     0.023 C 
BRANCH  21  22
ATOM     22  C   UNL     1      -1.994  -1.493  -2.750  1.00  0.00     0.113 C 
BRANCH  22  23
ATOM     23  N   UNL     1      -2.673  -2.085  -1.592  1.00  0.00    -0.384 N 
ATOM     24  H   UNL     1      -2.591  -3.094  -1.550  1.00  0.00     0.160 HD
BRANCH  23  25
ATOM     25  C   UNL     1      -2.519  -1.435  -0.351  1.00  0.00     0.049 A 
ATOM     26  C   UNL     1      -2.948  -0.107  -0.187  1.00  0.00    -0.003 A 
ATOM     27  C   UNL     1      -1.883  -2.088   0.750  1.00  0.00     0.024 A 
ATOM     28  C   UNL     1      -2.649   0.544   1.009  1.00  0.00     0.046 A 
ATOM     29  C   UNL     1      -3.724   0.676  -1.217  1.00  0.00     0.039 C 
ATOM     30  C   UNL     1      -1.460  -3.444   0.755  1.00  0.00     0.012 A 
ATOM     31  C   UNL     1      -1.648  -1.325   1.916  1.00  0.00     0.073 A 
ATOM     32  N   UNL     1      -1.988  -0.035   2.029  1.00  0.00    -0.252 NA
ATOM     33  C   UNL     1      -3.042   1.990   1.162  1.00  0.00     0.056 C 
ATOM     34  C   UNL     1      -4.864   1.472  -0.573  1.00  0.00     0.005 C 
ATOM     35  C   UNL     1      -0.818  -4.011   1.857  1.00  0.00     0.001 A 
ATOM     36  C   UNL     1      -1.006  -1.910   2.999  1.00  0.00     0.029 A 
ATOM     37  C   UNL     1      -4.482   2.216   0.713  1.00  0.00     0.007 C 
ATOM     38  C   UNL     1      -0.586  -3.239   2.982  1.00  0.00     0.002 A 
ENDBRANCH  23  25
ENDBRANCH  22  23
ENDBRANCH  21  22
ENDBRANCH  20  21
ENDBRANCH   1  20
TORSDOF 9
