REMARK SMILES O=C1CCc2cc(C(O)=CC[C@H]3CC[N@H+](Cc4ccccc4O)CC3)cc3ccn1c23
REMARK SMILES IDX 12 1 25 2 24 3 15 4 14 5 13 6 11 8 10 9 8 10 9 11 7 13 6 14
REMARK SMILES IDX 26 15 5 16 27 17 31 18 4 19 28 20 30 21 3 22 29 23 2 24 1 25
REMARK SMILES IDX 16 26 17 27 18 28 22 29 19 30 21 31 20 32 23 33
REMARK H PARENT 15 7 9 12 23 34
ROOT
ATOM      1  C   UNL     1       1.273   0.516   1.856  1.00  0.00     0.004 C 
ATOM      2  C   UNL     1       2.718   0.038   2.064  1.00  0.00     0.065 C 
ATOM      3  C   UNL     1       3.727   1.159   1.858  1.00  0.00     0.262 C 
ATOM      4  N   UNL     1       3.541   1.756   0.495  1.00  0.00    -0.331 N 
ATOM      5  C   UNL     1       2.156   2.303   0.286  1.00  0.00     0.262 C 
ATOM      6  C   UNL     1       1.136   1.192   0.481  1.00  0.00     0.065 C 
ATOM      7  H   UNL     1       3.684   1.004  -0.203  1.00  0.00     0.348 HD
ENDROOT
BRANCH   1   8
ATOM      8  C   UNL     1       0.302  -0.669   2.015  1.00  0.00     0.035 C 
BRANCH   8   9
ATOM      9  C   UNL     1      -1.141  -0.252   1.978  1.00  0.00     0.020 C 
BRANCH   9  10
ATOM     10  C   UNL     1      -1.975  -0.483   0.955  1.00  0.00     0.118 C 
BRANCH  10  11
ATOM     11  O   UNL     1      -1.537  -1.095  -0.200  1.00  0.00    -0.508 OA
ATOM     12  H   UNL     1      -2.327  -1.355  -0.710  1.00  0.00     0.293 HD
ENDBRANCH  10  11
BRANCH  10  13
ATOM     13  C   UNL     1      -3.386  -0.064   0.977  1.00  0.00     0.017 A 
ATOM     14  C   UNL     1      -4.249  -0.514   1.992  1.00  0.00     0.017 A 
ATOM     15  C   UNL     1      -3.861   0.799  -0.035  1.00  0.00     0.022 A 
ATOM     16  C   UNL     1      -5.594  -0.137   2.011  1.00  0.00    -0.022 A 
ATOM     17  C   UNL     1      -5.208   1.205  -0.016  1.00  0.00     0.001 A 
ATOM     18  C   UNL     1      -6.016   0.709   0.989  1.00  0.00     0.059 A 
ATOM     19  C   UNL     1      -6.583  -0.476   3.082  1.00  0.00     0.047 C 
ATOM     20  C   UNL     1      -6.027   2.068  -0.794  1.00  0.00     0.029 A 
ATOM     21  N   UNL     1      -7.293   1.198   0.833  1.00  0.00    -0.287 N 
ATOM     22  C   UNL     1      -8.026  -0.386   2.552  1.00  0.00     0.106 C 
ATOM     23  C   UNL     1      -7.291   2.070  -0.235  1.00  0.00     0.095 A 
ATOM     24  C   UNL     1      -8.349   0.815   1.668  1.00  0.00     0.231 C 
ATOM     25  O   UNL     1      -9.440   1.357   1.560  1.00  0.00    -0.274 OA
ENDBRANCH  10  13
ENDBRANCH   9  10
ENDBRANCH   8   9
ENDBRANCH   1   8
BRANCH   4  26
ATOM     26  C   UNL     1       4.624   2.752   0.150  1.00  0.00     0.302 C 
BRANCH  26  27
ATOM     27  C   UNL     1       4.738   3.043  -1.323  1.00  0.00     0.048 A 
ATOM     28  C   UNL     1       4.899   4.364  -1.768  1.00  0.00     0.013 A 
ATOM     29  C   UNL     1       4.744   2.013  -2.274  1.00  0.00     0.124 A 
ATOM     30  C   UNL     1       5.041   4.638  -3.130  1.00  0.00     0.001 A 
ATOM     31  C   UNL     1       4.886   2.281  -3.634  1.00  0.00     0.046 A 
ATOM     32  C   UNL     1       5.033   3.600  -4.059  1.00  0.00     0.004 A 
BRANCH  29  33
ATOM     33  O   UNL     1       4.585   0.723  -1.838  1.00  0.00    -0.507 OA
ATOM     34  H   UNL     1       4.747   0.132  -2.602  1.00  0.00     0.293 HD
ENDBRANCH  29  33
ENDBRANCH  26  27
ENDBRANCH   4  26
TORSDOF 8
