REMARK SMILES C=CC[n+]1ccc(CCC(=O)[C@H]2Cc3cc(OC)c(OC)cc3S2)cc1
REMARK SMILES IDX 8 1 7 2 4 3 5 4 26 5 6 6 25 7 3 8 2 9 1 10 9 11 10 12 11 13
REMARK SMILES IDX 12 14 13 15 24 16 14 17 23 18 15 19 22 20 16 21 19 22 17 23
REMARK SMILES IDX 18 24 20 25 21 26
REMARK H PARENT
ROOT
ATOM      1  C   UNL     1       1.584  -0.270  -3.114  1.00  0.00     0.044 C 
ENDROOT
BRANCH   1   2
ATOM      2  C   UNL     1       2.727   0.276  -2.290  1.00  0.00    -0.036 A 
ATOM      3  N   UNL     1       4.769   1.182  -0.646  1.00  0.00    -0.201 N 
ATOM      4  C   UNL     1       4.994   0.147  -1.488  1.00  0.00     0.308 A 
ATOM      5  C   UNL     1       3.559   1.784  -0.604  1.00  0.00     0.308 A 
ATOM      6  C   UNL     1       3.986  -0.323  -2.322  1.00  0.00     0.074 A 
ATOM      7  C   UNL     1       2.524   1.351  -1.424  1.00  0.00     0.074 A 
BRANCH   3   8
ATOM      8  C   UNL     1       5.856   1.647   0.243  1.00  0.00     0.385 C 
BRANCH   8   9
ATOM      9  C   UNL     1       5.965   0.737   1.428  1.00  0.00     0.037 C 
ATOM     10  C   UNL     1       7.055   0.028   1.749  1.00  0.00     0.011 C 
ENDBRANCH   8   9
ENDBRANCH   3   8
ENDBRANCH   1   2
BRANCH   1  11
ATOM     11  C   UNL     1       1.004  -1.576  -2.567  1.00  0.00     0.081 C 
BRANCH  11  12
ATOM     12  C   UNL     1       0.477  -1.450  -1.144  1.00  0.00     0.146 C 
ATOM     13  O   UNL     1       1.268  -1.415  -0.197  1.00  0.00    -0.298 OA
BRANCH  12  14
ATOM     14  C   UNL     1      -1.029  -1.354  -0.956  1.00  0.00     0.123 C 
ATOM     15  C   UNL     1      -1.482  -1.630   0.488  1.00  0.00     0.059 C 
ATOM     16  S   UNL     1      -1.599   0.334  -1.357  1.00  0.00    -0.114 SA
ATOM     17  C   UNL     1      -2.735  -0.830   0.712  1.00  0.00    -0.029 A 
ATOM     18  C   UNL     1      -2.896   0.247  -0.158  1.00  0.00     0.015 A 
ATOM     19  C   UNL     1      -3.651  -1.050   1.735  1.00  0.00     0.055 A 
ATOM     20  C   UNL     1      -3.970   1.116  -0.042  1.00  0.00     0.065 A 
ATOM     21  C   UNL     1      -4.749  -0.190   1.868  1.00  0.00     0.161 A 
ATOM     22  C   UNL     1      -4.909   0.899   0.974  1.00  0.00     0.161 A 
BRANCH  21  23
ATOM     23  O   UNL     1      -5.714  -0.313   2.836  1.00  0.00    -0.493 OA
ATOM     24  C   UNL     1      -5.640  -1.430   3.711  1.00  0.00     0.278 C 
ENDBRANCH  21  23
BRANCH  22  25
ATOM     25  O   UNL     1      -6.011   1.690   1.188  1.00  0.00    -0.493 OA
ATOM     26  C   UNL     1      -6.267   2.736   0.261  1.00  0.00     0.278 C 
ENDBRANCH  22  25
ENDBRANCH  12  14
ENDBRANCH  11  12
ENDBRANCH   1  11
TORSDOF 8
