REMARK SMILES Nc1c2c(nc3cc(Cl)ccc13)CCCC2
REMARK SMILES IDX 2 1 3 2 4 3 5 4 6 5 7 6 8 7 9 8 10 9 11 10 12 11 13 12 14 13
REMARK SMILES IDX 15 14 16 15 1 16
REMARK H PARENT 1 17 1 18
ROOT
ATOM      1  C   UNL     1       0.485   1.132  -0.195  1.00  0.00     0.046 A 
ATOM      2  C   UNL     1      -0.775   0.511  -0.127  1.00  0.00    -0.003 A 
ATOM      3  C   UNL     1      -0.813  -0.878  -0.004  1.00  0.00     0.046 A 
ATOM      4  N   UNL     1       0.301  -1.643   0.053  1.00  0.00    -0.252 NA
ATOM      5  C   UNL     1       1.501  -1.050   0.031  1.00  0.00     0.074 A 
ATOM      6  C   UNL     1       2.620  -1.862   0.131  1.00  0.00     0.049 A 
ATOM      7  C   UNL     1       3.904  -1.327   0.143  1.00  0.00     0.043 A 
ATOM      8  Cl  UNL     1       5.268  -2.368   0.274  1.00  0.00    -0.084 Cl
ATOM      9  C   UNL     1       4.091   0.045   0.058  1.00  0.00     0.021 A 
ATOM     10  C   UNL     1       2.978   0.878  -0.049  1.00  0.00     0.014 A 
ATOM     11  C   UNL     1       1.663   0.349  -0.073  1.00  0.00     0.024 A 
ATOM     12  C   UNL     1      -2.116  -1.635   0.023  1.00  0.00     0.056 C 
ATOM     13  C   UNL     1      -3.310  -0.766   0.404  1.00  0.00     0.007 C 
ATOM     14  C   UNL     1      -3.306   0.509  -0.426  1.00  0.00     0.005 C 
ATOM     15  C   UNL     1      -2.046   1.328  -0.146  1.00  0.00     0.039 C 
ENDROOT
BRANCH   1  16
ATOM     16  N   UNL     1       0.532   2.550  -0.168  1.00  0.00    -0.398 N 
ATOM     17  H   UNL     1       0.419   2.888   0.786  1.00  0.00     0.156 HD
ATOM     18  H   UNL     1       1.383   2.930  -0.570  1.00  0.00     0.156 HD
ENDBRANCH   1  16
TORSDOF 1
