REMARK SMILES COc1ccc2c(c1)CC[C@H](Cc1cc[n+](Cc3ccccc3C)cc1C(C)=O)C2=O
REMARK SMILES IDX 13 1 14 2 15 3 16 4 25 5 26 6 12 7 11 8 3 9 4 10 8 11 5 12
REMARK SMILES IDX 7 13 6 14 9 15 30 16 10 17 31 18 2 19 1 20 27 21 28 22 29 23
REMARK SMILES IDX 17 24 18 25 19 26 23 27 20 28 22 29 21 30 24 31
REMARK H PARENT
ROOT
ATOM      1  C   UNL     1      -0.794  -1.854  -0.228  1.00  0.00    -0.025 A 
ATOM      2  C   UNL     1      -1.458  -1.515  -1.416  1.00  0.00     0.075 A 
ATOM      3  C   UNL     1      -2.773  -1.059  -1.392  1.00  0.00     0.308 A 
ATOM      4  N   UNL     1      -3.430  -0.924  -0.217  1.00  0.00    -0.200 N 
ATOM      5  C   UNL     1      -2.826  -1.257   0.947  1.00  0.00     0.320 A 
ATOM      6  C   UNL     1      -1.515  -1.743   0.966  1.00  0.00     0.084 A 
ENDROOT
BRANCH   1   7
ATOM      7  C   UNL     1       0.665  -2.250  -0.321  1.00  0.00     0.048 C 
BRANCH   7   8
ATOM      8  C   UNL     1       1.633  -1.059  -0.498  1.00  0.00     0.066 C 
ATOM      9  C   UNL     1       6.481   0.769  -0.017  1.00  0.00     0.119 A 
ATOM     10  C   UNL     1       6.593  -0.432  -0.719  1.00  0.00     0.047 A 
ATOM     11  C   UNL     1       5.222   1.200   0.406  1.00  0.00     0.050 A 
ATOM     12  C   UNL     1       5.463  -1.199  -1.002  1.00  0.00     0.016 A 
ATOM     13  C   UNL     1       4.073   0.431   0.141  1.00  0.00    -0.033 A 
ATOM     14  C   UNL     1       4.203  -0.765  -0.579  1.00  0.00     0.021 A 
ATOM     15  C   UNL     1       2.729   0.930   0.591  1.00  0.00     0.037 C 
ATOM     16  C   UNL     1       3.006  -1.587  -0.905  1.00  0.00     0.166 C 
ATOM     17  C   UNL     1       1.741  -0.217   0.777  1.00  0.00     0.017 C 
ATOM     18  O   UNL     1       3.132  -2.633  -1.536  1.00  0.00    -0.294 OA
BRANCH   9  19
ATOM     19  O   UNL     1       7.665   1.421   0.185  1.00  0.00    -0.497 OA
ATOM     20  C   UNL     1       7.621   2.642   0.913  1.00  0.00     0.278 C 
ENDBRANCH   9  19
ENDBRANCH   7   8
ENDBRANCH   1   7
BRANCH   6  21
ATOM     21  C   UNL     1      -0.988  -2.019   2.315  1.00  0.00     0.166 C 
ATOM     22  C   UNL     1      -0.385  -3.359   2.628  1.00  0.00     0.094 C 
ATOM     23  O   UNL     1      -1.139  -1.138   3.156  1.00  0.00    -0.294 OA
ENDBRANCH   6  21
BRANCH   4  24
ATOM     24  C   UNL     1      -4.823  -0.402  -0.208  1.00  0.00     0.393 C 
BRANCH  24  25
ATOM     25  C   UNL     1      -4.859   1.048  -0.629  1.00  0.00     0.020 A 
ATOM     26  C   UNL     1      -4.179   1.998   0.159  1.00  0.00     0.010 A 
ATOM     27  C   UNL     1      -5.553   1.484  -1.780  1.00  0.00    -0.042 A 
ATOM     28  C   UNL     1      -4.165   3.346  -0.195  1.00  0.00     0.001 A 
ATOM     29  C   UNL     1      -5.526   2.847  -2.120  1.00  0.00     0.004 A 
ATOM     30  C   UNL     1      -4.835   3.769  -1.336  1.00  0.00     0.000 A 
ATOM     31  C   UNL     1      -6.342   0.548  -2.658  1.00  0.00     0.045 C 
ENDBRANCH  24  25
ENDBRANCH   4  24
TORSDOF 6
