REMARK SMILES COc1ccc([C@@H](C)NS(N)(=O)=O)cc1
REMARK SMILES IDX 7 1 8 2 6 3 3 4 4 5 15 6 5 7 14 8 2 9 1 10 9 11 10 13 12 14
REMARK SMILES IDX 13 15 11 16
REMARK H PARENT 9 12 11 17 11 18
ROOT
ATOM      1  C   UNL     1       1.421  -0.505   0.666  1.00  0.00     0.097 C 
ATOM      2  C   UNL     1       1.549  -1.285   1.977  1.00  0.00     0.031 C 
ENDROOT
BRANCH   1   3
ATOM      3  C   UNL     1      -0.032  -0.214   0.325  1.00  0.00    -0.030 A 
ATOM      4  C   UNL     1      -2.713   0.361  -0.354  1.00  0.00     0.118 A 
ATOM      5  C   UNL     1      -2.302  -0.954  -0.134  1.00  0.00     0.047 A 
ATOM      6  C   UNL     1      -1.780   1.391  -0.241  1.00  0.00     0.047 A 
ATOM      7  C   UNL     1      -0.976  -1.243   0.199  1.00  0.00     0.009 A 
ATOM      8  C   UNL     1      -0.450   1.105   0.092  1.00  0.00     0.009 A 
BRANCH   4   9
ATOM      9  O   UNL     1      -4.035   0.502  -0.672  1.00  0.00    -0.497 OA
ATOM     10  C   UNL     1      -4.505   1.825  -0.898  1.00  0.00     0.278 C 
ENDBRANCH   4   9
ENDBRANCH   1   3
BRANCH   1  11
ATOM     11  N   UNL     1       2.058  -1.270  -0.414  1.00  0.00    -0.195 NA
ATOM     12  H   UNL     1       1.480  -1.431  -1.237  1.00  0.00     0.143 HD
BRANCH  11  13
ATOM     13  S   UNL     1       3.623  -0.945  -0.826  1.00  0.00     0.274 S 
ATOM     14  O   UNL     1       4.405  -0.690   0.354  1.00  0.00    -0.195 OA
ATOM     15  O   UNL     1       4.028  -1.843  -1.874  1.00  0.00    -0.195 OA
BRANCH  13  16
ATOM     16  N   UNL     1       3.390   0.535  -1.550  1.00  0.00    -0.216 NA
ATOM     17  H   UNL     1       3.595   1.269  -0.872  1.00  0.00     0.138 HD
ATOM     18  H   UNL     1       4.020   0.601  -2.352  1.00  0.00     0.138 HD
ENDBRANCH  13  16
ENDBRANCH  11  13
ENDBRANCH   1  11
TORSDOF 5
