REMARK SMILES O=C(CC[C@H]1CC[N@@H+](Cc2ccc(O)cc2)CC1)c1cc2c3c(ccn3C(=O)CC2)c1
REMARK SMILES IDX 7 1 8 2 17 3 6 4 5 5 18 6 9 8 10 9 11 10 16 11 12 12 15 13
REMARK SMILES IDX 13 14 14 15 4 17 3 18 2 19 1 20 19 21 20 22 31 23 21 24
REMARK SMILES IDX 23 25 22 26 30 27 24 28 26 29 29 30 25 31 27 32 28 33
REMARK H PARENT 8 7 14 16
ROOT
ATOM      1  C   UNL     1       2.017   0.333   0.019  1.00  0.00     0.262 C 
ATOM      2  N   UNL     1       3.336  -0.405   0.022  1.00  0.00    -0.331 N 
ATOM      3  C   UNL     1       3.145  -1.902   0.033  1.00  0.00     0.262 C 
ATOM      4  C   UNL     1       1.210  -0.085  -1.205  1.00  0.00     0.065 C 
ATOM      5  C   UNL     1       0.964  -1.598  -1.275  1.00  0.00     0.000 C 
ATOM      6  C   UNL     1       2.317  -2.325  -1.176  1.00  0.00     0.065 C 
ATOM      7  H   UNL     1       3.829  -0.166  -0.846  1.00  0.00     0.348 HD
ENDROOT
BRANCH   2   8
ATOM      8  C   UNL     1       4.219   0.079   1.155  1.00  0.00     0.299 C 
BRANCH   8   9
ATOM      9  C   UNL     1       5.652  -0.360   1.015  1.00  0.00     0.006 A 
ATOM     10  C   UNL     1       6.189  -1.336   1.870  1.00  0.00     0.013 A 
ATOM     11  C   UNL     1       6.468   0.190   0.012  1.00  0.00     0.013 A 
ATOM     12  C   UNL     1       7.513  -1.760   1.721  1.00  0.00     0.046 A 
ATOM     13  C   UNL     1       7.787  -0.239  -0.135  1.00  0.00     0.046 A 
ATOM     14  C   UNL     1       8.299  -1.209   0.717  1.00  0.00     0.115 A 
BRANCH  14  15
ATOM     15  O   UNL     1       9.591  -1.591   0.530  1.00  0.00    -0.508 OA
ATOM     16  H   UNL     1       9.850  -2.221   1.224  1.00  0.00     0.293 HD
ENDBRANCH  14  15
ENDBRANCH   8   9
ENDBRANCH   2   8
BRANCH   5  17
ATOM     17  C   UNL     1      -0.033  -2.146  -0.224  1.00  0.00     0.012 C 
BRANCH  17  18
ATOM     18  C   UNL     1      -1.473  -1.627  -0.370  1.00  0.00     0.081 C 
BRANCH  18  19
ATOM     19  C   UNL     1      -1.754  -0.363   0.431  1.00  0.00     0.162 C 
ATOM     20  O   UNL     1      -0.858   0.225   1.038  1.00  0.00    -0.294 OA
BRANCH  19  21
ATOM     21  C   UNL     1      -3.147   0.182   0.462  1.00  0.00     0.019 A 
ATOM     22  C   UNL     1      -4.194  -0.409  -0.267  1.00  0.00     0.017 A 
ATOM     23  C   UNL     1      -3.386   1.317   1.270  1.00  0.00     0.022 A 
ATOM     24  C   UNL     1      -5.485   0.130  -0.229  1.00  0.00    -0.022 A 
ATOM     25  C   UNL     1      -4.684   1.854   1.333  1.00  0.00     0.001 A 
ATOM     26  C   UNL     1      -5.668   1.253   0.572  1.00  0.00     0.059 A 
ATOM     27  C   UNL     1      -6.699  -0.458  -0.881  1.00  0.00     0.047 C 
ATOM     28  C   UNL     1      -5.318   2.915   2.035  1.00  0.00     0.029 A 
ATOM     29  N   UNL     1      -6.857   1.924   0.751  1.00  0.00    -0.287 N 
ATOM     30  C   UNL     1      -7.784   0.613  -1.100  1.00  0.00     0.106 C 
ATOM     31  C   UNL     1      -6.654   2.918   1.683  1.00  0.00     0.095 A 
ATOM     32  C   UNL     1      -8.023   1.581   0.055  1.00  0.00     0.231 C 
ATOM     33  O   UNL     1      -9.079   2.137   0.320  1.00  0.00    -0.274 OA
ENDBRANCH  19  21
ENDBRANCH  18  19
ENDBRANCH  17  18
ENDBRANCH   5  17
TORSDOF 7
