REMARK SMILES C[N@H+]1CC[C@@H](CCc2c(O)c3ccccc3[nH]c2=O)CC1
REMARK SMILES IDX 7 1 8 2 9 3 11 4 18 5 12 6 16 7 17 8 13 9 15 10 14 11 19 12
REMARK SMILES IDX 10 14 6 16 5 17 20 18 4 19 21 20 3 21 2 22 1 23
REMARK H PARENT 17 13 10 15 2 24
ROOT
ATOM      1  C   UNL     1       0.700   2.285   0.752  1.00  0.00     0.045 C 
ENDROOT
BRANCH   1   2
ATOM      2  C   UNL     1       0.534   3.518   1.601  1.00  0.00     0.060 A 
ATOM      3  C   UNL     1       0.345   3.494   2.932  1.00  0.00     0.133 A 
ATOM      4  C   UNL     1       0.165   4.739   3.704  1.00  0.00     0.040 A 
ATOM      5  C   UNL     1       0.528   4.824   0.875  1.00  0.00     0.255 A 
ATOM      6  C   UNL     1       0.064   4.782   5.103  1.00  0.00     0.014 A 
ATOM      7  C   UNL     1       0.112   5.950   2.997  1.00  0.00     0.052 A 
ATOM      8  N   UNL     1       0.282   5.947   1.609  1.00  0.00    -0.321 N 
ATOM      9  C   UNL     1      -0.125   6.000   5.765  1.00  0.00     0.001 A 
ATOM     10  C   UNL     1      -0.080   7.167   3.655  1.00  0.00     0.027 A 
ATOM     11  C   UNL     1      -0.204   7.188   5.042  1.00  0.00     0.002 A 
ATOM     12  O   UNL     1       0.735   4.883  -0.334  1.00  0.00    -0.269 OA
ATOM     13  H   UNL     1       0.270   6.818   1.093  1.00  0.00     0.170 HD
BRANCH   3  14
ATOM     14  O   UNL     1       0.294   2.289   3.612  1.00  0.00    -0.507 OA
ATOM     15  H   UNL     1      -0.356   2.387   4.330  1.00  0.00     0.293 HD
ENDBRANCH   3  14
ENDBRANCH   1   2
BRANCH   1  16
ATOM     16  C   UNL     1       2.175   2.039   0.406  1.00  0.00     0.009 C 
BRANCH  16  17
ATOM     17  C   UNL     1       2.396   0.799  -0.487  1.00  0.00     0.000 C 
ATOM     18  C   UNL     1       3.838   0.761  -1.021  1.00  0.00     0.065 C 
ATOM     19  C   UNL     1       2.085  -0.530   0.218  1.00  0.00     0.065 C 
ATOM     20  C   UNL     1       4.859   0.413   0.054  1.00  0.00     0.262 C 
ATOM     21  C   UNL     1       3.101  -0.882   1.298  1.00  0.00     0.262 C 
ATOM     22  N   UNL     1       4.486  -0.902   0.695  1.00  0.00    -0.337 N 
ATOM     23  C   UNL     1       5.518  -1.343   1.696  1.00  0.00     0.332 C 
ATOM     24  H   UNL     1       4.481  -1.612  -0.050  1.00  0.00     0.347 HD
ENDBRANCH  16  17
ENDBRANCH   1  16
TORSDOF 4
