REMARK SMILES Cc1cc(O)nc2c1C(=O)C(=NCCCCNc1c3c(nc4cc(Cl)ccc14)CCCC3)C=C2O
REMARK SMILES IDX 14 1 13 2 12 3 11 4 34 5 33 6 7 7 6 8 8 9 9 10 4 11 2 12
REMARK SMILES IDX 3 13 10 14 1 15 35 16 5 18 15 20 16 21 17 22 18 24 19 25
REMARK SMILES IDX 28 26 20 27 32 28 27 29 22 30 21 31 29 32 31 33 26 34 23 35
REMARK SMILES IDX 30 36 24 37 25 38
REMARK H PARENT 35 17 5 19 17 23
ROOT
ATOM      1  C   UNL     1       0.267  -2.597   1.165  1.00  0.00     0.025 C 
ENDROOT
BRANCH   1   2
ATOM      2  C   UNL     1       1.159  -1.443   1.622  1.00  0.00     0.143 C 
BRANCH   2   3
ATOM      3  N   UNL     1       2.093  -1.109   0.558  1.00  0.00    -0.281 NA
BRANCH   3   4
ATOM      4  C   UNL     1       3.067  -0.296   0.771  1.00  0.00     0.109 C 
ATOM      5  C   UNL     1       4.601   0.946   2.208  1.00  0.00     0.144 C 
ATOM      6  C   UNL     1       3.390   0.404   2.036  1.00  0.00     0.080 C 
ATOM      7  C   UNL     1       5.662   0.859   1.180  1.00  0.00     0.120 A 
ATOM      8  N   UNL     1       6.900   1.261   1.557  1.00  0.00    -0.210 NA
ATOM      9  C   UNL     1       5.385   0.395  -0.106  1.00  0.00     0.057 A 
ATOM     10  C   UNL     1       3.994   0.002  -0.405  1.00  0.00     0.213 C 
ATOM     11  C   UNL     1       7.876   1.213   0.640  1.00  0.00     0.211 A 
ATOM     12  C   UNL     1       6.424   0.345  -1.055  1.00  0.00    -0.032 A 
ATOM     13  C   UNL     1       7.697   0.774  -0.660  1.00  0.00     0.072 A 
ATOM     14  O   UNL     1       3.563  -0.061  -1.547  1.00  0.00    -0.287 OA
ATOM     15  C   UNL     1       6.221  -0.137  -2.464  1.00  0.00     0.045 C 
BRANCH   5  16
ATOM     16  O   UNL     1       4.946   1.599   3.377  1.00  0.00    -0.506 OA
ATOM     17  H   UNL     1       4.213   1.571   4.011  1.00  0.00     0.293 HD
ENDBRANCH   5  16
BRANCH  11  18
ATOM     18  O   UNL     1       9.094   1.635   1.081  1.00  0.00    -0.493 OA
ATOM     19  H   UNL     1       9.722   1.585   0.346  1.00  0.00     0.295 HD
ENDBRANCH  11  18
ENDBRANCH   3   4
ENDBRANCH   2   3
ENDBRANCH   1   2
BRANCH   1  20
ATOM     20  C   UNL     1      -0.433  -2.393  -0.186  1.00  0.00     0.023 C 
BRANCH  20  21
ATOM     21  C   UNL     1      -1.243  -1.104  -0.323  1.00  0.00     0.113 C 
BRANCH  21  22
ATOM     22  N   UNL     1      -2.346  -1.099   0.651  1.00  0.00    -0.384 N 
ATOM     23  H   UNL     1      -1.992  -0.918   1.586  1.00  0.00     0.160 HD
BRANCH  22  24
ATOM     24  C   UNL     1      -3.342  -0.134   0.321  1.00  0.00     0.049 A 
ATOM     25  C   UNL     1      -4.420  -0.537  -0.493  1.00  0.00    -0.003 A 
ATOM     26  C   UNL     1      -3.229   1.228   0.719  1.00  0.00     0.024 A 
ATOM     27  C   UNL     1      -5.343   0.434  -0.881  1.00  0.00     0.046 A 
ATOM     28  C   UNL     1      -4.549  -1.967  -0.963  1.00  0.00     0.039 C 
ATOM     29  C   UNL     1      -2.180   1.745   1.520  1.00  0.00     0.014 A 
ATOM     30  C   UNL     1      -4.235   2.114   0.278  1.00  0.00     0.074 A 
ATOM     31  N   UNL     1      -5.259   1.728  -0.493  1.00  0.00    -0.252 NA
ATOM     32  C   UNL     1      -6.548   0.092  -1.719  1.00  0.00     0.056 C 
ATOM     33  C   UNL     1      -5.932  -2.315  -1.513  1.00  0.00     0.005 C 
ATOM     34  C   UNL     1      -2.137   3.092   1.875  1.00  0.00     0.021 A 
ATOM     35  C   UNL     1      -4.177   3.450   0.643  1.00  0.00     0.049 A 
ATOM     36  C   UNL     1      -6.411  -1.230  -2.466  1.00  0.00     0.007 C 
ATOM     37  C   UNL     1      -3.142   3.940   1.434  1.00  0.00     0.043 A 
ATOM     38  Cl  UNL     1      -3.104   5.605   1.865  1.00  0.00    -0.084 Cl
ENDBRANCH  22  24
ENDBRANCH  21  22
ENDBRANCH  20  21
ENDBRANCH   1  20
TORSDOF 9
