REMARK SMILES COc1cc(O)c(C(=O)/C=C/c2ccc(F)cc2)cc1I
REMARK SMILES IDX 8 1 9 2 7 3 3 4 4 5 20 6 5 7 19 8 21 9 2 10 1 11 6 12 10 14
REMARK SMILES IDX 11 15 12 16 13 17 18 18 14 19 17 20 15 21 16 22
REMARK H PARENT 6 13
ROOT
ATOM      1  C   UNL     1      -0.033  -0.668   2.128  1.00  0.00     0.189 C 
ATOM      2  O   UNL     1      -0.013  -1.197   3.237  1.00  0.00    -0.289 OA
ENDROOT
BRANCH   1   3
ATOM      3  C   UNL     1       1.235  -0.472   1.397  1.00  0.00     0.065 A 
ATOM      4  C   UNL     1       3.702  -0.201   0.071  1.00  0.00     0.135 A 
ATOM      5  C   UNL     1       2.855   0.904   0.227  1.00  0.00     0.094 A 
ATOM      6  C   UNL     1       3.305  -1.441   0.603  1.00  0.00     0.056 A 
ATOM      7  C   UNL     1       1.633   0.769   0.893  1.00  0.00     0.130 A 
ATOM      8  C   UNL     1       2.083  -1.576   1.270  1.00  0.00     0.034 A 
ATOM      9  I   UNL     1       4.506  -3.157   0.439  1.00  0.00    -0.040 I 
BRANCH   4  10
ATOM     10  O   UNL     1       4.911  -0.159  -0.573  1.00  0.00    -0.496 OA
ATOM     11  C   UNL     1       5.361   1.091  -1.078  1.00  0.00     0.278 C 
ENDBRANCH   4  10
BRANCH   7  12
ATOM     12  O   UNL     1       0.835   1.865   1.066  1.00  0.00    -0.507 OA
ATOM     13  H   UNL     1       1.311   2.669   0.800  1.00  0.00     0.293 HD
ENDBRANCH   7  12
ENDBRANCH   1   3
BRANCH   1  14
ATOM     14  C   UNL     1      -1.335  -0.286   1.521  1.00  0.00     0.053 C 
BRANCH  14  15
ATOM     15  C   UNL     1      -1.549  -0.117   0.207  1.00  0.00     0.012 C 
BRANCH  15  16
ATOM     16  C   UNL     1      -2.856   0.238  -0.364  1.00  0.00    -0.025 A 
ATOM     17  C   UNL     1      -2.898   1.111  -1.461  1.00  0.00     0.011 A 
ATOM     18  C   UNL     1      -4.056  -0.309   0.116  1.00  0.00     0.011 A 
ATOM     19  C   UNL     1      -4.118   1.452  -2.050  1.00  0.00     0.040 A 
ATOM     20  C   UNL     1      -5.275   0.031  -0.474  1.00  0.00     0.040 A 
ATOM     21  C   UNL     1      -5.295   0.910  -1.550  1.00  0.00     0.123 A 
ATOM     22  F   UNL     1      -6.464   1.236  -2.116  1.00  0.00    -0.207 F 
ENDBRANCH  15  16
ENDBRANCH  14  15
ENDBRANCH   1  14
TORSDOF 6
