REMARK SMILES COc1ccc(-c2cc3c(c(=O)o2)C[C@]2(O)[C@@]4(C)C(=O)C=CC(C)(C)[C@]4(O)CC[C@@]2(C)O3)cc1OC
REMARK SMILES IDX 7 1 8 2 9 3 10 4 11 5 12 6 13 7 14 8 15 9 17 10 18 11 19 12
REMARK SMILES IDX 20 13 21 14 22 15 23 16 24 17 25 18 26 19 28 20 29 21 30 22
REMARK SMILES IDX 31 23 32 24 6 25 3 26 4 27 34 28 5 29 33 30 2 31 1 32 35 33
REMARK SMILES IDX 36 34 16 35 27 37
REMARK H PARENT 16 36 27 38
ROOT
ATOM      1  C   UNL     1       3.222   0.255  -0.120  1.00  0.00     0.142 A 
ATOM      2  C   UNL     1       2.194   0.183  -0.977  1.00  0.00     0.094 A 
ATOM      3  C   UNL     1       0.859   0.108  -0.463  1.00  0.00     0.134 A 
ATOM      4  C   UNL     1       0.614   0.110   0.854  1.00  0.00     0.083 A 
ATOM      5  C   UNL     1       1.747   0.132   1.806  1.00  0.00     0.343 A 
ATOM      6  O   UNL     1       1.565   0.048   3.015  1.00  0.00    -0.246 OA
ATOM      7  O   UNL     1       3.006   0.226   1.279  1.00  0.00    -0.422 OA
ATOM      8  C   UNL     1      -0.783   0.114   1.419  1.00  0.00     0.088 C 
ATOM      9  C   UNL     1      -1.846   0.358   0.309  1.00  0.00     0.124 C 
ATOM     10  C   UNL     1      -3.372   0.094   0.697  1.00  0.00     0.093 C 
ATOM     11  C   UNL     1      -3.583  -1.344   1.242  1.00  0.00     0.026 C 
ATOM     12  C   UNL     1      -3.819   0.989   1.865  1.00  0.00     0.167 C 
ATOM     13  O   UNL     1      -3.081   1.310   2.796  1.00  0.00    -0.294 OA
ATOM     14  C   UNL     1      -5.267   1.308   2.010  1.00  0.00     0.044 C 
ATOM     15  C   UNL     1      -6.184   0.943   1.104  1.00  0.00    -0.014 C 
ATOM     16  C   UNL     1      -5.880   0.291  -0.235  1.00  0.00     0.013 C 
ATOM     17  C   UNL     1      -6.729   1.053  -1.293  1.00  0.00     0.018 C 
ATOM     18  C   UNL     1      -6.429  -1.150  -0.223  1.00  0.00     0.018 C 
ATOM     19  C   UNL     1      -4.324   0.422  -0.544  1.00  0.00     0.089 C 
ATOM     20  C   UNL     1      -3.868  -0.379  -1.789  1.00  0.00     0.041 C 
ATOM     21  C   UNL     1      -2.394  -0.132  -2.142  1.00  0.00     0.054 C 
ATOM     22  C   UNL     1      -1.419  -0.434  -0.984  1.00  0.00     0.136 C 
ATOM     23  C   UNL     1      -1.278  -1.968  -0.849  1.00  0.00     0.060 C 
ATOM     24  O   UNL     1      -0.116   0.045  -1.435  1.00  0.00    -0.484 OA
ENDROOT
BRANCH   1  25
ATOM     25  C   UNL     1       4.638   0.334  -0.527  1.00  0.00     0.021 A 
ATOM     26  C   UNL     1       7.362   0.491  -1.238  1.00  0.00     0.160 A 
ATOM     27  C   UNL     1       6.382   1.102  -2.027  1.00  0.00     0.051 A 
ATOM     28  C   UNL     1       6.988  -0.233  -0.094  1.00  0.00     0.161 A 
ATOM     29  C   UNL     1       5.035   1.035  -1.671  1.00  0.00     0.016 A 
ATOM     30  C   UNL     1       5.629  -0.292   0.253  1.00  0.00     0.062 A 
BRANCH  26  31
ATOM     31  O   UNL     1       8.635   0.638  -1.728  1.00  0.00    -0.493 OA
ATOM     32  C   UNL     1       9.645   0.855  -0.748  1.00  0.00     0.278 C 
ENDBRANCH  26  31
BRANCH  28  33
ATOM     33  O   UNL     1       7.980  -0.871   0.602  1.00  0.00    -0.493 OA
ATOM     34  C   UNL     1       7.618  -1.591   1.774  1.00  0.00     0.278 C 
ENDBRANCH  28  33
ENDBRANCH   1  25
BRANCH   9  35
ATOM     35  O   UNL     1      -1.716   1.775   0.003  1.00  0.00    -0.384 OA
ATOM     36  H   UNL     1      -0.939   1.902  -0.569  1.00  0.00     0.211 HD
ENDBRANCH   9  35
BRANCH  19  37
ATOM     37  O   UNL     1      -4.123   1.814  -0.892  1.00  0.00    -0.388 OA
ATOM     38  H   UNL     1      -4.387   1.973  -1.813  1.00  0.00     0.211 HD
ENDBRANCH  19  37
TORSDOF 5
