REMARK SMILES CCC1=C[C@H]2Cc3[nH]c4cc(Cl)ccc4c(=N)c3[C@@H](C1)C2
REMARK SMILES IDX 8 1 7 2 18 3 16 4 15 5 14 6 13 7 11 8 12 9 10 10 9 11 19 12
REMARK SMILES IDX 20 13 3 14 4 15 5 16 6 17 21 18 17 20 2 22 1 23
REMARK H PARENT 8 19 17 21
ROOT
ATOM      1  N   UNL     1      -2.863  -1.214  -0.148  1.00  0.00    -0.358 N 
ATOM      2  C   UNL     1      -1.521  -0.910  -0.219  1.00  0.00     0.021 A 
ATOM      3  C   UNL     1      -1.058   0.266  -0.694  1.00  0.00     0.000 A 
ATOM      4  C   UNL     1      -2.046   1.299  -1.155  1.00  0.00     0.068 A 
ATOM      5  C   UNL     1      -3.501   0.986  -0.983  1.00  0.00     0.023 A 
ATOM      6  C   UNL     1      -4.508   1.905  -1.315  1.00  0.00     0.014 A 
ATOM      7  C   UNL     1      -5.853   1.565  -1.147  1.00  0.00     0.021 A 
ATOM      8  C   UNL     1      -6.195   0.310  -0.651  1.00  0.00     0.043 A 
ATOM      9  Cl  UNL     1      -7.852  -0.108  -0.455  1.00  0.00    -0.084 Cl
ATOM     10  C   UNL     1      -5.204  -0.610  -0.313  1.00  0.00     0.047 A 
ATOM     11  C   UNL     1      -3.852  -0.274  -0.460  1.00  0.00     0.049 A 
ATOM     12  C   UNL     1       0.423   0.594  -0.802  1.00  0.00     0.028 C 
ATOM     13  C   UNL     1       0.886   1.448   0.402  1.00  0.00     0.039 C 
ATOM     14  C   UNL     1       1.116   0.642   1.671  1.00  0.00    -0.074 C 
ATOM     15  C   UNL     1       1.113  -0.706   1.656  1.00  0.00    -0.024 C 
ATOM     16  C   UNL     1       0.902  -1.519   0.395  1.00  0.00     0.018 C 
ATOM     17  C   UNL     1      -0.565  -1.983   0.285  1.00  0.00     0.062 C 
ATOM     18  C   UNL     1       1.256  -0.694  -0.846  1.00  0.00     0.017 C 
ATOM     19  H   UNL     1      -3.130  -2.043   0.368  1.00  0.00     0.166 HD
ENDROOT
BRANCH   4  20
ATOM     20  N   UNL     1      -1.603   2.405  -1.671  1.00  0.00    -0.300 NA
ATOM     21  H   UNL     1      -2.345   3.038  -1.962  1.00  0.00     0.188 HD
ENDBRANCH   4  20
BRANCH  14  22
ATOM     22  C   UNL     1       1.364   1.423   2.938  1.00  0.00     0.027 C 
ATOM     23  C   UNL     1       0.089   2.028   3.509  1.00  0.00     0.008 C 
ENDBRANCH  14  22
TORSDOF 2
