REMARK SMILES Cc1cc(=O)[nH]c2c1C(=O)C(NCCCCN=c1c3c([nH]c4cc(Cl)ccc14)CCCC3)=CC2=O
REMARK SMILES IDX 15 1 16 2 17 3 18 4 21 5 20 6 22 7 19 8 29 9 23 10 28 11
REMARK SMILES IDX 32 12 30 13 24 14 27 15 31 16 26 17 25 19 14 20 13 21 12 22
REMARK SMILES IDX 11 24 33 25 9 26 34 27 8 28 7 29 2 30 6 31 3 32 4 33 10 34
REMARK SMILES IDX 35 35 1 36 5 38
REMARK H PARENT 21 18 12 23 6 37
ROOT
ATOM      1  C   UNL     1      -0.680   1.729   1.645  1.00  0.00     0.025 C 
ENDROOT
BRANCH   1   2
ATOM      2  C   UNL     1      -1.793   2.140   0.682  1.00  0.00     0.143 C 
BRANCH   2   3
ATOM      3  N   UNL     1      -2.200   1.007  -0.118  1.00  0.00    -0.284 NA
BRANCH   3   4
ATOM      4  C   UNL     1      -3.325   0.377  -0.104  1.00  0.00     0.072 A 
ATOM      5  N   UNL     1      -5.904  -0.450  -0.867  1.00  0.00    -0.358 N 
ATOM      6  C   UNL     1      -4.807  -0.959  -1.534  1.00  0.00     0.021 A 
ATOM      7  C   UNL     1      -5.750   0.135   0.401  1.00  0.00     0.049 A 
ATOM      8  C   UNL     1      -3.541  -0.625  -1.213  1.00  0.00    -0.003 A 
ATOM      9  C   UNL     1      -5.099  -1.935  -2.654  1.00  0.00     0.054 C 
ATOM     10  C   UNL     1      -6.871   0.335   1.218  1.00  0.00     0.047 A 
ATOM     11  C   UNL     1      -4.474   0.530   0.850  1.00  0.00     0.024 A 
ATOM     12  C   UNL     1      -2.328  -1.135  -1.948  1.00  0.00     0.039 C 
ATOM     13  C   UNL     1      -3.881  -2.746  -3.097  1.00  0.00     0.007 C 
ATOM     14  C   UNL     1      -6.712   0.840   2.506  1.00  0.00     0.043 A 
ATOM     15  C   UNL     1      -4.326   0.975   2.168  1.00  0.00     0.014 A 
ATOM     16  C   UNL     1      -2.664  -1.847  -3.259  1.00  0.00     0.005 C 
ATOM     17  C   UNL     1      -5.444   1.140   2.992  1.00  0.00     0.021 A 
ATOM     18  H   UNL     1      -6.797  -0.889  -1.063  1.00  0.00     0.166 HD
ATOM     19  Cl  UNL     1      -8.088   1.058   3.514  1.00  0.00    -0.084 Cl
ENDBRANCH   3   4
ENDBRANCH   2   3
ENDBRANCH   1   2
BRANCH   1  20
ATOM     20  C   UNL     1       0.508   1.008   0.996  1.00  0.00     0.023 C 
BRANCH  20  21
ATOM     21  C   UNL     1       1.149   1.788  -0.150  1.00  0.00     0.113 C 
BRANCH  21  22
ATOM     22  N   UNL     1       2.337   1.102  -0.636  1.00  0.00    -0.382 N 
ATOM     23  H   UNL     1       2.135   0.234  -1.146  1.00  0.00     0.160 HD
BRANCH  22  24
ATOM     24  C   UNL     1       3.587   1.044  -0.027  1.00  0.00     0.087 C 
ATOM     25  C   UNL     1       4.070   1.938   0.840  1.00  0.00     0.084 C 
ATOM     26  C   UNL     1       4.435  -0.151  -0.411  1.00  0.00     0.211 C 
ATOM     27  C   UNL     1       5.404   1.816   1.435  1.00  0.00     0.205 C 
ATOM     28  C   UNL     1       5.822  -0.265   0.144  1.00  0.00     0.055 A 
ATOM     29  C   UNL     1       6.246   0.670   1.012  1.00  0.00     0.101 A 
ATOM     30  C   UNL     1       6.741  -1.361  -0.211  1.00  0.00    -0.032 A 
ATOM     31  N   UNL     1       7.506   0.608   1.566  1.00  0.00    -0.319 N 
ATOM     32  C   UNL     1       7.971  -1.407   0.339  1.00  0.00     0.075 A 
ATOM     33  C   UNL     1       8.419  -0.371   1.298  1.00  0.00     0.248 A 
ATOM     34  O   UNL     1       3.947  -0.999  -1.158  1.00  0.00    -0.287 OA
ATOM     35  O   UNL     1       5.808   2.639   2.250  1.00  0.00    -0.288 OA
ATOM     36  C   UNL     1       6.324  -2.426  -1.186  1.00  0.00     0.045 C 
ATOM     37  H   UNL     1       7.781   1.337   2.220  1.00  0.00     0.170 HD
ATOM     38  O   UNL     1       9.533  -0.410   1.802  1.00  0.00    -0.270 OA
ENDBRANCH  22  24
ENDBRANCH  21  22
ENDBRANCH  20  21
ENDBRANCH   1  20
TORSDOF 7
