REMARK SMILES O=C1C(=NCCNc2c3c(nc4cc(Cl)ccc24)CCCC3)C=C(O)c2c(O)cccc21
REMARK SMILES IDX 5 1 4 2 3 3 24 4 23 5 26 6 27 7 32 8 2 9 29 10 31 11 30 12
REMARK SMILES IDX 1 13 25 14 28 16 6 18 7 19 8 21 9 22 18 23 10 24 22 25 17 26
REMARK SMILES IDX 12 27 11 28 19 29 21 30 16 31 13 32 20 33 14 34 15 35
REMARK H PARENT 25 15 28 17 7 20
ROOT
ATOM      1  C   UNL     1       0.313  -0.895   1.265  1.00  0.00     0.164 C 
ENDROOT
BRANCH   1   2
ATOM      2  N   UNL     1       1.591  -0.532   1.883  1.00  0.00    -0.279 NA
BRANCH   2   3
ATOM      3  C   UNL     1       2.689  -0.753   1.234  1.00  0.00     0.109 C 
ATOM      4  C   UNL     1       5.102  -0.288   1.183  1.00  0.00     0.129 C 
ATOM      5  C   UNL     1       3.957  -0.331   1.872  1.00  0.00     0.079 C 
ATOM      6  C   UNL     1       5.185  -0.651  -0.248  1.00  0.00     0.069 A 
ATOM      7  C   UNL     1       6.349  -0.490  -1.022  1.00  0.00     0.127 A 
ATOM      8  C   UNL     1       4.064  -1.197  -0.894  1.00  0.00     0.039 A 
ATOM      9  C   UNL     1       2.813  -1.410  -0.138  1.00  0.00     0.211 C 
ATOM     10  C   UNL     1       6.394  -0.851  -2.370  1.00  0.00     0.047 A 
ATOM     11  C   UNL     1       4.103  -1.571  -2.247  1.00  0.00     0.013 A 
ATOM     12  C   UNL     1       5.270  -1.393  -2.985  1.00  0.00     0.005 A 
ATOM     13  O   UNL     1       1.923  -2.118  -0.588  1.00  0.00    -0.287 OA
BRANCH   4  14
ATOM     14  O   UNL     1       6.283   0.130   1.771  1.00  0.00    -0.507 OA
ATOM     15  H   UNL     1       6.112   0.337   2.709  1.00  0.00     0.293 HD
ENDBRANCH   4  14
BRANCH   7  16
ATOM     16  O   UNL     1       7.513   0.026  -0.514  1.00  0.00    -0.507 OA
ATOM     17  H   UNL     1       7.359   0.194   0.438  1.00  0.00     0.293 HD
ENDBRANCH   7  16
ENDBRANCH   2   3
ENDBRANCH   1   2
BRANCH   1  18
ATOM     18  C   UNL     1      -0.844  -0.389   2.142  1.00  0.00     0.136 C 
BRANCH  18  19
ATOM     19  N   UNL     1      -2.164  -0.829   1.649  1.00  0.00    -0.382 N 
ATOM     20  H   UNL     1      -2.163  -1.822   1.439  1.00  0.00     0.160 HD
BRANCH  19  21
ATOM     21  C   UNL     1      -2.678  -0.057   0.578  1.00  0.00     0.049 A 
ATOM     22  C   UNL     1      -3.228   1.206   0.844  1.00  0.00    -0.003 A 
ATOM     23  C   UNL     1      -2.589  -0.498  -0.777  1.00  0.00     0.024 A 
ATOM     24  C   UNL     1      -3.640   1.989  -0.233  1.00  0.00     0.046 A 
ATOM     25  C   UNL     1      -3.401   1.785   2.225  1.00  0.00     0.039 C 
ATOM     26  C   UNL     1      -2.060  -1.750  -1.183  1.00  0.00     0.014 A 
ATOM     27  C   UNL     1      -3.052   0.385  -1.783  1.00  0.00     0.074 A 
ATOM     28  N   UNL     1      -3.555   1.597  -1.520  1.00  0.00    -0.252 NA
ATOM     29  C   UNL     1      -4.184   3.365   0.047  1.00  0.00     0.056 C 
ATOM     30  C   UNL     1      -4.768   2.459   2.381  1.00  0.00     0.005 C 
ATOM     31  C   UNL     1      -1.993  -2.111  -2.528  1.00  0.00     0.021 A 
ATOM     32  C   UNL     1      -2.980   0.005  -3.114  1.00  0.00     0.049 A 
ATOM     33  C   UNL     1      -5.195   3.328   1.190  1.00  0.00     0.007 C 
ATOM     34  C   UNL     1      -2.456  -1.228  -3.490  1.00  0.00     0.043 A 
ATOM     35  Cl  UNL     1      -2.378  -1.657  -5.154  1.00  0.00    -0.084 Cl
ENDBRANCH  19  21
ENDBRANCH  18  19
ENDBRANCH   1  18
TORSDOF 7
