REMARK SMILES CNC(=O)Oc1cccc(C[N@@H+](C)CCCOc2ccc3ccc(=O)oc3c2)c1
REMARK SMILES IDX 12 1 13 2 11 4 10 5 9 6 29 7 8 8 6 9 7 10 5 11 3 12 2 13
REMARK SMILES IDX 4 14 1 15 14 17 15 18 16 19 17 20 18 21 19 22 28 23 20 24
REMARK SMILES IDX 27 25 21 26 26 27 22 28 24 29 23 30 25 31
REMARK H PARENT 12 3 2 16
ROOT
ATOM      1  N   UNL     1       0.315   1.468   0.230  1.00  0.00    -0.334 N 
ATOM      2  C   UNL     1       1.222   2.403   0.977  1.00  0.00     0.333 C 
ATOM      3  H   UNL     1      -0.086   0.801   0.908  1.00  0.00     0.348 HD
ENDROOT
BRANCH   1   4
ATOM      4  C   UNL     1       1.072   0.605  -0.761  1.00  0.00     0.298 C 
BRANCH   4   5
ATOM      5  C   UNL     1       2.002  -0.378  -0.104  1.00  0.00     0.010 A 
ATOM      6  C   UNL     1       1.497  -1.497   0.579  1.00  0.00     0.010 A 
ATOM      7  C   UNL     1       3.390  -0.185  -0.162  1.00  0.00     0.056 A 
ATOM      8  C   UNL     1       2.364  -2.406   1.189  1.00  0.00     0.004 A 
ATOM      9  C   UNL     1       4.248  -1.119   0.420  1.00  0.00     0.133 A 
ATOM     10  C   UNL     1       3.742  -2.216   1.114  1.00  0.00     0.047 A 
BRANCH   9  11
ATOM     11  O   UNL     1       5.647  -0.981   0.399  1.00  0.00    -0.410 OA
BRANCH  11  12
ATOM     12  C   UNL     1       6.272  -0.639  -0.796  1.00  0.00     0.412 C 
ATOM     13  N   UNL     1       7.624  -0.602  -0.605  1.00  0.00    -0.324 N 
ATOM     14  O   UNL     1       5.706  -0.395  -1.853  1.00  0.00    -0.224 OA
ATOM     15  C   UNL     1       8.543  -0.218  -1.643  1.00  0.00     0.146 C 
ATOM     16  H   UNL     1       7.962  -0.758   0.335  1.00  0.00     0.166 HD
ENDBRANCH  11  12
ENDBRANCH   9  11
ENDBRANCH   4   5
ENDBRANCH   1   4
BRANCH   1  17
ATOM     17  C   UNL     1      -0.852   2.159  -0.432  1.00  0.00     0.265 C 
BRANCH  17  18
ATOM     18  C   UNL     1      -1.857   2.732   0.567  1.00  0.00     0.103 C 
BRANCH  18  19
ATOM     19  C   UNL     1      -2.280   1.795   1.702  1.00  0.00     0.235 C 
BRANCH  19  20
ATOM     20  O   UNL     1      -2.116   0.421   1.348  1.00  0.00    -0.493 OA
BRANCH  20  21
ATOM     21  C   UNL     1      -3.193  -0.238   0.822  1.00  0.00     0.123 A 
ATOM     22  C   UNL     1      -3.074  -1.633   0.799  1.00  0.00     0.047 A 
ATOM     23  C   UNL     1      -4.337   0.357   0.297  1.00  0.00     0.094 A 
ATOM     24  C   UNL     1      -4.092  -2.434   0.266  1.00  0.00     0.016 A 
ATOM     25  C   UNL     1      -5.341  -0.454  -0.236  1.00  0.00     0.142 A 
ATOM     26  C   UNL     1      -5.239  -1.842  -0.259  1.00  0.00     0.018 A 
ATOM     27  O   UNL     1      -6.474   0.197  -0.763  1.00  0.00    -0.423 OA
ATOM     28  C   UNL     1      -6.329  -2.620  -0.823  1.00  0.00     0.019 A 
ATOM     29  C   UNL     1      -7.525  -0.523  -1.319  1.00  0.00     0.336 A 
ATOM     30  C   UNL     1      -7.400  -1.991  -1.318  1.00  0.00     0.094 A 
ATOM     31  O   UNL     1      -8.511   0.027  -1.794  1.00  0.00    -0.246 OA
ENDBRANCH  20  21
ENDBRANCH  19  20
ENDBRANCH  18  19
ENDBRANCH  17  18
ENDBRANCH   1  17
TORSDOF 9
