REMARK SMILES COc1ccc([C@H]2O[C@@H](O)[C@H]3[C@@H]2C(=O)O[C@@H]3c2cc(OC)c3c(c2)OCO3)cc1OC
REMARK SMILES IDX 7 1 8 2 9 3 11 4 12 5 13 6 14 7 15 8 16 9 6 10 3 11 4 12
REMARK SMILES IDX 29 13 5 14 28 15 2 16 1 17 30 18 31 19 10 20 17 22 18 23
REMARK SMILES IDX 24 24 19 25 23 26 22 27 25 28 27 29 26 30 20 31 21 32
REMARK H PARENT 10 21
ROOT
ATOM      1  C   UNL     1       1.886   0.021   1.932  1.00  0.00     0.166 C 
ATOM      2  O   UNL     1       2.639   1.120   1.381  1.00  0.00    -0.344 OA
ATOM      3  C   UNL     1       1.734   2.138   0.979  1.00  0.00     0.255 C 
ATOM      4  C   UNL     1       0.385   1.471   0.771  1.00  0.00     0.108 C 
ATOM      5  C   UNL     1       0.416   0.353   1.774  1.00  0.00     0.145 C 
ATOM      6  C   UNL     1      -0.146   1.014   2.995  1.00  0.00     0.313 C 
ATOM      7  O   UNL     1      -0.054   0.595   4.137  1.00  0.00    -0.252 OA
ATOM      8  O   UNL     1      -0.799   2.164   2.654  1.00  0.00    -0.457 OA
ATOM      9  C   UNL     1      -0.764   2.344   1.229  1.00  0.00     0.216 C 
ENDROOT
BRANCH   1  10
ATOM     10  C   UNL     1       2.243  -1.264   1.210  1.00  0.00    -0.014 A 
ATOM     11  C   UNL     1       2.814  -3.698  -0.100  1.00  0.00     0.160 A 
ATOM     12  C   UNL     1       2.399  -3.692   1.235  1.00  0.00     0.051 A 
ATOM     13  C   UNL     1       2.947  -2.477  -0.789  1.00  0.00     0.161 A 
ATOM     14  C   UNL     1       2.115  -2.486   1.883  1.00  0.00     0.010 A 
ATOM     15  C   UNL     1       2.657  -1.275  -0.132  1.00  0.00     0.056 A 
BRANCH  11  16
ATOM     16  O   UNL     1       3.111  -4.832  -0.815  1.00  0.00    -0.493 OA
ATOM     17  C   UNL     1       3.010  -6.080  -0.144  1.00  0.00     0.278 C 
ENDBRANCH  11  16
BRANCH  13  18
ATOM     18  O   UNL     1       3.354  -2.565  -2.099  1.00  0.00    -0.493 OA
ATOM     19  C   UNL     1       3.611  -1.351  -2.791  1.00  0.00     0.278 C 
ENDBRANCH  13  18
ENDBRANCH   1  10
BRANCH   3  20
ATOM     20  O   UNL     1       2.172   2.690  -0.243  1.00  0.00    -0.368 OA
ATOM     21  H   UNL     1       3.055   3.052  -0.049  1.00  0.00     0.213 HD
ENDBRANCH   3  20
BRANCH   9  22
ATOM     22  C   UNL     1      -2.090   1.987   0.579  1.00  0.00     0.001 A 
ATOM     23  C   UNL     1      -2.241   2.179  -0.822  1.00  0.00     0.058 A 
ATOM     24  C   UNL     1      -3.177   1.495   1.319  1.00  0.00     0.058 A 
ATOM     25  C   UNL     1      -3.438   1.870  -1.482  1.00  0.00     0.165 A 
ATOM     26  C   UNL     1      -4.345   1.201   0.648  1.00  0.00     0.170 A 
ATOM     27  C   UNL     1      -4.475   1.380  -0.709  1.00  0.00     0.207 A 
ATOM     28  O   UNL     1      -5.478   0.714   1.224  1.00  0.00    -0.453 OA
ATOM     29  O   UNL     1      -5.714   1.023  -1.153  1.00  0.00    -0.450 OA
ATOM     30  C   UNL     1      -6.341   0.607   0.074  1.00  0.00     0.468 C 
BRANCH  25  31
ATOM     31  O   UNL     1      -3.681   2.011  -2.817  1.00  0.00    -0.493 OA
ATOM     32  C   UNL     1      -2.611   2.476  -3.628  1.00  0.00     0.278 C 
ENDBRANCH  25  31
ENDBRANCH   9  22
TORSDOF 6
