REMARK SMILES COc1ccc(OC)c([C@H]2CC(c3cc(F)cc(F)c3)=NN2c2ccc(S(N)(=O)=O)cc2)c1
REMARK SMILES IDX 23 1 24 2 25 3 26 4 31 5 32 6 22 7 10 8 11 9 12 10 21 11
REMARK SMILES IDX 9 12 3 13 4 14 33 15 5 16 6 17 2 18 1 19 7 20 8 21 13 22
REMARK SMILES IDX 14 23 20 24 15 25 18 26 17 27 16 28 19 29 27 30 29 31 30 32
REMARK SMILES IDX 28 33
REMARK H PARENT 28 34 28 35
ROOT
ATOM      1  C   UNL     1      -1.451   1.083  -0.131  1.00  0.00     0.060 A 
ATOM      2  C   UNL     1      -2.050   1.551  -1.318  1.00  0.00     0.029 A 
ATOM      3  C   UNL     1      -3.438   1.639  -1.470  1.00  0.00     0.024 A 
ATOM      4  C   UNL     1      -4.262   1.243  -0.421  1.00  0.00     0.082 A 
ATOM      5  C   UNL     1      -3.710   0.788   0.774  1.00  0.00     0.024 A 
ATOM      6  C   UNL     1      -2.317   0.710   0.908  1.00  0.00     0.029 A 
ENDROOT
BRANCH   1   7
ATOM      7  N   UNL     1      -0.063   1.004  -0.025  1.00  0.00    -0.257 N 
ATOM      8  C   UNL     1       0.698   0.568   1.154  1.00  0.00     0.148 C 
ATOM      9  C   UNL     1       2.103   1.111   0.885  1.00  0.00     0.091 C 
ATOM     10  C   UNL     1       1.940   1.600  -0.526  1.00  0.00     0.071 C 
ATOM     11  N   UNL     1       0.727   1.571  -0.987  1.00  0.00    -0.176 NA
BRANCH   8  12
ATOM     12  C   UNL     1       0.673  -0.938   1.366  1.00  0.00     0.023 A 
ATOM     13  C   UNL     1       0.103  -2.814   2.846  1.00  0.00     0.119 A 
ATOM     14  C   UNL     1       0.590  -3.714   1.902  1.00  0.00     0.050 A 
ATOM     15  C   UNL     1       0.155  -1.442   2.576  1.00  0.00     0.056 A 
ATOM     16  C   UNL     1       1.122  -3.240   0.701  1.00  0.00     0.050 A 
ATOM     17  C   UNL     1       1.149  -1.868   0.430  1.00  0.00     0.124 A 
BRANCH  13  18
ATOM     18  O   UNL     1      -0.436  -3.134   4.061  1.00  0.00    -0.497 OA
ATOM     19  C   UNL     1      -0.527  -4.517   4.381  1.00  0.00     0.278 C 
ENDBRANCH  13  18
BRANCH  17  20
ATOM     20  O   UNL     1       1.741  -1.440  -0.728  1.00  0.00    -0.496 OA
ATOM     21  C   UNL     1       0.908  -1.718  -1.856  1.00  0.00     0.278 C 
ENDBRANCH  17  20
ENDBRANCH   8  12
BRANCH  10  22
ATOM     22  C   UNL     1       3.085   2.108  -1.316  1.00  0.00     0.004 A 
ATOM     23  C   UNL     1       4.369   2.191  -0.771  1.00  0.00     0.049 A 
ATOM     24  C   UNL     1       2.868   2.512  -2.639  1.00  0.00     0.049 A 
ATOM     25  C   UNL     1       5.415   2.673  -1.554  1.00  0.00     0.126 A 
ATOM     26  C   UNL     1       3.933   2.989  -3.398  1.00  0.00     0.126 A 
ATOM     27  C   UNL     1       5.211   3.074  -2.867  1.00  0.00     0.078 A 
ATOM     28  F   UNL     1       6.644   2.750  -1.027  1.00  0.00    -0.207 F 
ATOM     29  F   UNL     1       3.720   3.371  -4.663  1.00  0.00    -0.207 F 
ENDBRANCH  10  22
ENDBRANCH   1   7
BRANCH   4  30
ATOM     30  S   UNL     1      -6.022   1.336  -0.590  1.00  0.00     0.238 S 
ATOM     31  O   UNL     1      -6.602   1.511   0.720  1.00  0.00    -0.207 OA
ATOM     32  O   UNL     1      -6.336   2.203  -1.703  1.00  0.00    -0.207 OA
BRANCH  30  33
ATOM     33  N   UNL     1      -6.389  -0.223  -1.115  1.00  0.00    -0.225 NA
ATOM     34  H   UNL     1      -6.767  -0.167  -2.063  1.00  0.00     0.137 HD
ATOM     35  H   UNL     1      -5.593  -0.859  -1.061  1.00  0.00     0.137 HD
ENDBRANCH  30  33
ENDBRANCH   4  30
TORSDOF 7
