REMARK SMILES COc1cc2c(cc1OC)SC(=C(O)CCc1cc[n+](Cc3ccc(F)cc3)cc1)C2
REMARK SMILES IDX 15 1 13 2 14 3 12 5 31 6 11 7 5 8 6 9 4 10 7 11 3 12 8 13
REMARK SMILES IDX 2 14 1 15 9 16 10 17 16 18 17 19 18 20 30 21 19 22 29 23
REMARK SMILES IDX 20 24 21 25 22 26 23 27 28 28 24 29 27 30 25 31 26 32
REMARK H PARENT 14 4
ROOT
ATOM      1  C   UNL     1      -0.289  -0.875   2.997  1.00  0.00     0.080 C 
ENDROOT
BRANCH   1   2
ATOM      2  C   UNL     1      -1.011  -1.394   1.768  1.00  0.00     0.103 C 
BRANCH   2   3
ATOM      3  O   UNL     1      -0.411  -2.529   1.240  1.00  0.00    -0.511 OA
ATOM      4  H   UNL     1      -1.060  -3.016   0.702  1.00  0.00     0.293 HD
ENDBRANCH   2   3
BRANCH   2   5
ATOM      5  C   UNL     1      -2.135  -0.865   1.239  1.00  0.00     0.032 C 
ATOM      6  C   UNL     1      -2.849  -1.396   0.007  1.00  0.00     0.083 C 
ATOM      7  S   UNL     1      -2.896   0.589   1.877  1.00  0.00    -0.090 SA
ATOM      8  C   UNL     1      -3.949  -0.432  -0.334  1.00  0.00    -0.025 A 
ATOM      9  C   UNL     1      -4.082   0.631   0.557  1.00  0.00     0.020 A 
ATOM     10  C   UNL     1      -4.801  -0.545  -1.429  1.00  0.00     0.055 A 
ATOM     11  C   UNL     1      -5.056   1.604   0.377  1.00  0.00     0.066 A 
ATOM     12  C   UNL     1      -5.792   0.425  -1.628  1.00  0.00     0.161 A 
ATOM     13  C   UNL     1      -5.918   1.506  -0.721  1.00  0.00     0.161 A 
BRANCH  12  14
ATOM     14  O   UNL     1      -6.678   0.419  -2.677  1.00  0.00    -0.493 OA
ATOM     15  C   UNL     1      -6.694  -0.719  -3.527  1.00  0.00     0.278 C 
ENDBRANCH  12  14
BRANCH  13  16
ATOM     16  O   UNL     1      -6.913   2.410  -1.004  1.00  0.00    -0.493 OA
ATOM     17  C   UNL     1      -7.138   3.461  -0.075  1.00  0.00     0.278 C 
ENDBRANCH  13  16
ENDBRANCH   2   5
ENDBRANCH   1   2
BRANCH   1  18
ATOM     18  C   UNL     1       0.737   0.228   2.699  1.00  0.00     0.044 C 
BRANCH  18  19
ATOM     19  C   UNL     1       1.909  -0.234   1.864  1.00  0.00    -0.036 A 
ATOM     20  C   UNL     1       2.005   0.117   0.519  1.00  0.00     0.074 A 
ATOM     21  C   UNL     1       2.903  -1.042   2.416  1.00  0.00     0.074 A 
ATOM     22  C   UNL     1       3.078  -0.339  -0.237  1.00  0.00     0.308 A 
ATOM     23  C   UNL     1       3.958  -1.476   1.622  1.00  0.00     0.308 A 
ATOM     24  N   UNL     1       4.035  -1.118   0.320  1.00  0.00    -0.201 N 
BRANCH  24  25
ATOM     25  C   UNL     1       5.162  -1.602  -0.514  1.00  0.00     0.393 C 
BRANCH  25  26
ATOM     26  C   UNL     1       6.074  -0.469  -0.917  1.00  0.00     0.017 A 
ATOM     27  C   UNL     1       6.272  -0.170  -2.277  1.00  0.00     0.013 A 
ATOM     28  C   UNL     1       6.746   0.296   0.053  1.00  0.00     0.013 A 
ATOM     29  C   UNL     1       7.112   0.880  -2.655  1.00  0.00     0.040 A 
ATOM     30  C   UNL     1       7.585   1.345  -0.332  1.00  0.00     0.040 A 
ATOM     31  C   UNL     1       7.759   1.628  -1.680  1.00  0.00     0.123 A 
ATOM     32  F   UNL     1       8.562   2.634  -2.044  1.00  0.00    -0.207 F 
ENDBRANCH  25  26
ENDBRANCH  24  25
ENDBRANCH  18  19
ENDBRANCH   1  18
TORSDOF 9
