REMARK SMILES O=C1C(NCCCNc2c3c(nc4cc(Cl)ccc24)CCCC3)=CC(=O)c2c(O)cccc21
REMARK SMILES IDX 5 1 4 2 3 4 2 5 33 6 24 7 32 8 27 9 25 10 31 11 28 12 30 13
REMARK SMILES IDX 1 14 26 15 29 16 6 18 7 19 8 20 9 22 10 23 19 24 11 25 23 26
REMARK SMILES IDX 18 27 13 28 12 29 20 30 22 31 17 32 14 33 21 34 15 35 16 36
REMARK H PARENT 4 3 29 17 8 21
ROOT
ATOM      1  C   UNL     1       1.211  -1.807   2.167  1.00  0.00     0.115 C 
ENDROOT
BRANCH   1   2
ATOM      2  N   UNL     1       1.846  -0.586   1.717  1.00  0.00    -0.382 N 
ATOM      3  H   UNL     1       1.585   0.272   2.214  1.00  0.00     0.160 HD
BRANCH   2   4
ATOM      4  C   UNL     1       2.994  -0.412   0.961  1.00  0.00     0.087 C 
ATOM      5  C   UNL     1       3.405   1.027   0.771  1.00  0.00     0.209 C 
ATOM      6  C   UNL     1       4.608   1.322  -0.029  1.00  0.00     0.039 A 
ATOM      7  C   UNL     1       3.735  -1.377   0.406  1.00  0.00     0.082 C 
ATOM      8  C   UNL     1       4.995   2.656  -0.219  1.00  0.00     0.013 A 
ATOM      9  C   UNL     1       5.355   0.290  -0.593  1.00  0.00     0.075 A 
ATOM     10  C   UNL     1       4.942  -1.106  -0.391  1.00  0.00     0.192 C 
ATOM     11  C   UNL     1       6.130   2.954  -0.974  1.00  0.00     0.005 A 
ATOM     12  C   UNL     1       6.494   0.598  -1.349  1.00  0.00     0.127 A 
ATOM     13  C   UNL     1       6.880   1.923  -1.539  1.00  0.00     0.047 A 
ATOM     14  O   UNL     1       2.740   1.928   1.278  1.00  0.00    -0.287 OA
ATOM     15  O   UNL     1       5.589  -2.028  -0.877  1.00  0.00    -0.289 OA
BRANCH  12  16
ATOM     16  O   UNL     1       7.283  -0.354  -1.937  1.00  0.00    -0.507 OA
ATOM     17  H   UNL     1       6.911  -1.241  -1.732  1.00  0.00     0.293 HD
ENDBRANCH  12  16
ENDBRANCH   2   4
ENDBRANCH   1   2
BRANCH   1  18
ATOM     18  C   UNL     1       0.412  -2.492   1.059  1.00  0.00     0.042 C 
BRANCH  18  19
ATOM     19  C   UNL     1      -0.526  -1.576   0.271  1.00  0.00     0.114 C 
BRANCH  19  20
ATOM     20  N   UNL     1      -1.496  -0.921   1.161  1.00  0.00    -0.384 N 
ATOM     21  H   UNL     1      -1.006  -0.281   1.785  1.00  0.00     0.160 HD
BRANCH  20  22
ATOM     22  C   UNL     1      -2.447  -0.165   0.411  1.00  0.00     0.049 A 
ATOM     23  C   UNL     1      -3.637  -0.788   0.013  1.00  0.00    -0.003 A 
ATOM     24  C   UNL     1      -2.177   1.166  -0.023  1.00  0.00     0.024 A 
ATOM     25  C   UNL     1      -4.517  -0.068  -0.790  1.00  0.00     0.046 A 
ATOM     26  C   UNL     1      -4.013  -2.201   0.371  1.00  0.00     0.039 C 
ATOM     27  C   UNL     1      -0.998   1.889   0.291  1.00  0.00     0.014 A 
ATOM     28  C   UNL     1      -3.154   1.797  -0.828  1.00  0.00     0.074 A 
ATOM     29  N   UNL     1      -4.291   1.197  -1.204  1.00  0.00    -0.252 NA
ATOM     30  C   UNL     1      -5.779  -0.745  -1.257  1.00  0.00     0.056 C 
ATOM     31  C   UNL     1      -5.491  -2.310   0.762  1.00  0.00     0.005 C 
ATOM     32  C   UNL     1      -0.800   3.191  -0.167  1.00  0.00     0.021 A 
ATOM     33  C   UNL     1      -2.939   3.094  -1.270  1.00  0.00     0.049 A 
ATOM     34  C   UNL     1      -6.452  -1.481  -0.101  1.00  0.00     0.007 C 
ATOM     35  C   UNL     1      -1.777   3.789  -0.946  1.00  0.00     0.043 A 
ATOM     36  Cl  UNL     1      -1.548   5.394  -1.521  1.00  0.00    -0.084 Cl
ENDBRANCH  20  22
ENDBRANCH  19  20
ENDBRANCH  18  19
ENDBRANCH   1  18
TORSDOF 7
