REMARK SMILES COc1cc2onc(CC[C@H]3CC[N@H+](Cc4ccccc4)CC3)c2cc1C
REMARK SMILES IDX 10 1 11 2 13 3 14 4 12 5 22 6 23 7 15 9 16 10 17 11 21 12
REMARK SMILES IDX 18 13 20 14 19 15 9 16 8 17 7 18 24 19 6 20 25 21 5 22 26 23
REMARK SMILES IDX 4 24 3 25 27 26 2 27 1 28
REMARK H PARENT 14 8
ROOT
ATOM      1  C   UNL     1       0.643   0.263   0.385  1.00  0.00     0.010 C 
ENDROOT
BRANCH   1   2
ATOM      2  C   UNL     1      -0.683   1.012   0.145  1.00  0.00     0.000 C 
ATOM      3  C   UNL     1      -2.561   2.249   1.336  1.00  0.00     0.262 C 
ATOM      4  N   UNL     1      -3.550   1.296   0.710  1.00  0.00    -0.331 N 
ATOM      5  C   UNL     1      -1.213   1.555   1.482  1.00  0.00     0.065 C 
ATOM      6  C   UNL     1      -3.091   0.818  -0.641  1.00  0.00     0.262 C 
ATOM      7  C   UNL     1      -1.745   0.117  -0.511  1.00  0.00     0.065 C 
ATOM      8  H   UNL     1      -3.613   0.478   1.330  1.00  0.00     0.348 HD
BRANCH   4   9
ATOM      9  C   UNL     1      -4.952   1.871   0.644  1.00  0.00     0.299 C 
BRANCH   9  10
ATOM     10  C   UNL     1      -5.589   2.029   1.998  1.00  0.00     0.006 A 
ATOM     11  C   UNL     1      -5.758   3.302   2.562  1.00  0.00     0.009 A 
ATOM     12  C   UNL     1      -6.006   0.902   2.724  1.00  0.00     0.009 A 
ATOM     13  C   UNL     1      -6.326   3.443   3.829  1.00  0.00     0.001 A 
ATOM     14  C   UNL     1      -6.573   1.048   3.991  1.00  0.00     0.001 A 
ATOM     15  C   UNL     1      -6.730   2.317   4.543  1.00  0.00     0.000 A 
ENDBRANCH   9  10
ENDBRANCH   4   9
ENDBRANCH   1   2
BRANCH   1  16
ATOM     16  C   UNL     1       1.370  -0.148  -0.902  1.00  0.00     0.061 C 
BRANCH  16  17
ATOM     17  C   UNL     1       2.607  -0.925  -0.613  1.00  0.00     0.091 A 
ATOM     18  N   UNL     1       2.512  -2.228  -0.310  1.00  0.00    -0.084 NA
ATOM     19  C   UNL     1       3.954  -0.481  -0.595  1.00  0.00     0.045 A 
ATOM     20  O   UNL     1       3.812  -2.656  -0.093  1.00  0.00    -0.356 OA
ATOM     21  C   UNL     1       4.651   0.717  -0.814  1.00  0.00     0.021 A 
ATOM     22  C   UNL     1       4.670  -1.615  -0.262  1.00  0.00     0.170 A 
ATOM     23  C   UNL     1       6.057   0.716  -0.684  1.00  0.00    -0.008 A 
ATOM     24  C   UNL     1       6.056  -1.666  -0.124  1.00  0.00     0.097 A 
ATOM     25  C   UNL     1       6.748  -0.468  -0.343  1.00  0.00     0.125 A 
ATOM     26  C   UNL     1       6.815   1.998  -0.920  1.00  0.00     0.048 C 
BRANCH  25  27
ATOM     27  O   UNL     1       8.112  -0.338  -0.248  1.00  0.00    -0.496 OA
ATOM     28  C   UNL     1       8.864  -1.506   0.060  1.00  0.00     0.278 C 
ENDBRANCH  25  27
ENDBRANCH  16  17
ENDBRANCH   1  16
TORSDOF 6
