REMARK SMILES O=C1C(NCCNc2c3c(nc4cc(Cl)ccc24)CCCC3)=CC(=O)c2c(O)cccc21
REMARK SMILES IDX 5 1 4 2 3 4 2 5 32 6 23 7 31 8 26 9 24 10 30 11 27 12 29 13
REMARK SMILES IDX 1 14 25 15 28 16 6 18 7 19 8 21 9 22 18 23 10 24 22 25 17 26
REMARK SMILES IDX 12 27 11 28 19 29 21 30 16 31 13 32 20 33 14 34 15 35
REMARK H PARENT 4 3 28 17 7 20
ROOT
ATOM      1  C   UNL     1       0.791  -2.536  -0.151  1.00  0.00     0.134 C 
ENDROOT
BRANCH   1   2
ATOM      2  N   UNL     1       1.553  -1.836  -1.191  1.00  0.00    -0.380 N 
ATOM      3  H   UNL     1       1.373  -2.183  -2.130  1.00  0.00     0.160 HD
BRANCH   2   4
ATOM      4  C   UNL     1       2.687  -1.044  -1.041  1.00  0.00     0.087 C 
ATOM      5  C   UNL     1       3.131  -0.577   0.329  1.00  0.00     0.209 C 
ATOM      6  C   UNL     1       4.343   0.265   0.433  1.00  0.00     0.039 A 
ATOM      7  C   UNL     1       3.405  -0.658  -2.105  1.00  0.00     0.082 C 
ATOM      8  C   UNL     1       4.769   0.699   1.698  1.00  0.00     0.013 A 
ATOM      9  C   UNL     1       5.059   0.634  -0.702  1.00  0.00     0.075 A 
ATOM     10  C   UNL     1       4.608   0.183  -2.023  1.00  0.00     0.192 C 
ATOM     11  C   UNL     1       5.908   1.497   1.821  1.00  0.00     0.005 A 
ATOM     12  C   UNL     1       6.201   1.436  -0.572  1.00  0.00     0.127 A 
ATOM     13  C   UNL     1       6.624   1.865   0.684  1.00  0.00     0.047 A 
ATOM     14  O   UNL     1       2.517  -0.865   1.352  1.00  0.00    -0.287 OA
ATOM     15  O   UNL     1       5.220   0.501  -3.038  1.00  0.00    -0.289 OA
BRANCH  12  16
ATOM     16  O   UNL     1       6.958   1.842  -1.638  1.00  0.00    -0.507 OA
ATOM     17  H   UNL     1       6.561   1.480  -2.462  1.00  0.00     0.293 HD
ENDBRANCH  12  16
ENDBRANCH   2   4
ENDBRANCH   1   2
BRANCH   1  18
ATOM     18  C   UNL     1      -0.356  -1.665   0.396  1.00  0.00     0.134 C 
BRANCH  18  19
ATOM     19  N   UNL     1      -1.193  -1.189  -0.730  1.00  0.00    -0.382 N 
ATOM     20  H   UNL     1      -0.568  -0.743  -1.401  1.00  0.00     0.160 HD
BRANCH  19  21
ATOM     21  C   UNL     1      -2.176  -0.252  -0.294  1.00  0.00     0.049 A 
ATOM     22  C   UNL     1      -3.454  -0.734   0.051  1.00  0.00    -0.003 A 
ATOM     23  C   UNL     1      -1.870   1.128  -0.124  1.00  0.00     0.024 A 
ATOM     24  C   UNL     1      -4.379   0.181   0.555  1.00  0.00     0.046 A 
ATOM     25  C   UNL     1      -3.800  -2.197  -0.085  1.00  0.00     0.039 C 
ATOM     26  C   UNL     1      -0.613   1.716  -0.421  1.00  0.00     0.014 A 
ATOM     27  C   UNL     1      -2.894   1.958   0.379  1.00  0.00     0.074 A 
ATOM     28  N   UNL     1      -4.109   1.499   0.704  1.00  0.00    -0.252 NA
ATOM     29  C   UNL     1      -5.784  -0.230   0.914  1.00  0.00     0.056 C 
ATOM     30  C   UNL     1      -5.300  -2.486  -0.030  1.00  0.00     0.005 C 
ATOM     31  C   UNL     1      -0.387   3.078  -0.232  1.00  0.00     0.021 A 
ATOM     32  C   UNL     1      -2.652   3.311   0.558  1.00  0.00     0.049 A 
ATOM     33  C   UNL     1      -5.942  -1.731   1.125  1.00  0.00     0.007 C 
ATOM     34  C   UNL     1      -1.414   3.871   0.257  1.00  0.00     0.043 A 
ATOM     35  Cl  UNL     1      -1.152   5.555   0.497  1.00  0.00    -0.084 Cl
ENDBRANCH  19  21
ENDBRANCH  18  19
ENDBRANCH   1  18
TORSDOF 6
