REMARK SMILES Cc1cc(O)nc2c1C(=O)C(NCCCCN=c1c3c([nH]c4cc(Cl)ccc14)CCCC3)=CC2=O
REMARK SMILES IDX 14 1 15 2 16 3 17 4 18 5 21 6 20 7 22 8 19 9 29 10 23 11
REMARK SMILES IDX 28 12 32 13 30 14 24 15 27 16 31 17 26 18 25 20 13 21 12 22
REMARK SMILES IDX 11 24 33 25 9 26 34 27 8 28 7 29 2 30 6 31 3 32 4 33 10 34
REMARK SMILES IDX 35 35 1 36 5 37
REMARK H PARENT 21 19 12 23 5 38
ROOT
ATOM      1  C   UNL     1       0.474  -0.859  -0.601  1.00  0.00     0.023 C 
ENDROOT
BRANCH   1   2
ATOM      2  C   UNL     1      -0.145   0.495  -0.232  1.00  0.00     0.025 C 
BRANCH   2   3
ATOM      3  C   UNL     1      -1.464   0.344   0.530  1.00  0.00     0.143 C 
BRANCH   3   4
ATOM      4  N   UNL     1      -2.447  -0.241  -0.357  1.00  0.00    -0.284 NA
BRANCH   4   5
ATOM      5  C   UNL     1      -3.712  -0.298  -0.137  1.00  0.00     0.072 A 
ATOM      6  N   UNL     1      -6.527   0.048  -0.199  1.00  0.00    -0.358 N 
ATOM      7  C   UNL     1      -5.838   0.268   0.977  1.00  0.00     0.021 A 
ATOM      8  C   UNL     1      -5.926  -0.630  -1.266  1.00  0.00     0.049 A 
ATOM      9  C   UNL     1      -4.500   0.105   1.099  1.00  0.00    -0.003 A 
ATOM     10  C   UNL     1      -6.705   0.681   2.152  1.00  0.00     0.054 C 
ATOM     11  C   UNL     1      -6.689  -1.047  -2.363  1.00  0.00     0.047 A 
ATOM     12  C   UNL     1      -4.539  -0.826  -1.279  1.00  0.00     0.024 A 
ATOM     13  C   UNL     1      -3.803   0.225   2.429  1.00  0.00     0.039 C 
ATOM     14  C   UNL     1      -5.927   1.145   3.380  1.00  0.00     0.007 C 
ATOM     15  C   UNL     1      -6.075  -1.689  -3.439  1.00  0.00     0.043 A 
ATOM     16  C   UNL     1      -3.929  -1.468  -2.368  1.00  0.00     0.014 A 
ATOM     17  C   UNL     1      -4.747   0.222   3.633  1.00  0.00     0.005 C 
ATOM     18  C   UNL     1      -4.700  -1.906  -3.445  1.00  0.00     0.021 A 
ATOM     19  H   UNL     1      -7.538  -0.004  -0.132  1.00  0.00     0.166 HD
ATOM     20  Cl  UNL     1      -7.027  -2.213  -4.774  1.00  0.00    -0.084 Cl
ENDBRANCH   4   5
ENDBRANCH   3   4
ENDBRANCH   2   3
ENDBRANCH   1   2
BRANCH   1  21
ATOM     21  C   UNL     1       1.786  -0.708  -1.370  1.00  0.00     0.113 C 
BRANCH  21  22
ATOM     22  N   UNL     1       2.822  -0.157  -0.511  1.00  0.00    -0.382 N 
ATOM     23  H   UNL     1       2.823  -0.529   0.446  1.00  0.00     0.160 HD
BRANCH  22  24
ATOM     24  C   UNL     1       4.116   0.169  -0.901  1.00  0.00     0.087 C 
ATOM     25  C   UNL     1       4.501   0.487  -2.140  1.00  0.00     0.084 C 
ATOM     26  C   UNL     1       5.139   0.146   0.206  1.00  0.00     0.211 C 
ATOM     27  C   UNL     1       5.887   0.832  -2.487  1.00  0.00     0.207 C 
ATOM     28  C   UNL     1       6.529   0.565  -0.085  1.00  0.00     0.057 A 
ATOM     29  C   UNL     1       6.883   0.887  -1.391  1.00  0.00     0.126 A 
ATOM     30  C   UNL     1       7.531   0.646   0.906  1.00  0.00    -0.032 A 
ATOM     31  N   UNL     1       8.133   1.269  -1.774  1.00  0.00    -0.209 NA
ATOM     32  C   UNL     1       8.821   1.039   0.520  1.00  0.00     0.072 A 
ATOM     33  C   UNL     1       9.049   1.329  -0.807  1.00  0.00     0.211 A 
ATOM     34  O   UNL     1       4.795  -0.233   1.323  1.00  0.00    -0.287 OA
ATOM     35  O   UNL     1       6.171   1.068  -3.656  1.00  0.00    -0.287 OA
ATOM     36  C   UNL     1       7.289   0.332   2.357  1.00  0.00     0.045 C 
BRANCH  33  37
ATOM     37  O   UNL     1      10.277   1.712  -1.228  1.00  0.00    -0.493 OA
ATOM     38  H   UNL     1      10.108   1.837  -2.181  1.00  0.00     0.295 HD
ENDBRANCH  33  37
ENDBRANCH  22  24
ENDBRANCH  21  22
ENDBRANCH   1  21
TORSDOF 8
