REMARK SMILES O=C1Cc2cc3c(CC[C@H]4CC[N@H+](Cc5ccccc5)CC4)noc3cc2N1
REMARK SMILES IDX 9 1 10 2 12 3 13 4 11 5 21 6 22 7 14 9 15 10 16 11 20 12
REMARK SMILES IDX 17 13 19 14 18 15 8 16 7 17 6 18 23 19 5 20 25 21 24 22 4 23
REMARK SMILES IDX 26 24 3 25 27 26 2 27 28 28 1 29
REMARK H PARENT 13 8 28 30
ROOT
ATOM      1  C   UNL     1       0.950  -1.734   1.684  1.00  0.00     0.010 C 
ENDROOT
BRANCH   1   2
ATOM      2  C   UNL     1      -0.376  -1.202   1.097  1.00  0.00     0.000 C 
ATOM      3  C   UNL     1      -2.447  -1.839  -0.217  1.00  0.00     0.262 C 
ATOM      4  N   UNL     1      -3.290  -1.239   0.879  1.00  0.00    -0.331 N 
ATOM      5  C   UNL     1      -1.131  -2.332   0.375  1.00  0.00     0.065 C 
ATOM      6  C   UNL     1      -2.596  -0.077   1.544  1.00  0.00     0.262 C 
ATOM      7  C   UNL     1      -1.287  -0.563   2.156  1.00  0.00     0.065 C 
ATOM      8  H   UNL     1      -3.398  -1.964   1.598  1.00  0.00     0.348 HD
BRANCH   4   9
ATOM      9  C   UNL     1      -4.710  -0.925   0.446  1.00  0.00     0.299 C 
BRANCH   9  10
ATOM     10  C   UNL     1      -4.855   0.101  -0.645  1.00  0.00     0.006 A 
ATOM     11  C   UNL     1      -4.960   1.466  -0.335  1.00  0.00     0.009 A 
ATOM     12  C   UNL     1      -4.886  -0.289  -1.993  1.00  0.00     0.009 A 
ATOM     13  C   UNL     1      -5.076   2.417  -1.350  1.00  0.00     0.001 A 
ATOM     14  C   UNL     1      -5.003   0.665  -3.006  1.00  0.00     0.001 A 
ATOM     15  C   UNL     1      -5.095   2.017  -2.683  1.00  0.00     0.000 A 
ENDBRANCH   9  10
ENDBRANCH   4   9
ENDBRANCH   1   2
BRANCH   1  16
ATOM     16  C   UNL     1       1.826  -0.696   2.401  1.00  0.00     0.061 C 
BRANCH  16  17
ATOM     17  C   UNL     1       2.245   0.437   1.528  1.00  0.00     0.091 A 
ATOM     18  C   UNL     1       3.433   0.572   0.762  1.00  0.00     0.045 A 
ATOM     19  N   UNL     1       1.444   1.504   1.391  1.00  0.00    -0.084 NA
ATOM     20  C   UNL     1       4.590  -0.196   0.519  1.00  0.00     0.020 A 
ATOM     21  C   UNL     1       3.290   1.813   0.151  1.00  0.00     0.169 A 
ATOM     22  O   UNL     1       2.104   2.363   0.529  1.00  0.00    -0.356 OA
ATOM     23  C   UNL     1       5.529   0.364  -0.340  1.00  0.00    -0.014 A 
ATOM     24  C   UNL     1       4.217   2.398  -0.713  1.00  0.00     0.077 A 
ATOM     25  C   UNL     1       6.850  -0.196  -0.790  1.00  0.00     0.138 C 
ATOM     26  C   UNL     1       5.336   1.616  -0.926  1.00  0.00     0.048 A 
ATOM     27  C   UNL     1       7.372   0.908  -1.714  1.00  0.00     0.228 C 
ATOM     28  N   UNL     1       6.423   1.923  -1.730  1.00  0.00    -0.325 N 
ATOM     29  O   UNL     1       8.423   0.905  -2.331  1.00  0.00    -0.274 OA
ATOM     30  H   UNL     1       6.546   2.768  -2.269  1.00  0.00     0.169 HD
ENDBRANCH  16  17
ENDBRANCH   1  16
TORSDOF 5
