REMARK SMILES C=CC[n+]1ccc(CC=C(O)[C@@H]2Cc3cc(OC)c(OC)cc3S2)cc1
REMARK SMILES IDX 9 1 10 2 11 3 12 5 13 6 24 7 14 8 23 9 15 10 22 11 16 12
REMARK SMILES IDX 19 13 17 14 18 15 20 16 21 17 8 18 7 19 6 20 25 21 5 22
REMARK SMILES IDX 26 23 4 24 3 25 2 26 1 27
REMARK H PARENT 11 4
ROOT
ATOM      1  C   UNL     1       1.476  -2.092   0.816  1.00  0.00     0.020 C 
ENDROOT
BRANCH   1   2
ATOM      2  C   UNL     1       0.309  -1.563   1.217  1.00  0.00     0.102 C 
BRANCH   2   3
ATOM      3  O   UNL     1       0.248  -0.870   2.416  1.00  0.00    -0.511 OA
ATOM      4  H   UNL     1      -0.687  -0.894   2.711  1.00  0.00     0.293 HD
ENDBRANCH   2   3
BRANCH   2   5
ATOM      5  C   UNL     1      -0.978  -1.696   0.429  1.00  0.00     0.121 C 
ATOM      6  C   UNL     1      -1.396  -0.388  -0.272  1.00  0.00     0.059 C 
ATOM      7  S   UNL     1      -2.361  -2.149   1.539  1.00  0.00    -0.114 SA
ATOM      8  C   UNL     1      -2.897  -0.384  -0.343  1.00  0.00    -0.029 A 
ATOM      9  C   UNL     1      -3.523  -1.228   0.573  1.00  0.00     0.015 A 
ATOM     10  C   UNL     1      -3.655   0.428  -1.181  1.00  0.00     0.055 A 
ATOM     11  C   UNL     1      -4.904  -1.292   0.671  1.00  0.00     0.065 A 
ATOM     12  C   UNL     1      -5.053   0.373  -1.105  1.00  0.00     0.161 A 
ATOM     13  C   UNL     1      -5.681  -0.491  -0.173  1.00  0.00     0.161 A 
BRANCH  12  14
ATOM     14  O   UNL     1      -5.898   1.126  -1.884  1.00  0.00    -0.493 OA
ATOM     15  C   UNL     1      -5.323   1.946  -2.889  1.00  0.00     0.278 C 
ENDBRANCH  12  14
BRANCH  13  16
ATOM     16  O   UNL     1      -7.054  -0.470  -0.170  1.00  0.00    -0.493 OA
ATOM     17  C   UNL     1      -7.729  -1.339   0.729  1.00  0.00     0.278 C 
ENDBRANCH  13  16
ENDBRANCH   2   5
ENDBRANCH   1   2
BRANCH   1  18
ATOM     18  C   UNL     1       2.749  -2.057   1.612  1.00  0.00     0.067 C 
BRANCH  18  19
ATOM     19  C   UNL     1       3.675  -0.948   1.168  1.00  0.00    -0.032 A 
ATOM     20  C   UNL     1       3.493   0.351   1.647  1.00  0.00     0.075 A 
ATOM     21  C   UNL     1       4.707  -1.184   0.261  1.00  0.00     0.075 A 
ATOM     22  C   UNL     1       4.340   1.368   1.228  1.00  0.00     0.308 A 
ATOM     23  C   UNL     1       5.533  -0.136  -0.129  1.00  0.00     0.308 A 
ATOM     24  N   UNL     1       5.343   1.113   0.357  1.00  0.00    -0.201 N 
BRANCH  24  25
ATOM     25  C   UNL     1       6.246   2.206  -0.069  1.00  0.00     0.385 C 
BRANCH  25  26
ATOM     26  C   UNL     1       5.809   2.728  -1.404  1.00  0.00     0.037 C 
ATOM     27  C   UNL     1       6.549   2.685  -2.520  1.00  0.00     0.011 C 
ENDBRANCH  25  26
ENDBRANCH  24  25
ENDBRANCH  18  19
ENDBRANCH   1  18
TORSDOF 9
