REMARK SMILES COc1cc2c(cc1OC)C(O)=C(C[C@H]1CC[N@@H+](Cc3ccccc3)CC1)C2
REMARK SMILES IDX 14 1 13 2 11 3 6 4 28 5 7 6 5 7 8 8 4 9 3 10 12 11 9 13
REMARK SMILES IDX 10 14 2 15 1 16 15 17 16 18 27 19 17 20 26 21 18 22 19 24
REMARK SMILES IDX 20 25 21 26 25 27 22 28 24 29 23 30
REMARK H PARENT 12 12 18 23
ROOT
ATOM      1  C   UNL     1       0.091  -0.804   1.649  1.00  0.00     0.039 C 
ENDROOT
BRANCH   1   2
ATOM      2  C   UNL     1       0.369  -2.132   1.027  1.00  0.00    -0.023 C 
ATOM      3  C   UNL     1       1.227  -3.070   1.457  1.00  0.00     0.122 C 
ATOM      4  C   UNL     1       1.134  -4.249   0.611  1.00  0.00     0.024 A 
ATOM      5  C   UNL     1      -0.469  -2.652  -0.129  1.00  0.00     0.071 C 
ATOM      6  C   UNL     1       1.858  -5.433   0.604  1.00  0.00     0.062 A 
ATOM      7  C   UNL     1       0.140  -4.005  -0.344  1.00  0.00    -0.029 A 
ATOM      8  C   UNL     1       1.570  -6.397  -0.376  1.00  0.00     0.161 A 
ATOM      9  C   UNL     1      -0.160  -4.938  -1.317  1.00  0.00     0.055 A 
ATOM     10  C   UNL     1       0.548  -6.147  -1.325  1.00  0.00     0.161 A 
BRANCH   3  11
ATOM     11  O   UNL     1       2.072  -2.978   2.516  1.00  0.00    -0.507 OA
ATOM     12  H   UNL     1       2.212  -3.880   2.859  1.00  0.00     0.293 HD
ENDBRANCH   3  11
BRANCH   8  13
ATOM     13  O   UNL     1       2.271  -7.567  -0.512  1.00  0.00    -0.493 OA
ATOM     14  C   UNL     1       3.129  -7.960   0.551  1.00  0.00     0.278 C 
ENDBRANCH   8  13
BRANCH  10  15
ATOM     15  O   UNL     1       0.195  -6.985  -2.353  1.00  0.00    -0.493 OA
ATOM     16  C   UNL     1       0.053  -8.356  -1.989  1.00  0.00     0.278 C 
ENDBRANCH  10  15
ENDBRANCH   1   2
BRANCH   1  17
ATOM     17  C   UNL     1       0.951   0.406   1.214  1.00  0.00     0.004 C 
ATOM     18  C   UNL     1       0.942   0.692  -0.293  1.00  0.00     0.065 C 
ATOM     19  C   UNL     1       2.379   0.394   1.782  1.00  0.00     0.065 C 
ATOM     20  C   UNL     1       2.000  -0.057  -1.092  1.00  0.00     0.262 C 
ATOM     21  C   UNL     1       3.413  -0.334   0.935  1.00  0.00     0.262 C 
ATOM     22  N   UNL     1       3.356   0.170  -0.486  1.00  0.00    -0.331 N 
ATOM     23  H   UNL     1       3.534   1.181  -0.458  1.00  0.00     0.348 HD
BRANCH  22  24
ATOM     24  C   UNL     1       4.447  -0.428  -1.352  1.00  0.00     0.299 C 
BRANCH  24  25
ATOM     25  C   UNL     1       5.822   0.064  -0.991  1.00  0.00     0.006 A 
ATOM     26  C   UNL     1       6.729  -0.777  -0.328  1.00  0.00     0.009 A 
ATOM     27  C   UNL     1       6.212   1.377  -1.297  1.00  0.00     0.009 A 
ATOM     28  C   UNL     1       7.995  -0.310   0.028  1.00  0.00     0.001 A 
ATOM     29  C   UNL     1       7.479   1.839  -0.940  1.00  0.00     0.001 A 
ATOM     30  C   UNL     1       8.368   0.997  -0.276  1.00  0.00     0.000 A 
ENDBRANCH  24  25
ENDBRANCH  22  24
ENDBRANCH   1  17
TORSDOF 7
