REMARK SMILES C=CC[n+]1ccc(CCC(O)=C2Cc3cc(OC)c(OC)cc3S2)cc1
REMARK SMILES IDX 9 1 10 2 11 3 12 5 13 6 24 7 14 8 23 9 15 10 22 11 16 12
REMARK SMILES IDX 19 13 17 14 18 15 20 16 21 17 8 18 7 19 6 20 25 21 5 22
REMARK SMILES IDX 26 23 4 24 3 25 2 26 1 27
REMARK H PARENT 11 4
ROOT
ATOM      1  C   UNL     1       0.930   1.049   2.276  1.00  0.00     0.080 C 
ENDROOT
BRANCH   1   2
ATOM      2  C   UNL     1       0.457   1.233   0.854  1.00  0.00     0.103 C 
BRANCH   2   3
ATOM      3  O   UNL     1       1.432   1.727  -0.002  1.00  0.00    -0.511 OA
ATOM      4  H   UNL     1       0.981   1.922  -0.850  1.00  0.00     0.293 HD
ENDBRANCH   2   3
BRANCH   2   5
ATOM      5  C   UNL     1      -0.797   0.992   0.425  1.00  0.00     0.032 C 
ATOM      6  C   UNL     1      -1.940   0.469   1.274  1.00  0.00     0.083 C 
ATOM      7  S   UNL     1      -1.244   1.229  -1.262  1.00  0.00    -0.090 SA
ATOM      8  C   UNL     1      -3.109   0.246   0.356  1.00  0.00    -0.025 A 
ATOM      9  C   UNL     1      -2.882   0.604  -0.973  1.00  0.00     0.020 A 
ATOM     10  C   UNL     1      -4.344  -0.265   0.748  1.00  0.00     0.055 A 
ATOM     11  C   UNL     1      -3.871   0.459  -1.936  1.00  0.00     0.066 A 
ATOM     12  C   UNL     1      -5.355  -0.419  -0.209  1.00  0.00     0.161 A 
ATOM     13  C   UNL     1      -5.117  -0.055  -1.558  1.00  0.00     0.161 A 
BRANCH  12  14
ATOM     14  O   UNL     1      -6.605  -0.918   0.062  1.00  0.00    -0.493 OA
ATOM     15  C   UNL     1      -6.924  -1.216   1.413  1.00  0.00     0.278 C 
ENDBRANCH  12  14
BRANCH  13  16
ATOM     16  O   UNL     1      -6.167  -0.247  -2.423  1.00  0.00    -0.493 OA
ATOM     17  C   UNL     1      -6.007   0.184  -3.767  1.00  0.00     0.278 C 
ENDBRANCH  13  16
ENDBRANCH   2   5
ENDBRANCH   1   2
BRANCH   1  18
ATOM     18  C   UNL     1       1.674  -0.275   2.506  1.00  0.00     0.044 C 
BRANCH  18  19
ATOM     19  C   UNL     1       2.983  -0.383   1.758  1.00  0.00    -0.036 A 
ATOM     20  C   UNL     1       3.086  -1.178   0.617  1.00  0.00     0.074 A 
ATOM     21  C   UNL     1       4.099   0.350   2.163  1.00  0.00     0.074 A 
ATOM     22  C   UNL     1       4.281  -1.216  -0.091  1.00  0.00     0.308 A 
ATOM     23  C   UNL     1       5.274   0.282   1.423  1.00  0.00     0.308 A 
ATOM     24  N   UNL     1       5.350  -0.493   0.318  1.00  0.00    -0.201 N 
BRANCH  24  25
ATOM     25  C   UNL     1       6.607  -0.550  -0.461  1.00  0.00     0.385 C 
BRANCH  25  26
ATOM     26  C   UNL     1       6.506   0.357  -1.649  1.00  0.00     0.037 C 
ATOM     27  C   UNL     1       6.590  -0.044  -2.925  1.00  0.00     0.011 C 
ENDBRANCH  25  26
ENDBRANCH  24  25
ENDBRANCH  18  19
ENDBRANCH   1  18
TORSDOF 9
