REMARK SMILES C[n+]1ccc2c3ccccc3n(CCc3ccccc3)c2c1
REMARK SMILES IDX 13 1 12 2 2 3 3 4 22 5 4 6 21 7 5 8 6 9 11 10 7 11 10 12
REMARK SMILES IDX 8 13 9 14 1 15 14 16 15 17 16 18 20 19 17 20 19 21 18 22
REMARK H PARENT
ROOT
ATOM      1  C   UNL     1       0.698   0.213  -0.738  1.00  0.00     0.128 C 
ENDROOT
BRANCH   1   2
ATOM      2  N   UNL     1      -0.666   0.493  -0.302  1.00  0.00    -0.335 N 
ATOM      3  N   UNL     1      -2.634  -2.524   0.497  1.00  0.00    -0.206 N 
ATOM      4  C   UNL     1      -3.778  -1.899   0.840  1.00  0.00     0.308 A 
ATOM      5  C   UNL     1      -1.533  -1.848   0.112  1.00  0.00     0.334 A 
ATOM      6  C   UNL     1      -3.887  -0.516   0.800  1.00  0.00     0.081 A 
ATOM      7  C   UNL     1      -1.604  -0.460   0.055  1.00  0.00     0.114 A 
ATOM      8  C   UNL     1      -2.768   0.225   0.394  1.00  0.00     0.020 A 
ATOM      9  C   UNL     1      -2.518   1.621   0.236  1.00  0.00     0.008 A 
ATOM     10  C   UNL     1      -1.200   1.764  -0.201  1.00  0.00     0.049 A 
ATOM     11  C   UNL     1      -3.302   2.779   0.427  1.00  0.00     0.011 A 
ATOM     12  C   UNL     1      -0.635   3.026  -0.451  1.00  0.00     0.027 A 
ATOM     13  C   UNL     1      -2.747   4.038   0.179  1.00  0.00     0.001 A 
ATOM     14  C   UNL     1      -1.432   4.157  -0.254  1.00  0.00     0.002 A 
ATOM     15  C   UNL     1      -2.584  -3.997   0.569  1.00  0.00     0.439 C 
ENDBRANCH   1   2
BRANCH   1  16
ATOM     16  C   UNL     1       1.699   0.315   0.413  1.00  0.00     0.057 C 
BRANCH  16  17
ATOM     17  C   UNL     1       3.076  -0.117  -0.021  1.00  0.00    -0.046 A 
ATOM     18  C   UNL     1       3.581  -1.371   0.349  1.00  0.00     0.004 A 
ATOM     19  C   UNL     1       3.865   0.726  -0.817  1.00  0.00     0.004 A 
ATOM     20  C   UNL     1       4.849  -1.774  -0.072  1.00  0.00     0.000 A 
ATOM     21  C   UNL     1       5.132   0.319  -1.237  1.00  0.00     0.000 A 
ATOM     22  C   UNL     1       5.622  -0.931  -0.866  1.00  0.00     0.000 A 
ENDBRANCH  16  17
ENDBRANCH   1  16
TORSDOF 3
