REMARK SMILES COc1cc2c(cc1OC)S[C@@H](C(O)=CCc1cc[n+](Cc3ccsc3)cc1)C2
REMARK SMILES IDX 15 1 13 2 14 3 12 5 29 6 11 7 5 8 6 9 4 10 7 11 3 12 8 13
REMARK SMILES IDX 2 14 1 15 9 16 10 17 16 18 17 19 18 20 28 21 19 22 27 23
REMARK SMILES IDX 20 24 21 25 22 26 23 27 26 28 24 29 25 30
REMARK H PARENT 14 4
ROOT
ATOM      1  C   UNL     1       0.456  -0.755  -2.110  1.00  0.00     0.020 C 
ENDROOT
BRANCH   1   2
ATOM      2  C   UNL     1      -0.656  -0.575  -1.378  1.00  0.00     0.102 C 
BRANCH   2   3
ATOM      3  O   UNL     1      -0.714  -1.105  -0.097  1.00  0.00    -0.511 OA
ATOM      4  H   UNL     1      -1.527  -0.778   0.336  1.00  0.00     0.293 HD
ENDBRANCH   2   3
BRANCH   2   5
ATOM      5  C   UNL     1      -1.858   0.213  -1.882  1.00  0.00     0.121 C 
ATOM      6  C   UNL     1      -3.136  -0.641  -2.017  1.00  0.00     0.059 C 
ATOM      7  S   UNL     1      -2.231   1.571  -0.711  1.00  0.00    -0.114 SA
ATOM      8  C   UNL     1      -4.001  -0.383  -0.815  1.00  0.00    -0.029 A 
ATOM      9  C   UNL     1      -3.674   0.760  -0.089  1.00  0.00     0.015 A 
ATOM     10  C   UNL     1      -5.096  -1.160  -0.446  1.00  0.00     0.055 A 
ATOM     11  C   UNL     1      -4.416   1.152   1.015  1.00  0.00     0.065 A 
ATOM     12  C   UNL     1      -5.855  -0.788   0.671  1.00  0.00     0.161 A 
ATOM     13  C   UNL     1      -5.515   0.377   1.402  1.00  0.00     0.161 A 
BRANCH  12  14
ATOM     14  O   UNL     1      -6.944  -1.486   1.132  1.00  0.00    -0.493 OA
ATOM     15  C   UNL     1      -7.371  -2.618   0.388  1.00  0.00     0.278 C 
ENDBRANCH  12  14
BRANCH  13  16
ATOM     16  O   UNL     1      -6.312   0.659   2.485  1.00  0.00    -0.493 OA
ATOM     17  C   UNL     1      -6.151   1.923   3.112  1.00  0.00     0.278 C 
ENDBRANCH  13  16
ENDBRANCH   2   5
ENDBRANCH   1   2
BRANCH   1  18
ATOM     18  C   UNL     1       1.658  -1.539  -1.667  1.00  0.00     0.067 C 
BRANCH  18  19
ATOM     19  C   UNL     1       2.745  -0.641  -1.122  1.00  0.00    -0.032 A 
ATOM     20  C   UNL     1       3.801  -0.211  -1.923  1.00  0.00     0.075 A 
ATOM     21  C   UNL     1       2.684  -0.190   0.198  1.00  0.00     0.075 A 
ATOM     22  C   UNL     1       4.765   0.640  -1.393  1.00  0.00     0.308 A 
ATOM     23  C   UNL     1       3.667   0.661   0.686  1.00  0.00     0.308 A 
ATOM     24  N   UNL     1       4.686   1.061  -0.108  1.00  0.00    -0.201 N 
BRANCH  24  25
ATOM     25  C   UNL     1       5.724   1.975   0.428  1.00  0.00     0.394 C 
BRANCH  25  26
ATOM     26  C   UNL     1       6.987   1.219   0.699  1.00  0.00     0.027 A 
ATOM     27  C   UNL     1       7.156   0.245   1.743  1.00  0.00     0.022 A 
ATOM     28  C   UNL     1       8.162   1.370  -0.018  1.00  0.00     0.075 A 
ATOM     29  C   UNL     1       8.420  -0.302   1.760  1.00  0.00     0.065 A 
ATOM     30  S   UNL     1       9.415   0.347   0.535  1.00  0.00    -0.152 S 
ENDBRANCH  25  26
ENDBRANCH  24  25
ENDBRANCH  18  19
ENDBRANCH   1  18
TORSDOF 9
