REMARK SMILES CC1=C[C@H]2Cc3nc4cc(Cl)ccc4c(N)c3[C@@H](C1)C2
REMARK SMILES IDX 15 1 17 2 6 3 7 4 8 5 9 6 10 7 11 8 12 9 13 10 14 11 5 12
REMARK SMILES IDX 4 13 3 14 2 15 1 16 19 17 18 18 20 19 16 20
REMARK H PARENT 16 21 16 22
ROOT
ATOM      1  C   UNL     1       0.437  -0.470   0.853  1.00  0.00     0.046 A 
ATOM      2  C   UNL     1      -0.589  -0.642  -0.101  1.00  0.00     0.001 A 
ATOM      3  C   UNL     1      -0.266  -0.433  -1.449  1.00  0.00     0.047 A 
ATOM      4  N   UNL     1       0.969  -0.076  -1.869  1.00  0.00    -0.252 NA
ATOM      5  C   UNL     1       1.919   0.162  -0.960  1.00  0.00     0.074 A 
ATOM      6  C   UNL     1       3.153   0.591  -1.426  1.00  0.00     0.049 A 
ATOM      7  C   UNL     1       4.192   0.893  -0.551  1.00  0.00     0.043 A 
ATOM      8  Cl  UNL     1       5.706   1.428  -1.168  1.00  0.00    -0.084 Cl
ATOM      9  C   UNL     1       4.009   0.774   0.817  1.00  0.00     0.021 A 
ATOM     10  C   UNL     1       2.776   0.337   1.303  1.00  0.00     0.014 A 
ATOM     11  C   UNL     1       1.710   0.008   0.427  1.00  0.00     0.024 A 
ATOM     12  C   UNL     1      -1.276  -0.632  -2.559  1.00  0.00     0.064 C 
ATOM     13  C   UNL     1      -2.725  -0.740  -2.069  1.00  0.00     0.018 C 
ATOM     14  C   UNL     1      -3.280   0.623  -1.710  1.00  0.00    -0.024 C 
ATOM     15  C   UNL     1      -3.336   1.081  -0.446  1.00  0.00    -0.076 C 
ATOM     16  C   UNL     1      -3.903   2.427  -0.105  1.00  0.00     0.039 C 
ATOM     17  C   UNL     1      -2.808   0.265   0.718  1.00  0.00     0.039 C 
ATOM     18  C   UNL     1      -2.020  -0.997   0.291  1.00  0.00     0.028 C 
ATOM     19  C   UNL     1      -2.758  -1.683  -0.866  1.00  0.00     0.017 C 
ENDROOT
BRANCH   1  20
ATOM     20  N   UNL     1       0.144  -0.568   2.236  1.00  0.00    -0.398 N 
ATOM     21  H   UNL     1      -0.630  -1.182   2.459  1.00  0.00     0.156 HD
ATOM     22  H   UNL     1       0.950  -0.803   2.804  1.00  0.00     0.156 HD
ENDBRANCH   1  20
TORSDOF 1
