REMARK SMILES O=C1CNc2cc3onc(CC[C@H]4CC[N@H+](Cc5ccccc5)CC4)c3cc2C1
REMARK SMILES IDX 12 1 13 2 15 3 16 4 14 5 24 6 25 7 17 9 18 10 19 11 23 12
REMARK SMILES IDX 20 13 22 14 21 15 11 16 10 17 9 18 26 19 8 20 27 21 7 22
REMARK SMILES IDX 28 23 6 24 29 25 5 26 2 27 4 28 3 29 1 30
REMARK H PARENT 16 8 4 31
ROOT
ATOM      1  C   UNL     1      -0.504  -1.934   0.474  1.00  0.00     0.010 C 
ENDROOT
BRANCH   1   2
ATOM      2  C   UNL     1       0.757  -1.206  -0.039  1.00  0.00     0.000 C 
ATOM      3  C   UNL     1       3.142  -1.406  -0.845  1.00  0.00     0.262 C 
ATOM      4  N   UNL     1       3.561  -0.388   0.186  1.00  0.00    -0.331 N 
ATOM      5  C   UNL     1       1.916  -2.162  -0.351  1.00  0.00     0.065 C 
ATOM      6  C   UNL     1       2.457   0.594   0.497  1.00  0.00     0.262 C 
ATOM      7  C   UNL     1       1.222  -0.157   0.982  1.00  0.00     0.065 C 
ATOM      8  H   UNL     1       3.771  -0.892   1.056  1.00  0.00     0.348 HD
BRANCH   4   9
ATOM      9  C   UNL     1       4.851   0.297  -0.219  1.00  0.00     0.299 C 
BRANCH   9  10
ATOM     10  C   UNL     1       5.502   1.045   0.912  1.00  0.00     0.006 A 
ATOM     11  C   UNL     1       5.479   2.448   0.947  1.00  0.00     0.009 A 
ATOM     12  C   UNL     1       6.124   0.349   1.961  1.00  0.00     0.009 A 
ATOM     13  C   UNL     1       6.059   3.138   2.012  1.00  0.00     0.001 A 
ATOM     14  C   UNL     1       6.704   1.044   3.023  1.00  0.00     0.001 A 
ATOM     15  C   UNL     1       6.669   2.436   3.049  1.00  0.00     0.000 A 
ENDBRANCH   9  10
ENDBRANCH   4   9
ENDBRANCH   1   2
BRANCH   1  16
ATOM     16  C   UNL     1      -1.091  -2.997  -0.467  1.00  0.00     0.061 C 
BRANCH  16  17
ATOM     17  C   UNL     1      -1.512  -2.461  -1.793  1.00  0.00     0.091 A 
ATOM     18  N   UNL     1      -0.602  -2.294  -2.765  1.00  0.00    -0.084 NA
ATOM     19  C   UNL     1      -2.809  -2.080  -2.222  1.00  0.00     0.045 A 
ATOM     20  O   UNL     1      -1.306  -1.804  -3.855  1.00  0.00    -0.356 OA
ATOM     21  C   UNL     1      -4.107  -2.042  -1.690  1.00  0.00     0.020 A 
ATOM     22  C   UNL     1      -2.620  -1.678  -3.529  1.00  0.00     0.169 A 
ATOM     23  C   UNL     1      -5.167  -1.588  -2.509  1.00  0.00    -0.016 A 
ATOM     24  C   UNL     1      -3.635  -1.223  -4.366  1.00  0.00     0.076 A 
ATOM     25  C   UNL     1      -6.564  -1.615  -1.935  1.00  0.00     0.115 C 
ATOM     26  C   UNL     1      -4.928  -1.146  -3.825  1.00  0.00     0.042 A 
ATOM     27  C   UNL     1      -7.634  -1.135  -2.880  1.00  0.00     0.156 C 
ATOM     28  N   UNL     1      -5.982  -0.768  -4.664  1.00  0.00    -0.378 N 
ATOM     29  C   UNL     1      -7.185  -0.247  -4.017  1.00  0.00     0.189 C 
ATOM     30  O   UNL     1      -8.827  -1.351  -2.653  1.00  0.00    -0.297 OA
ATOM     31  H   UNL     1      -5.686  -0.203  -5.457  1.00  0.00     0.161 HD
ENDBRANCH  16  17
ENDBRANCH   1  16
TORSDOF 5
