REMARK SMILES C=C(O)c1c[n+](Cc2ccccc2C)ccc1CC1=C(O)c2ccc(OC)cc2CC1
REMARK SMILES IDX 4 1 5 2 6 3 15 4 16 5 17 6 2 7 1 8 3 9 18 11 19 12 20 13
REMARK SMILES IDX 31 14 22 15 30 16 23 17 29 18 24 19 28 20 25 21 21 22 26 24
REMARK SMILES IDX 27 25 7 26 8 27 9 28 13 29 10 30 12 31 11 32 14 33
REMARK H PARENT 3 10 21 23
ROOT
ATOM      1  C   UNL     1      -1.187  -0.536   0.282  1.00  0.00     0.083 A 
ATOM      2  C   UNL     1      -2.434   0.024  -0.011  1.00  0.00     0.320 A 
ATOM      3  N   UNL     1      -3.002  -0.122  -1.230  1.00  0.00    -0.200 N 
ATOM      4  C   UNL     1      -2.372  -0.816  -2.201  1.00  0.00     0.308 A 
ATOM      5  C   UNL     1      -1.135  -1.404  -1.961  1.00  0.00     0.075 A 
ATOM      6  C   UNL     1      -0.521  -1.276  -0.707  1.00  0.00    -0.021 A 
ENDROOT
BRANCH   1   7
ATOM      7  C   UNL     1      -0.683  -0.352   1.643  1.00  0.00     0.121 C 
ATOM      8  C   UNL     1       0.201   0.599   1.966  1.00  0.00     0.059 C 
BRANCH   7   9
ATOM      9  O   UNL     1      -1.244  -1.199   2.563  1.00  0.00    -0.508 OA
ATOM     10  H   UNL     1      -0.759  -1.110   3.404  1.00  0.00     0.293 HD
ENDBRANCH   7   9
ENDBRANCH   1   7
BRANCH   6  11
ATOM     11  C   UNL     1       0.808  -1.974  -0.468  1.00  0.00     0.071 C 
BRANCH  11  12
ATOM     12  C   UNL     1       2.028  -1.083  -0.540  1.00  0.00    -0.023 C 
ATOM     13  C   UNL     1       2.923  -1.001   0.465  1.00  0.00     0.122 C 
ATOM     14  C   UNL     1       2.280  -0.330  -1.830  1.00  0.00     0.040 C 
ATOM     15  C   UNL     1       4.164  -0.204   0.323  1.00  0.00     0.020 A 
ATOM     16  C   UNL     1       3.061   0.971  -1.611  1.00  0.00     0.041 C 
ATOM     17  C   UNL     1       5.288  -0.397   1.139  1.00  0.00     0.016 A 
ATOM     18  C   UNL     1       4.234   0.768  -0.691  1.00  0.00    -0.033 A 
ATOM     19  C   UNL     1       6.436   0.394   0.987  1.00  0.00     0.047 A 
ATOM     20  C   UNL     1       5.379   1.569  -0.823  1.00  0.00     0.050 A 
ATOM     21  C   UNL     1       6.482   1.387   0.012  1.00  0.00     0.119 A 
BRANCH  13  22
ATOM     22  O   UNL     1       2.710  -1.665   1.654  1.00  0.00    -0.507 OA
ATOM     23  H   UNL     1       3.270  -1.260   2.337  1.00  0.00     0.293 HD
ENDBRANCH  13  22
BRANCH  21  24
ATOM     24  O   UNL     1       7.529   2.229  -0.234  1.00  0.00    -0.497 OA
ATOM     25  C   UNL     1       8.693   2.063   0.566  1.00  0.00     0.278 C 
ENDBRANCH  21  24
ENDBRANCH  11  12
ENDBRANCH   6  11
BRANCH   3  26
ATOM     26  C   UNL     1      -4.323   0.502  -1.499  1.00  0.00     0.393 C 
BRANCH  26  27
ATOM     27  C   UNL     1      -5.413  -0.126  -0.663  1.00  0.00     0.020 A 
ATOM     28  C   UNL     1      -5.662  -1.507  -0.798  1.00  0.00     0.010 A 
ATOM     29  C   UNL     1      -6.201   0.626   0.238  1.00  0.00    -0.042 A 
ATOM     30  C   UNL     1      -6.652  -2.135  -0.043  1.00  0.00     0.001 A 
ATOM     31  C   UNL     1      -7.192  -0.026   0.990  1.00  0.00     0.004 A 
ATOM     32  C   UNL     1      -7.414  -1.395   0.852  1.00  0.00     0.000 A 
ATOM     33  C   UNL     1      -6.026   2.110   0.425  1.00  0.00     0.045 C 
ENDBRANCH  26  27
ENDBRANCH   3  26
TORSDOF 8
