REMARK SMILES Oc1ccc([C@@H]2C=C(c3c4ccccc4cc4ccccc34)NN2)c(O)c1
REMARK SMILES IDX 5 1 4 2 3 3 2 4 27 5 25 6 6 7 23 8 24 9 8 10 7 11 9 14 10 15
REMARK SMILES IDX 22 16 11 17 15 18 21 19 17 20 12 21 14 22 16 23 20 24 18 25
REMARK SMILES IDX 13 26 19 27 26 28 1 30
REMARK H PARENT 23 12 24 13 26 29 1 31
ROOT
ATOM      1  C   UNL     1       3.056  -0.893   0.883  1.00  0.00     0.017 A 
ATOM      2  C   UNL     1       3.585  -2.128   1.304  1.00  0.00     0.013 A 
ATOM      3  C   UNL     1       4.636  -2.733   0.611  1.00  0.00     0.047 A 
ATOM      4  C   UNL     1       5.164  -2.117  -0.516  1.00  0.00     0.119 A 
ATOM      5  C   UNL     1       4.659  -0.902  -0.963  1.00  0.00     0.092 A 
ATOM      6  C   UNL     1       3.614  -0.301  -0.263  1.00  0.00     0.124 A 
ENDROOT
BRANCH   1   7
ATOM      7  C   UNL     1       1.881  -0.310   1.642  1.00  0.00     0.133 C 
ATOM      8  N   UNL     1       0.543   1.552   1.274  1.00  0.00    -0.320 N 
ATOM      9  N   UNL     1       1.875   1.198   1.624  1.00  0.00    -0.225 NA
ATOM     10  C   UNL     1      -0.133   0.437   0.828  1.00  0.00     0.055 C 
ATOM     11  C   UNL     1       0.562  -0.683   1.040  1.00  0.00     0.026 C 
ATOM     12  H   UNL     1       0.372   2.396   0.720  1.00  0.00     0.181 HD
ATOM     13  H   UNL     1       2.074   1.513   2.578  1.00  0.00     0.148 HD
BRANCH  10  14
ATOM     14  C   UNL     1      -1.450   0.539   0.182  1.00  0.00     0.014 A 
ATOM     15  C   UNL     1      -1.538   0.520  -1.245  1.00  0.00    -0.008 A 
ATOM     16  C   UNL     1      -2.621   0.651   0.994  1.00  0.00    -0.008 A 
ATOM     17  C   UNL     1      -0.421   0.420  -2.113  1.00  0.00     0.009 A 
ATOM     18  C   UNL     1      -2.814   0.612  -1.844  1.00  0.00    -0.017 A 
ATOM     19  C   UNL     1      -2.607   0.678   2.412  1.00  0.00     0.009 A 
ATOM     20  C   UNL     1      -3.879   0.739   0.359  1.00  0.00    -0.017 A 
ATOM     21  C   UNL     1      -0.561   0.408  -3.503  1.00  0.00     0.001 A 
ATOM     22  C   UNL     1      -2.942   0.598  -3.244  1.00  0.00     0.009 A 
ATOM     23  C   UNL     1      -3.957   0.718  -1.040  1.00  0.00     0.017 A 
ATOM     24  C   UNL     1      -3.780   0.787   3.163  1.00  0.00     0.001 A 
ATOM     25  C   UNL     1      -5.053   0.848   1.125  1.00  0.00     0.009 A 
ATOM     26  C   UNL     1      -1.824   0.497  -4.069  1.00  0.00     0.001 A 
ATOM     27  C   UNL     1      -5.005   0.872   2.518  1.00  0.00     0.001 A 
ENDBRANCH  10  14
ENDBRANCH   1   7
BRANCH   6  28
ATOM     28  O   UNL     1       3.169   0.897  -0.753  1.00  0.00    -0.507 OA
ATOM     29  H   UNL     1       2.559   1.267  -0.076  1.00  0.00     0.293 HD
ENDBRANCH   6  28
BRANCH   4  30
ATOM     30  O   UNL     1       6.187  -2.743  -1.164  1.00  0.00    -0.508 OA
ATOM     31  H   UNL     1       6.445  -2.197  -1.925  1.00  0.00     0.293 HD
ENDBRANCH   4  30
TORSDOF 4
