REMARK SMILES O=c1cc2cc3o[nH]c(CC[C@H]4CC[N@H+](Cc5ccccc5)CC4)c3cc2[nH]1
REMARK SMILES IDX 11 1 10 2 9 3 8 4 7 5 6 6 25 7 5 8 26 9 4 10 27 11 3 12
REMARK SMILES IDX 28 13 2 14 1 17 12 18 24 19 13 20 23 21 14 22 15 23 16 25
REMARK SMILES IDX 17 26 18 27 22 28 19 29 21 30 20 31
REMARK H PARENT 8 15 28 16 15 24
ROOT
ATOM      1  C   UNL     1       0.922   2.513  -1.333  1.00  0.00     0.010 C 
ENDROOT
BRANCH   1   2
ATOM      2  C   UNL     1       1.371   2.753   0.114  1.00  0.00     0.058 C 
BRANCH   2   3
ATOM      3  C   UNL     1       2.432   3.805   0.202  1.00  0.00     0.060 A 
ATOM      4  N   UNL     1       2.118   5.158   0.095  1.00  0.00    -0.226 N 
ATOM      5  O   UNL     1       3.296   5.949   0.130  1.00  0.00    -0.382 OA
ATOM      6  C   UNL     1       4.290   5.024   0.387  1.00  0.00     0.164 A 
ATOM      7  C   UNL     1       3.744   3.669   0.428  1.00  0.00     0.044 A 
ATOM      8  C   UNL     1       5.601   5.265   0.563  1.00  0.00     0.061 A 
ATOM      9  C   UNL     1       4.580   2.502   0.647  1.00  0.00     0.040 A 
ATOM     10  C   UNL     1       6.438   4.101   0.796  1.00  0.00     0.007 A 
ATOM     11  C   UNL     1       5.884   2.752   0.826  1.00  0.00     0.049 A 
ATOM     12  C   UNL     1       7.761   4.047   1.004  1.00  0.00     0.082 A 
ATOM     13  N   UNL     1       6.915   1.908   1.054  1.00  0.00    -0.322 N 
ATOM     14  C   UNL     1       8.096   2.610   1.177  1.00  0.00     0.249 A 
ATOM     15  H   UNL     1       1.523   5.394  -0.696  1.00  0.00     0.208 HD
ATOM     16  H   UNL     1       6.872   0.904   1.136  1.00  0.00     0.170 HD
ATOM     17  O   UNL     1       9.206   2.161   1.384  1.00  0.00    -0.270 OA
ENDBRANCH   2   3
ENDBRANCH   1   2
BRANCH   1  18
ATOM     18  C   UNL     1      -0.197   1.468  -1.524  1.00  0.00     0.000 C 
ATOM     19  C   UNL     1       0.207   0.063  -1.062  1.00  0.00     0.065 C 
ATOM     20  C   UNL     1      -1.516   1.878  -0.857  1.00  0.00     0.065 C 
ATOM     21  C   UNL     1      -0.898  -0.951  -1.335  1.00  0.00     0.262 C 
ATOM     22  C   UNL     1      -2.620   0.861  -1.125  1.00  0.00     0.262 C 
ATOM     23  N   UNL     1      -2.172  -0.507  -0.662  1.00  0.00    -0.331 N 
ATOM     24  H   UNL     1      -1.989  -0.437   0.347  1.00  0.00     0.348 HD
BRANCH  23  25
ATOM     25  C   UNL     1      -3.262  -1.554  -0.807  1.00  0.00     0.299 C 
BRANCH  25  26
ATOM     26  C   UNL     1      -4.414  -1.339   0.135  1.00  0.00     0.006 A 
ATOM     27  C   UNL     1      -5.648  -0.870  -0.341  1.00  0.00     0.009 A 
ATOM     28  C   UNL     1      -4.266  -1.587   1.510  1.00  0.00     0.009 A 
ATOM     29  C   UNL     1      -6.706  -0.645   0.540  1.00  0.00     0.001 A 
ATOM     30  C   UNL     1      -5.328  -1.361   2.386  1.00  0.00     0.001 A 
ATOM     31  C   UNL     1      -6.545  -0.889   1.902  1.00  0.00     0.000 A 
ENDBRANCH  25  26
ENDBRANCH  23  25
ENDBRANCH   1  18
TORSDOF 5
