REMARK SMILES COc1ccc(OC)c([C@@H]2C=C(c3cc(F)cc(F)c3)NN2c2ccc(S(N)(=O)=O)cc2)c1
REMARK SMILES IDX 23 1 24 2 25 3 26 4 31 5 32 6 22 7 21 8 12 9 11 10 10 11
REMARK SMILES IDX 13 13 14 14 20 15 15 16 18 17 17 18 16 19 19 20 9 21 33 22
REMARK SMILES IDX 6 23 3 24 5 25 4 26 7 27 8 28 2 29 1 30 27 31 29 32 30 33
REMARK SMILES IDX 28 34
REMARK H PARENT 21 12 28 35 28 36
ROOT
ATOM      1  C   UNL     1       1.516  -0.573  -0.380  1.00  0.00     0.058 A 
ATOM      2  C   UNL     1       2.754  -0.121  -0.878  1.00  0.00     0.029 A 
ATOM      3  C   UNL     1       3.786  -1.004  -1.214  1.00  0.00     0.024 A 
ATOM      4  C   UNL     1       3.590  -2.373  -1.053  1.00  0.00     0.082 A 
ATOM      5  C   UNL     1       2.370  -2.859  -0.588  1.00  0.00     0.024 A 
ATOM      6  C   UNL     1       1.347  -1.962  -0.258  1.00  0.00     0.029 A 
ENDROOT
BRANCH   1   7
ATOM      7  N   UNL     1       0.499   0.346  -0.075  1.00  0.00    -0.276 N 
ATOM      8  N   UNL     1       0.721   1.722  -0.027  1.00  0.00    -0.297 N 
ATOM      9  C   UNL     1      -0.212   2.332   0.802  1.00  0.00     0.060 C 
ATOM     10  C   UNL     1      -0.986   1.403   1.385  1.00  0.00     0.033 C 
ATOM     11  C   UNL     1      -0.597   0.022   0.891  1.00  0.00     0.165 C 
ATOM     12  H   UNL     1       0.745   2.173  -0.944  1.00  0.00     0.188 HD
BRANCH   9  13
ATOM     13  C   UNL     1      -0.291   3.787   0.937  1.00  0.00     0.005 A 
ATOM     14  C   UNL     1      -1.518   4.432   1.149  1.00  0.00     0.049 A 
ATOM     15  C   UNL     1       0.866   4.571   0.834  1.00  0.00     0.049 A 
ATOM     16  C   UNL     1      -1.570   5.820   1.262  1.00  0.00     0.126 A 
ATOM     17  C   UNL     1       0.789   5.958   0.951  1.00  0.00     0.126 A 
ATOM     18  C   UNL     1      -0.424   6.594   1.165  1.00  0.00     0.078 A 
ATOM     19  F   UNL     1      -2.752   6.418   1.464  1.00  0.00    -0.207 F 
ATOM     20  F   UNL     1       1.908   6.688   0.854  1.00  0.00    -0.207 F 
ENDBRANCH   9  13
BRANCH  11  21
ATOM     21  C   UNL     1      -1.773  -0.729   0.289  1.00  0.00     0.026 A 
ATOM     22  C   UNL     1      -2.293  -1.833   1.004  1.00  0.00     0.056 A 
ATOM     23  C   UNL     1      -2.391  -0.375  -0.921  1.00  0.00     0.124 A 
ATOM     24  C   UNL     1      -3.383  -2.563   0.523  1.00  0.00     0.119 A 
ATOM     25  C   UNL     1      -3.497  -1.088  -1.392  1.00  0.00     0.050 A 
ATOM     26  C   UNL     1      -3.981  -2.182  -0.677  1.00  0.00     0.050 A 
BRANCH  23  27
ATOM     27  O   UNL     1      -1.969   0.731  -1.611  1.00  0.00    -0.496 OA
ATOM     28  C   UNL     1      -1.417   0.370  -2.878  1.00  0.00     0.278 C 
ENDBRANCH  23  27
BRANCH  24  29
ATOM     29  O   UNL     1      -3.957  -3.647   1.127  1.00  0.00    -0.497 OA
ATOM     30  C   UNL     1      -3.382  -4.090   2.349  1.00  0.00     0.278 C 
ENDBRANCH  24  29
ENDBRANCH  11  21
ENDBRANCH   1   7
BRANCH   4  31
ATOM     31  S   UNL     1       4.883  -3.507  -1.477  1.00  0.00     0.238 S 
ATOM     32  O   UNL     1       4.290  -4.785  -1.788  1.00  0.00    -0.207 OA
ATOM     33  O   UNL     1       5.807  -2.841  -2.366  1.00  0.00    -0.207 OA
BRANCH  31  34
ATOM     34  N   UNL     1       5.692  -3.656  -0.007  1.00  0.00    -0.225 NA
ATOM     35  H   UNL     1       5.198  -3.218   0.769  1.00  0.00     0.137 HD
ATOM     36  H   UNL     1       6.638  -3.284  -0.115  1.00  0.00     0.137 HD
ENDBRANCH  31  34
ENDBRANCH   4  31
TORSDOF 7
