REMARK SMILES CCC1=C[C@H]2Cc3nc4cc(Cl)ccc4c(N)c3[C@@H](C1)C2
REMARK SMILES IDX 3 1 4 2 5 3 6 4 7 5 8 6 9 7 10 8 11 9 12 10 13 11 14 12
REMARK SMILES IDX 15 13 16 14 18 15 19 16 20 17 21 18 2 19 1 20 17 21
REMARK H PARENT 17 22 17 23
ROOT
ATOM      1  C   UNL     1       1.515  -0.101   1.712  1.00  0.00    -0.074 C 
ATOM      2  C   UNL     1       1.468  -1.349   1.209  1.00  0.00    -0.024 C 
ATOM      3  C   UNL     1       0.988  -1.660  -0.193  1.00  0.00     0.018 C 
ATOM      4  C   UNL     1      -0.467  -2.145  -0.174  1.00  0.00     0.064 C 
ATOM      5  C   UNL     1      -1.484  -1.035  -0.015  1.00  0.00     0.047 A 
ATOM      6  N   UNL     1      -2.751  -1.458   0.203  1.00  0.00    -0.252 NA
ATOM      7  C   UNL     1      -3.733  -0.554   0.274  1.00  0.00     0.074 A 
ATOM      8  C   UNL     1      -5.024  -1.029   0.451  1.00  0.00     0.049 A 
ATOM      9  C   UNL     1      -6.112  -0.164   0.506  1.00  0.00     0.043 A 
ATOM     10  Cl  UNL     1      -7.699  -0.792   0.723  1.00  0.00    -0.084 Cl
ATOM     11  C   UNL     1      -5.924   1.203   0.379  1.00  0.00     0.021 A 
ATOM     12  C   UNL     1      -4.632   1.699   0.206  1.00  0.00     0.014 A 
ATOM     13  C   UNL     1      -3.508   0.834   0.162  1.00  0.00     0.024 A 
ATOM     14  C   UNL     1      -2.161   1.274   0.015  1.00  0.00     0.046 A 
ATOM     15  C   UNL     1      -1.139   0.317  -0.148  1.00  0.00     0.001 A 
ATOM     16  C   UNL     1       0.311   0.710  -0.413  1.00  0.00     0.028 C 
ATOM     17  C   UNL     1       1.040   1.090   0.900  1.00  0.00     0.039 C 
ATOM     18  C   UNL     1       1.077  -0.429  -1.096  1.00  0.00     0.017 C 
ENDROOT
BRANCH   1  19
ATOM     19  C   UNL     1       1.994   0.174   3.117  1.00  0.00     0.027 C 
ATOM     20  C   UNL     1       3.313   0.931   3.148  1.00  0.00     0.008 C 
ENDBRANCH   1  19
BRANCH  14  21
ATOM     21  N   UNL     1      -1.879   2.650  -0.175  1.00  0.00    -0.398 N 
ATOM     22  H   UNL     1      -0.920   2.909   0.024  1.00  0.00     0.156 HD
ATOM     23  H   UNL     1      -2.519   3.264   0.316  1.00  0.00     0.156 HD
ENDBRANCH  14  21
TORSDOF 2
