REMARK SMILES COc1ccc([C@H](C)NS(=O)(=O)NC(=O)OCc2ccccc2)cc1
REMARK SMILES IDX 9 1 7 3 8 4 6 5 3 6 4 7 25 8 5 9 24 10 2 11 1 12 10 13 11 14
REMARK SMILES IDX 12 15 13 16 14 17 15 19 16 20 17 21 18 22 19 23 23 24 20 25
REMARK SMILES IDX 22 26 21 27
REMARK H PARENT 9 2 13 18
ROOT
ATOM      1  N   UNL     1      -1.864   2.596  -2.317  1.00  0.00    -0.190 NA
ATOM      2  H   UNL     1      -2.318   3.023  -3.125  1.00  0.00     0.143 HD
ENDROOT
BRANCH   1   3
ATOM      3  C   UNL     1      -2.786   2.395  -1.178  1.00  0.00     0.098 C 
ATOM      4  C   UNL     1      -4.167   2.029  -1.738  1.00  0.00     0.031 C 
BRANCH   3   5
ATOM      5  C   UNL     1      -2.305   1.326  -0.216  1.00  0.00    -0.030 A 
ATOM      6  C   UNL     1      -1.381  -0.643   1.581  1.00  0.00     0.118 A 
ATOM      7  C   UNL     1      -1.611   0.664   2.015  1.00  0.00     0.047 A 
ATOM      8  C   UNL     1      -1.604  -0.965   0.244  1.00  0.00     0.047 A 
ATOM      9  C   UNL     1      -2.071   1.642   1.129  1.00  0.00     0.009 A 
ATOM     10  C   UNL     1      -2.061   0.012  -0.647  1.00  0.00     0.009 A 
BRANCH   6  11
ATOM     11  O   UNL     1      -0.929  -1.496   2.549  1.00  0.00    -0.497 OA
ATOM     12  C   UNL     1      -0.788  -2.865   2.185  1.00  0.00     0.278 C 
ENDBRANCH   6  11
ENDBRANCH   3   5
ENDBRANCH   1   3
BRANCH   1  13
ATOM     13  S   UNL     1      -0.446   3.439  -2.046  1.00  0.00     0.304 S 
ATOM     14  O   UNL     1       0.132   3.717  -3.336  1.00  0.00    -0.189 OA
ATOM     15  O   UNL     1      -0.755   4.509  -1.126  1.00  0.00    -0.189 OA
BRANCH  13  16
ATOM     16  N   UNL     1       0.470   2.368  -1.232  1.00  0.00    -0.205 N 
ATOM     17  C   UNL     1       1.000   1.198  -1.742  1.00  0.00     0.422 C 
ATOM     18  H   UNL     1       0.516   2.502  -0.231  1.00  0.00     0.188 HD
ATOM     19  O   UNL     1       0.878   0.812  -2.892  1.00  0.00    -0.223 OA
BRANCH  17  20
ATOM     20  O   UNL     1       1.663   0.521  -0.771  1.00  0.00    -0.444 OA
BRANCH  20  21
ATOM     21  C   UNL     1       2.195  -0.731  -1.210  1.00  0.00     0.270 C 
BRANCH  21  22
ATOM     22  C   UNL     1       2.895  -1.439  -0.073  1.00  0.00    -0.011 A 
ATOM     23  C   UNL     1       3.901  -2.375  -0.358  1.00  0.00     0.007 A 
ATOM     24  C   UNL     1       2.527  -1.237   1.265  1.00  0.00     0.007 A 
ATOM     25  C   UNL     1       4.537  -3.073   0.671  1.00  0.00     0.000 A 
ATOM     26  C   UNL     1       3.162  -1.936   2.293  1.00  0.00     0.000 A 
ATOM     27  C   UNL     1       4.168  -2.853   1.996  1.00  0.00     0.000 A 
ENDBRANCH  21  22
ENDBRANCH  20  21
ENDBRANCH  17  20
ENDBRANCH  13  16
ENDBRANCH   1  13
TORSDOF 8
