REMARK SMILES COc1cccc([C@H]2CC(c3cc(F)cc(F)c3)=NN2c2ccc(S(N)(=O)=O)cc2)c1OC
REMARK SMILES IDX 21 1 22 2 23 3 24 4 29 5 30 6 20 7 8 8 9 9 10 10 19 11 7 12
REMARK SMILES IDX 3 13 4 14 31 15 5 16 6 17 2 18 1 19 32 20 33 21 11 22 12 23
REMARK SMILES IDX 18 24 13 25 16 26 15 27 14 28 17 29 25 30 27 31 28 32 26 33
REMARK H PARENT 26 34 26 35
ROOT
ATOM      1  C   UNL     1       1.718  -0.481  -0.680  1.00  0.00     0.060 A 
ATOM      2  C   UNL     1       1.733  -1.545  -1.597  1.00  0.00     0.029 A 
ATOM      3  C   UNL     1       2.769  -2.488  -1.618  1.00  0.00     0.024 A 
ATOM      4  C   UNL     1       3.816  -2.384  -0.705  1.00  0.00     0.082 A 
ATOM      5  C   UNL     1       3.845  -1.336   0.210  1.00  0.00     0.024 A 
ATOM      6  C   UNL     1       2.801  -0.404   0.218  1.00  0.00     0.029 A 
ENDROOT
BRANCH   1   7
ATOM      7  N   UNL     1       0.695   0.466  -0.636  1.00  0.00    -0.257 N 
ATOM      8  C   UNL     1      -0.482   0.516  -1.511  1.00  0.00     0.148 C 
ATOM      9  C   UNL     1      -1.038   1.923  -1.282  1.00  0.00     0.091 C 
ATOM     10  C   UNL     1      -0.114   2.410  -0.202  1.00  0.00     0.071 C 
ATOM     11  N   UNL     1       0.857   1.606   0.103  1.00  0.00    -0.176 NA
BRANCH   8  12
ATOM     12  C   UNL     1      -1.510  -0.575  -1.239  1.00  0.00     0.023 A 
ATOM     13  C   UNL     1      -2.983  -1.876   0.196  1.00  0.00     0.161 A 
ATOM     14  C   UNL     1      -3.372  -2.665  -0.886  1.00  0.00     0.050 A 
ATOM     15  C   UNL     1      -2.104  -0.794   0.020  1.00  0.00     0.166 A 
ATOM     16  C   UNL     1      -2.839  -2.421  -2.145  1.00  0.00     0.004 A 
ATOM     17  C   UNL     1      -1.910  -1.393  -2.318  1.00  0.00     0.010 A 
BRANCH  13  18
ATOM     18  O   UNL     1      -3.520  -2.200   1.417  1.00  0.00    -0.493 OA
ATOM     19  C   UNL     1      -2.550  -2.902   2.200  1.00  0.00     0.278 C 
ENDBRANCH  13  18
BRANCH  15  20
ATOM     20  O   UNL     1      -1.763   0.052   1.043  1.00  0.00    -0.492 OA
ATOM     21  C   UNL     1      -2.880   0.601   1.740  1.00  0.00     0.278 C 
ENDBRANCH  15  20
ENDBRANCH   8  12
BRANCH  10  22
ATOM     22  C   UNL     1      -0.294   3.729   0.445  1.00  0.00     0.004 A 
ATOM     23  C   UNL     1       0.571   4.099   1.482  1.00  0.00     0.049 A 
ATOM     24  C   UNL     1      -1.308   4.605   0.047  1.00  0.00     0.049 A 
ATOM     25  C   UNL     1       0.413   5.333   2.105  1.00  0.00     0.126 A 
ATOM     26  C   UNL     1      -1.442   5.834   0.689  1.00  0.00     0.126 A 
ATOM     27  C   UNL     1      -0.590   6.209   1.718  1.00  0.00     0.078 A 
ATOM     28  F   UNL     1       1.242   5.681   3.098  1.00  0.00    -0.207 F 
ATOM     29  F   UNL     1      -2.415   6.669   0.304  1.00  0.00    -0.207 F 
ENDBRANCH  10  22
ENDBRANCH   1   7
BRANCH   4  30
ATOM     30  S   UNL     1       5.141  -3.550  -0.745  1.00  0.00     0.238 S 
ATOM     31  O   UNL     1       5.129  -4.245  -2.012  1.00  0.00    -0.207 OA
ATOM     32  O   UNL     1       6.335  -2.939  -0.210  1.00  0.00    -0.207 OA
BRANCH  30  33
ATOM     33  N   UNL     1       4.649  -4.678   0.398  1.00  0.00    -0.225 NA
ATOM     34  H   UNL     1       4.506  -5.584  -0.049  1.00  0.00     0.137 HD
ATOM     35  H   UNL     1       5.311  -4.697   1.173  1.00  0.00     0.137 HD
ENDBRANCH  30  33
ENDBRANCH   4  30
TORSDOF 7
