REMARK SMILES OC1=Cc2cc3c(CC[C@H]4CC[N@H+](Cc5ccccc5)CC4)noc3cc2NC1
REMARK SMILES IDX 8 1 7 2 2 3 3 4 29 5 4 6 28 7 5 8 27 9 6 10 26 11 25 12
REMARK SMILES IDX 23 13 24 14 1 16 9 18 10 19 22 20 11 21 21 22 12 23 13 24
REMARK SMILES IDX 14 26 15 27 16 28 20 29 17 30 19 31 18 32
REMARK H PARENT 28 15 1 17 13 25
ROOT
ATOM      1  C   UNL     1       1.521   0.070   1.128  1.00  0.00     0.061 C 
ENDROOT
BRANCH   1   2
ATOM      2  C   UNL     1       1.715  -1.236   1.819  1.00  0.00     0.091 A 
ATOM      3  C   UNL     1       6.894  -4.492   0.703  1.00  0.00     0.112 C 
ATOM      4  C   UNL     1       6.053  -3.495   0.407  1.00  0.00     0.053 C 
ATOM      5  C   UNL     1       6.623  -5.484   1.810  1.00  0.00     0.187 C 
ATOM      6  C   UNL     1       4.813  -3.362   1.174  1.00  0.00     0.002 A 
ATOM      7  N   UNL     1       5.206  -5.574   2.163  1.00  0.00    -0.377 N 
ATOM      8  C   UNL     1       4.006  -2.224   0.993  1.00  0.00     0.024 A 
ATOM      9  C   UNL     1       4.441  -4.396   2.065  1.00  0.00     0.046 A 
ATOM     10  C   UNL     1       2.798  -2.143   1.703  1.00  0.00     0.046 A 
ATOM     11  C   UNL     1       3.215  -4.328   2.744  1.00  0.00     0.077 A 
ATOM     12  C   UNL     1       2.446  -3.186   2.539  1.00  0.00     0.169 A 
ATOM     13  N   UNL     1       0.772  -1.695   2.655  1.00  0.00    -0.084 NA
ATOM     14  O   UNL     1       1.239  -2.921   3.106  1.00  0.00    -0.356 OA
ATOM     15  H   UNL     1       5.053  -6.070   3.036  1.00  0.00     0.161 HD
BRANCH   3  16
ATOM     16  O   UNL     1       8.070  -4.618  -0.019  1.00  0.00    -0.510 OA
ATOM     17  H   UNL     1       8.539  -5.420   0.272  1.00  0.00     0.293 HD
ENDBRANCH   3  16
ENDBRANCH   1   2
BRANCH   1  18
ATOM     18  C   UNL     1       0.804  -0.057  -0.226  1.00  0.00     0.010 C 
BRANCH  18  19
ATOM     19  C   UNL     1      -0.596  -0.707  -0.177  1.00  0.00     0.000 C 
ATOM     20  C   UNL     1      -1.582   0.066   0.708  1.00  0.00     0.065 C 
ATOM     21  C   UNL     1      -1.175  -0.838  -1.593  1.00  0.00     0.065 C 
ATOM     22  C   UNL     1      -2.954  -0.596   0.727  1.00  0.00     0.262 C 
ATOM     23  C   UNL     1      -2.548  -1.497  -1.575  1.00  0.00     0.262 C 
ATOM     24  N   UNL     1      -3.479  -0.714  -0.685  1.00  0.00    -0.331 N 
ATOM     25  H   UNL     1      -3.547   0.240  -1.060  1.00  0.00     0.348 HD
BRANCH  24  26
ATOM     26  C   UNL     1      -4.885  -1.279  -0.732  1.00  0.00     0.299 C 
BRANCH  26  27
ATOM     27  C   UNL     1      -5.919  -0.333  -0.184  1.00  0.00     0.006 A 
ATOM     28  C   UNL     1      -6.294   0.808  -0.911  1.00  0.00     0.009 A 
ATOM     29  C   UNL     1      -6.507  -0.566   1.068  1.00  0.00     0.009 A 
ATOM     30  C   UNL     1      -7.234   1.699  -0.390  1.00  0.00     0.001 A 
ATOM     31  C   UNL     1      -7.445   0.329   1.585  1.00  0.00     0.001 A 
ATOM     32  C   UNL     1      -7.806   1.460   0.858  1.00  0.00     0.000 A 
ENDBRANCH  26  27
ENDBRANCH  24  26
ENDBRANCH  18  19
ENDBRANCH   1  18
TORSDOF 6
