REMARK SMILES O=C1C(=NCCNc2c3c(nc4cc(Cl)ccc24)CCCC3)CC(=O)c2c(O)cccc21
REMARK SMILES IDX 5 1 4 2 3 3 23 4 24 5 26 6 2 7 27 8 32 9 29 10 31 11 30 12
REMARK SMILES IDX 25 13 1 14 28 15 6 17 7 18 8 20 9 21 18 22 10 23 22 24 17 25
REMARK SMILES IDX 12 26 11 27 19 28 21 29 16 30 13 31 20 32 14 33 15 34
REMARK H PARENT 28 16 7 19
ROOT
ATOM      1  C   UNL     1       0.815   1.298  -1.605  1.00  0.00     0.163 C 
ENDROOT
BRANCH   1   2
ATOM      2  N   UNL     1       1.982   1.722  -0.831  1.00  0.00    -0.283 NA
BRANCH   2   3
ATOM      3  C   UNL     1       2.765   0.852  -0.286  1.00  0.00     0.091 C 
ATOM      4  C   UNL     1       2.620  -0.635  -0.381  1.00  0.00     0.141 C 
ATOM      5  C   UNL     1       3.610  -1.454   0.393  1.00  0.00     0.173 C 
ATOM      6  C   UNL     1       4.966  -0.893   0.590  1.00  0.00     0.071 A 
ATOM      7  C   UNL     1       3.954   1.376   0.502  1.00  0.00     0.208 C 
ATOM      8  C   UNL     1       6.096  -1.706   0.741  1.00  0.00     0.127 A 
ATOM      9  C   UNL     1       5.112   0.490   0.684  1.00  0.00     0.038 A 
ATOM     10  C   UNL     1       7.347  -1.144   1.013  1.00  0.00     0.047 A 
ATOM     11  C   UNL     1       6.361   1.058   0.969  1.00  0.00     0.013 A 
ATOM     12  C   UNL     1       7.476   0.239   1.135  1.00  0.00     0.005 A 
ATOM     13  O   UNL     1       3.301  -2.558   0.829  1.00  0.00    -0.294 OA
ATOM     14  O   UNL     1       3.956   2.514   0.946  1.00  0.00    -0.287 OA
BRANCH   8  15
ATOM     15  O   UNL     1       6.002  -3.058   0.583  1.00  0.00    -0.507 OA
ATOM     16  H   UNL     1       6.812  -3.493   0.898  1.00  0.00     0.293 HD
ENDBRANCH   8  15
ENDBRANCH   2   3
ENDBRANCH   1   2
BRANCH   1  17
ATOM     17  C   UNL     1      -0.452   1.370  -0.740  1.00  0.00     0.136 C 
BRANCH  17  18
ATOM     18  N   UNL     1      -1.609   0.904  -1.524  1.00  0.00    -0.382 N 
ATOM     19  H   UNL     1      -1.857   1.603  -2.222  1.00  0.00     0.160 HD
BRANCH  18  20
ATOM     20  C   UNL     1      -2.736   0.643  -0.690  1.00  0.00     0.049 A 
ATOM     21  C   UNL     1      -2.904  -0.660  -0.180  1.00  0.00    -0.003 A 
ATOM     22  C   UNL     1      -3.635   1.676  -0.302  1.00  0.00     0.024 A 
ATOM     23  C   UNL     1      -3.994  -0.895   0.657  1.00  0.00     0.046 A 
ATOM     24  C   UNL     1      -2.000  -1.792  -0.613  1.00  0.00     0.039 C 
ATOM     25  C   UNL     1      -3.542   3.026  -0.728  1.00  0.00     0.014 A 
ATOM     26  C   UNL     1      -4.689   1.320   0.567  1.00  0.00     0.074 A 
ATOM     27  N   UNL     1      -4.861   0.076   1.031  1.00  0.00    -0.252 NA
ATOM     28  C   UNL     1      -4.256  -2.253   1.256  1.00  0.00     0.056 C 
ATOM     29  C   UNL     1      -2.120  -3.048   0.249  1.00  0.00     0.005 C 
ATOM     30  C   UNL     1      -4.464   3.984  -0.307  1.00  0.00     0.021 A 
ATOM     31  C   UNL     1      -5.596   2.286   0.973  1.00  0.00     0.049 A 
ATOM     32  C   UNL     1      -3.583  -3.388   0.494  1.00  0.00     0.007 C 
ATOM     33  C   UNL     1      -5.491   3.605   0.544  1.00  0.00     0.043 A 
ATOM     34  Cl  UNL     1      -6.638   4.774   1.072  1.00  0.00    -0.084 Cl
ENDBRANCH  18  20
ENDBRANCH  17  18
ENDBRANCH   1  17
TORSDOF 6
