REMARK SMILES O=C(NCCNc1c2c(nc3ccccc13)CCCC2)c1ccc(F)cc1
REMARK SMILES IDX 4 1 3 2 2 3 1 4 21 6 22 7 27 8 23 9 26 10 24 11 25 12 5 13
REMARK SMILES IDX 6 14 7 16 8 17 16 18 9 19 20 20 15 21 11 22 10 23 17 24
REMARK SMILES IDX 19 25 14 26 12 27 18 28 13 29
REMARK H PARENT 3 5 6 15
ROOT
ATOM      1  C   UNL     1       0.984   0.551  -0.620  1.00  0.00     0.137 C 
ENDROOT
BRANCH   1   2
ATOM      2  N   UNL     1       2.410   0.222  -0.488  1.00  0.00    -0.350 N 
ATOM      3  C   UNL     1       3.172   0.984   0.438  1.00  0.00     0.251 C 
ATOM      4  O   UNL     1       2.613   1.895   1.099  1.00  0.00    -0.269 OA
ATOM      5  H   UNL     1       2.862  -0.535  -1.042  1.00  0.00     0.163 HD
BRANCH   3   6
ATOM      6  C   UNL     1       4.594   0.765   0.670  1.00  0.00     0.040 A 
ATOM      7  C   UNL     1       5.227   1.568   1.595  1.00  0.00     0.017 A 
ATOM      8  C   UNL     1       5.330  -0.199   0.014  1.00  0.00     0.017 A 
ATOM      9  C   UNL     1       6.588   1.381   1.837  1.00  0.00     0.040 A 
ATOM     10  C   UNL     1       6.673  -0.400   0.238  1.00  0.00     0.040 A 
ATOM     11  C   UNL     1       7.312   0.404   1.165  1.00  0.00     0.123 A 
ATOM     12  F   UNL     1       8.634   0.199   1.379  1.00  0.00    -0.207 F 
ENDBRANCH   3   6
ENDBRANCH   1   2
BRANCH   1  13
ATOM     13  C   UNL     1       0.416  -0.380  -1.642  1.00  0.00     0.134 C 
BRANCH  13  14
ATOM     14  N   UNL     1      -0.969  -0.257  -1.940  1.00  0.00    -0.382 N 
ATOM     15  H   UNL     1      -1.220   0.014  -2.946  1.00  0.00     0.160 HD
BRANCH  14  16
ATOM     16  C   UNL     1      -2.063  -0.444  -1.084  1.00  0.00     0.049 A 
ATOM     17  C   UNL     1      -2.692   0.569  -0.356  1.00  0.00    -0.003 A 
ATOM     18  C   UNL     1      -2.527  -1.766  -0.970  1.00  0.00     0.024 A 
ATOM     19  C   UNL     1      -3.738   0.160   0.440  1.00  0.00     0.046 A 
ATOM     20  C   UNL     1      -2.199   1.914  -0.421  1.00  0.00     0.039 C 
ATOM     21  C   UNL     1      -1.935  -2.796  -1.678  1.00  0.00     0.012 A 
ATOM     22  C   UNL     1      -3.585  -2.099  -0.160  1.00  0.00     0.073 A 
ATOM     23  N   UNL     1      -4.169  -1.117   0.532  1.00  0.00    -0.252 NA
ATOM     24  C   UNL     1      -4.271   1.103   1.415  1.00  0.00     0.056 C 
ATOM     25  C   UNL     1      -3.135   2.945   0.265  1.00  0.00     0.005 C 
ATOM     26  C   UNL     1      -2.367  -4.105  -1.594  1.00  0.00     0.001 A 
ATOM     27  C   UNL     1      -4.055  -3.393  -0.040  1.00  0.00     0.029 A 
ATOM     28  C   UNL     1      -3.476   2.392   1.633  1.00  0.00     0.007 C 
ATOM     29  C   UNL     1      -3.436  -4.395  -0.765  1.00  0.00     0.002 A 
ENDBRANCH  14  16
ENDBRANCH  13  14
ENDBRANCH   1  13
TORSDOF 5
