REMARK SMILES COc1cc(C=Cc2nnc(-c3ccc(OC(F)(F)F)cc3)o2)ccc1O
REMARK SMILES IDX 8 1 9 2 10 3 11 4 23 5 7 6 6 7 5 8 26 9 25 10 3 11 24 12
REMARK SMILES IDX 4 13 27 14 2 16 1 17 12 18 13 19 22 20 14 21 21 22 15 23
REMARK SMILES IDX 16 24 17 25 18 26 19 27 20 28
REMARK H PARENT 27 15
ROOT
ATOM      1  C   UNL     1      -0.284  -1.279   0.887  1.00  0.00     0.241 A 
ATOM      2  N   UNL     1      -0.697  -0.608  -0.178  1.00  0.00    -0.108 NA
ATOM      3  N   UNL     1       0.355   0.145  -0.650  1.00  0.00    -0.107 NA
ATOM      4  C   UNL     1       1.371  -0.107   0.142  1.00  0.00     0.248 A 
ATOM      5  O   UNL     1       1.050  -0.989   1.136  1.00  0.00    -0.417 OA
ENDROOT
BRANCH   1   6
ATOM      6  C   UNL     1      -1.004  -2.176   1.724  1.00  0.00     0.071 C 
BRANCH   6   7
ATOM      7  C   UNL     1      -2.291  -2.538   1.597  1.00  0.00     0.014 C 
BRANCH   7   8
ATOM      8  C   UNL     1      -3.287  -2.108   0.606  1.00  0.00    -0.022 A 
ATOM      9  C   UNL     1      -5.258  -1.379  -1.217  1.00  0.00     0.157 A 
ATOM     10  C   UNL     1      -4.939  -2.721  -1.063  1.00  0.00     0.051 A 
ATOM     11  C   UNL     1      -4.610  -0.384  -0.477  1.00  0.00     0.161 A 
ATOM     12  C   UNL     1      -3.950  -3.085  -0.150  1.00  0.00     0.012 A 
ATOM     13  C   UNL     1      -3.639  -0.757   0.453  1.00  0.00     0.058 A 
BRANCH   9  14
ATOM     14  O   UNL     1      -6.228  -1.043  -2.121  1.00  0.00    -0.504 OA
ATOM     15  H   UNL     1      -6.281  -0.068  -2.078  1.00  0.00     0.293 HD
ENDBRANCH   9  14
BRANCH  11  16
ATOM     16  O   UNL     1      -5.022   0.899  -0.739  1.00  0.00    -0.493 OA
ATOM     17  C   UNL     1      -4.167   1.934  -0.264  1.00  0.00     0.278 C 
ENDBRANCH  11  16
ENDBRANCH   7   8
ENDBRANCH   6   7
ENDBRANCH   1   6
BRANCH   4  18
ATOM     18  C   UNL     1       2.734   0.406   0.110  1.00  0.00     0.039 A 
ATOM     19  C   UNL     1       3.694   0.029   1.058  1.00  0.00     0.017 A 
ATOM     20  C   UNL     1       3.115   1.307  -0.895  1.00  0.00     0.017 A 
ATOM     21  C   UNL     1       4.994   0.542   0.998  1.00  0.00     0.047 A 
ATOM     22  C   UNL     1       4.418   1.821  -0.955  1.00  0.00     0.047 A 
ATOM     23  C   UNL     1       5.365   1.440  -0.007  1.00  0.00     0.129 A 
BRANCH  23  24
ATOM     24  O   UNL     1       6.663   1.857   0.060  1.00  0.00    -0.406 OA
BRANCH  24  25
ATOM     25  C   UNL     1       7.117   2.771  -0.924  1.00  0.00     0.573 C 
ATOM     26  F   UNL     1       7.026   2.239  -2.162  1.00  0.00    -0.132 F 
ATOM     27  F   UNL     1       6.417   3.925  -0.875  1.00  0.00    -0.132 F 
ATOM     28  F   UNL     1       8.415   3.057  -0.684  1.00  0.00    -0.132 F 
ENDBRANCH  24  25
ENDBRANCH  23  24
ENDBRANCH   4  18
TORSDOF 8
