REMARK SMILES COc1ccc2c(c1)CCC(Cc1cc[n+](Cc3ccccc3C)cc1C(C)=O)=C2O
REMARK SMILES IDX 13 1 14 2 15 3 16 4 25 5 26 6 12 7 11 8 30 9 6 10 10 11 5 12
REMARK SMILES IDX 7 13 9 14 4 15 8 16 3 17 31 18 2 20 1 21 27 22 28 23 29 24
REMARK SMILES IDX 17 25 18 26 19 27 23 28 20 29 22 30 21 31 24 32
REMARK H PARENT 31 19
ROOT
ATOM      1  C   UNL     1      -0.559  -0.901  -0.850  1.00  0.00    -0.021 A 
ATOM      2  C   UNL     1      -1.305   0.243  -1.175  1.00  0.00     0.075 A 
ATOM      3  C   UNL     1      -2.373   0.649  -0.378  1.00  0.00     0.308 A 
ATOM      4  N   UNL     1      -2.710  -0.055   0.725  1.00  0.00    -0.200 N 
ATOM      5  C   UNL     1      -2.028  -1.173   1.058  1.00  0.00     0.320 A 
ATOM      6  C   UNL     1      -0.965  -1.634   0.274  1.00  0.00     0.085 A 
ENDROOT
BRANCH   1   7
ATOM      7  C   UNL     1       0.689  -1.199  -1.659  1.00  0.00     0.071 C 
BRANCH   7   8
ATOM      8  C   UNL     1       1.901  -0.438  -1.172  1.00  0.00    -0.023 C 
ATOM      9  C   UNL     1       2.752  -0.934  -0.254  1.00  0.00     0.122 C 
ATOM     10  C   UNL     1       3.977  -0.199   0.133  1.00  0.00     0.020 A 
ATOM     11  C   UNL     1       2.185   0.901  -1.818  1.00  0.00     0.040 C 
ATOM     12  C   UNL     1       5.059  -0.819   0.772  1.00  0.00     0.016 A 
ATOM     13  C   UNL     1       4.075   1.169  -0.176  1.00  0.00    -0.033 A 
ATOM     14  C   UNL     1       2.941   1.858  -0.888  1.00  0.00     0.041 C 
ATOM     15  C   UNL     1       6.196  -0.086   1.140  1.00  0.00     0.047 A 
ATOM     16  C   UNL     1       5.208   1.900   0.213  1.00  0.00     0.050 A 
ATOM     17  C   UNL     1       6.271   1.278   0.870  1.00  0.00     0.119 A 
BRANCH   9  18
ATOM     18  O   UNL     1       2.496  -2.140   0.357  1.00  0.00    -0.507 OA
ATOM     19  H   UNL     1       2.960  -2.159   1.213  1.00  0.00     0.293 HD
ENDBRANCH   9  18
BRANCH  17  20
ATOM     20  O   UNL     1       7.311   2.107   1.182  1.00  0.00    -0.497 OA
ATOM     21  C   UNL     1       8.439   1.517   1.817  1.00  0.00     0.278 C 
ENDBRANCH  17  20
ENDBRANCH   7   8
ENDBRANCH   1   7
BRANCH   6  22
ATOM     22  C   UNL     1      -0.359  -2.887   0.772  1.00  0.00     0.166 C 
ATOM     23  C   UNL     1      -0.146  -4.042  -0.167  1.00  0.00     0.094 C 
ATOM     24  O   UNL     1      -0.161  -2.970   1.983  1.00  0.00    -0.294 OA
ENDBRANCH   6  22
BRANCH   4  25
ATOM     25  C   UNL     1      -3.823   0.419   1.592  1.00  0.00     0.393 C 
BRANCH  25  26
ATOM     26  C   UNL     1      -5.145   0.343   0.866  1.00  0.00     0.020 A 
ATOM     27  C   UNL     1      -5.615  -0.918   0.446  1.00  0.00     0.010 A 
ATOM     28  C   UNL     1      -5.928   1.489   0.599  1.00  0.00    -0.042 A 
ATOM     29  C   UNL     1      -6.820  -1.042  -0.243  1.00  0.00     0.001 A 
ATOM     30  C   UNL     1      -7.138   1.343  -0.099  1.00  0.00     0.004 A 
ATOM     31  C   UNL     1      -7.579   0.089  -0.519  1.00  0.00     0.000 A 
ATOM     32  C   UNL     1      -5.527   2.870   1.046  1.00  0.00     0.045 C 
ENDBRANCH  25  26
ENDBRANCH   4  25
TORSDOF 7
