REMARK SMILES C#CCNc1c2c(nc3cc(Cl)ccc13)CCCC2
REMARK SMILES IDX 3 1 2 2 1 3 4 4 5 6 6 7 15 8 7 9 19 10 14 11 9 12 8 13 16 14
REMARK SMILES IDX 18 15 13 16 10 17 17 18 11 19 12 20
REMARK H PARENT 4 5
ROOT
ATOM      1  C   UNL     1       2.101  -1.590  -0.696  1.00  0.00     0.203 C 
ENDROOT
BRANCH   1   2
ATOM      2  C   UNL     1       3.202  -2.506  -0.367  1.00  0.00    -0.085 C 
ATOM      3  C   UNL     1       4.103  -3.253  -0.096  1.00  0.00     0.006 C 
ENDBRANCH   1   2
BRANCH   1   4
ATOM      4  N   UNL     1       1.610  -0.980   0.544  1.00  0.00    -0.373 N 
ATOM      5  H   UNL     1       2.385  -0.541   1.035  1.00  0.00     0.161 HD
BRANCH   4   6
ATOM      6  C   UNL     1       0.583  -0.024   0.295  1.00  0.00     0.049 A 
ATOM      7  C   UNL     1      -0.758  -0.455   0.321  1.00  0.00    -0.003 A 
ATOM      8  C   UNL     1       0.888   1.324  -0.052  1.00  0.00     0.024 A 
ATOM      9  C   UNL     1      -1.748   0.487   0.038  1.00  0.00     0.046 A 
ATOM     10  C   UNL     1      -1.122  -1.856   0.758  1.00  0.00     0.039 C 
ATOM     11  C   UNL     1       2.200   1.858  -0.124  1.00  0.00     0.014 A 
ATOM     12  C   UNL     1      -0.199   2.176  -0.339  1.00  0.00     0.074 A 
ATOM     13  N   UNL     1      -1.473   1.768  -0.300  1.00  0.00    -0.252 NA
ATOM     14  C   UNL     1      -3.211   0.124   0.037  1.00  0.00     0.056 C 
ATOM     15  C   UNL     1      -2.566  -2.248   0.449  1.00  0.00     0.005 C 
ATOM     16  C   UNL     1       2.420   3.191  -0.470  1.00  0.00     0.021 A 
ATOM     17  C   UNL     1       0.040   3.498  -0.681  1.00  0.00     0.049 A 
ATOM     18  C   UNL     1      -3.519  -1.131   0.846  1.00  0.00     0.007 C 
ATOM     19  C   UNL     1       1.334   4.006  -0.748  1.00  0.00     0.043 A 
ATOM     20  Cl  UNL     1       1.589   5.652  -1.178  1.00  0.00    -0.084 Cl
ENDBRANCH   4   6
ENDBRANCH   1   4
TORSDOF 3
