REMARK SMILES COc1cc2c(cc1OC)C(=O)/C(=C/c1cc[n+](Cc3ccc(F)cc3)cc1)OC2
REMARK SMILES IDX 15 1 16 2 17 3 18 4 27 5 28 6 14 7 13 8 3 9 4 10 8 11 5 12
REMARK SMILES IDX 7 13 6 14 30 15 11 16 29 17 12 18 2 19 1 20 9 21 10 22 19 23
REMARK SMILES IDX 20 24 21 25 26 26 22 27 25 28 23 29 24 30
REMARK H PARENT
ROOT
ATOM      1  C   UNL     1       1.363  -1.972  -0.311  1.00  0.00    -0.010 A 
ATOM      2  C   UNL     1       1.858  -1.506   0.905  1.00  0.00     0.079 A 
ATOM      3  C   UNL     1       3.230  -1.370   1.084  1.00  0.00     0.309 A 
ATOM      4  N   UNL     1       4.093  -1.692   0.091  1.00  0.00    -0.201 N 
ATOM      5  C   UNL     1       3.635  -2.167  -1.089  1.00  0.00     0.309 A 
ATOM      6  C   UNL     1       2.271  -2.321  -1.309  1.00  0.00     0.079 A 
ENDROOT
BRANCH   1   7
ATOM      7  C   UNL     1      -0.071  -2.159  -0.558  1.00  0.00     0.059 C 
BRANCH   7   8
ATOM      8  C   UNL     1      -1.042  -1.272  -0.277  1.00  0.00     0.168 C 
ATOM      9  C   UNL     1      -5.376   1.389  -0.020  1.00  0.00     0.161 A 
ATOM     10  C   UNL     1      -4.120   1.468   0.597  1.00  0.00     0.058 A 
ATOM     11  C   UNL     1      -5.678   0.295  -0.860  1.00  0.00     0.161 A 
ATOM     12  C   UNL     1      -3.154   0.479   0.368  1.00  0.00     0.005 A 
ATOM     13  C   UNL     1      -4.717  -0.696  -1.078  1.00  0.00     0.063 A 
ATOM     14  C   UNL     1      -3.464  -0.595  -0.467  1.00  0.00     0.036 A 
ATOM     15  C   UNL     1      -1.831   0.494   1.075  1.00  0.00     0.266 C 
ATOM     16  C   UNL     1      -2.439  -1.634  -0.694  1.00  0.00     0.228 C 
ATOM     17  O   UNL     1      -0.765  -0.034   0.276  1.00  0.00    -0.485 OA
ATOM     18  O   UNL     1      -2.723  -2.707  -1.212  1.00  0.00    -0.285 OA
BRANCH   9  19
ATOM     19  O   UNL     1      -6.377   2.313   0.142  1.00  0.00    -0.493 OA
ATOM     20  C   UNL     1      -6.110   3.458   0.938  1.00  0.00     0.278 C 
ENDBRANCH   9  19
BRANCH  11  21
ATOM     21  O   UNL     1      -6.932   0.294  -1.417  1.00  0.00    -0.493 OA
ATOM     22  C   UNL     1      -7.298  -0.815  -2.227  1.00  0.00     0.278 C 
ENDBRANCH  11  21
ENDBRANCH   7   8
ENDBRANCH   1   7
BRANCH   4  23
ATOM     23  C   UNL     1       5.554  -1.540   0.312  1.00  0.00     0.393 C 
BRANCH  23  24
ATOM     24  C   UNL     1       5.941  -0.087   0.439  1.00  0.00     0.017 A 
ATOM     25  C   UNL     1       6.550   0.383   1.616  1.00  0.00     0.013 A 
ATOM     26  C   UNL     1       5.712   0.815  -0.615  1.00  0.00     0.013 A 
ATOM     27  C   UNL     1       6.906   1.727   1.739  1.00  0.00     0.040 A 
ATOM     28  C   UNL     1       6.069   2.159  -0.485  1.00  0.00     0.040 A 
ATOM     29  C   UNL     1       6.660   2.603   0.690  1.00  0.00     0.123 A 
ATOM     30  F   UNL     1       7.000   3.892   0.812  1.00  0.00    -0.207 F 
ENDBRANCH  23  24
ENDBRANCH   4  23
TORSDOF 6
