REMARK SMILES COc1ccc2c(CC[C@H]3CC[N@@H+](Cc4ccccc4)CC3)noc2c1
REMARK SMILES IDX 9 1 10 2 12 3 13 4 11 5 21 6 22 7 14 9 15 10 16 11 20 12
REMARK SMILES IDX 17 13 19 14 18 15 8 16 7 17 6 18 23 19 5 20 25 21 24 22 4 23
REMARK SMILES IDX 26 24 3 25 2 26 1 27
REMARK H PARENT 13 8
ROOT
ATOM      1  C   UNL     1       0.656  -0.098  -1.291  1.00  0.00     0.010 C 
ENDROOT
BRANCH   1   2
ATOM      2  C   UNL     1       0.092   0.979  -0.330  1.00  0.00     0.000 C 
ATOM      3  C   UNL     1      -1.783   1.920  -1.794  1.00  0.00     0.262 C 
ATOM      4  N   UNL     1      -2.786   1.432  -0.782  1.00  0.00    -0.331 N 
ATOM      5  C   UNL     1      -0.449   2.189  -1.111  1.00  0.00     0.065 C 
ATOM      6  C   UNL     1      -2.321   0.185  -0.066  1.00  0.00     0.262 C 
ATOM      7  C   UNL     1      -0.995   0.465   0.625  1.00  0.00     0.065 C 
ATOM      8  H   UNL     1      -2.886   2.162  -0.065  1.00  0.00     0.348 HD
BRANCH   4   9
ATOM      9  C   UNL     1      -4.161   1.272  -1.401  1.00  0.00     0.299 C 
BRANCH   9  10
ATOM     10  C   UNL     1      -5.258   1.151  -0.380  1.00  0.00     0.006 A 
ATOM     11  C   UNL     1      -5.891  -0.081  -0.153  1.00  0.00     0.009 A 
ATOM     12  C   UNL     1      -5.653   2.267   0.376  1.00  0.00     0.009 A 
ATOM     13  C   UNL     1      -6.890  -0.195   0.814  1.00  0.00     0.001 A 
ATOM     14  C   UNL     1      -6.653   2.148   1.342  1.00  0.00     0.001 A 
ATOM     15  C   UNL     1      -7.269   0.918   1.562  1.00  0.00     0.000 A 
ENDBRANCH   9  10
ENDBRANCH   4   9
ENDBRANCH   1   2
BRANCH   1  16
ATOM     16  C   UNL     1       1.281  -1.335  -0.627  1.00  0.00     0.061 C 
BRANCH  16  17
ATOM     17  C   UNL     1       2.396  -1.017   0.306  1.00  0.00     0.091 A 
ATOM     18  C   UNL     1       3.779  -0.882   0.025  1.00  0.00     0.045 A 
ATOM     19  N   UNL     1       2.133  -0.810   1.604  1.00  0.00    -0.084 NA
ATOM     20  C   UNL     1       4.624  -0.976  -1.092  1.00  0.00     0.018 A 
ATOM     21  C   UNL     1       4.335  -0.573   1.252  1.00  0.00     0.170 A 
ATOM     22  O   UNL     1       3.356  -0.530   2.194  1.00  0.00    -0.356 OA
ATOM     23  C   UNL     1       6.002  -0.753  -0.912  1.00  0.00     0.047 A 
ATOM     24  C   UNL     1       5.691  -0.345   1.464  1.00  0.00     0.097 A 
ATOM     25  C   UNL     1       6.529  -0.442   0.347  1.00  0.00     0.122 A 
BRANCH  25  26
ATOM     26  O   UNL     1       7.850  -0.206   0.622  1.00  0.00    -0.497 OA
ATOM     27  C   UNL     1       8.775  -0.344  -0.450  1.00  0.00     0.278 C 
ENDBRANCH  25  26
ENDBRANCH  16  17
ENDBRANCH   1  16
TORSDOF 6
