REMARK SMILES O=c1[nH]c2cc(Cl)ccc2c(=O)n1CC[C@H]1CC[N@@H+](Cc2ccccc2)CC1
REMARK SMILES IDX 15 1 16 2 18 3 19 4 17 5 27 6 28 7 20 9 21 10 22 11 26 12
REMARK SMILES IDX 23 13 25 14 24 15 14 16 13 17 11 18 2 19 10 20 3 21 9 22
REMARK SMILES IDX 4 23 8 24 5 25 6 26 12 27 1 28 7 30
REMARK H PARENT 19 8 3 29
ROOT
ATOM      1  C   UNL     1      -0.232   1.678   0.355  1.00  0.00     0.026 C 
ENDROOT
BRANCH   1   2
ATOM      2  C   UNL     1       0.553   0.663  -0.506  1.00  0.00     0.002 C 
ATOM      3  C   UNL     1       2.758   1.701  -1.366  1.00  0.00     0.262 C 
ATOM      4  N   UNL     1       3.499   0.603  -0.654  1.00  0.00    -0.331 N 
ATOM      5  C   UNL     1       1.334   1.263  -1.682  1.00  0.00     0.065 C 
ATOM      6  C   UNL     1       2.822   0.184   0.629  1.00  0.00     0.262 C 
ATOM      7  C   UNL     1       1.415  -0.302   0.322  1.00  0.00     0.065 C 
ATOM      8  H   UNL     1       3.509  -0.221  -1.268  1.00  0.00     0.348 HD
BRANCH   4   9
ATOM      9  C   UNL     1       4.956   0.973  -0.440  1.00  0.00     0.299 C 
BRANCH   9  10
ATOM     10  C   UNL     1       5.822  -0.211  -0.106  1.00  0.00     0.006 A 
ATOM     11  C   UNL     1       6.153  -1.151  -1.095  1.00  0.00     0.009 A 
ATOM     12  C   UNL     1       6.294  -0.404   1.201  1.00  0.00     0.009 A 
ATOM     13  C   UNL     1       6.934  -2.263  -0.779  1.00  0.00     0.001 A 
ATOM     14  C   UNL     1       7.075  -1.518   1.512  1.00  0.00     0.001 A 
ATOM     15  C   UNL     1       7.393  -2.447   0.524  1.00  0.00     0.000 A 
ENDBRANCH   9  10
ENDBRANCH   4   9
ENDBRANCH   1   2
BRANCH   1  16
ATOM     16  C   UNL     1       0.512   2.923   0.846  1.00  0.00     0.131 C 
BRANCH  16  17
ATOM     17  N   UNL     1      -0.087   3.457   2.059  1.00  0.00    -0.260 N 
ATOM     18  C   UNL     1      -1.118   4.384   1.928  1.00  0.00     0.264 A 
ATOM     19  C   UNL     1       0.340   2.924   3.267  1.00  0.00     0.328 A 
ATOM     20  C   UNL     1      -1.719   4.886   3.179  1.00  0.00     0.064 A 
ATOM     21  N   UNL     1      -0.249   3.412   4.396  1.00  0.00    -0.307 N 
ATOM     22  C   UNL     1      -2.735   5.847   3.157  1.00  0.00     0.017 A 
ATOM     23  C   UNL     1      -1.257   4.377   4.390  1.00  0.00     0.057 A 
ATOM     24  C   UNL     1      -3.284   6.296   4.360  1.00  0.00     0.021 A 
ATOM     25  C   UNL     1      -1.804   4.822   5.594  1.00  0.00     0.047 A 
ATOM     26  C   UNL     1      -2.816   5.783   5.570  1.00  0.00     0.043 A 
ATOM     27  O   UNL     1      -1.535   4.782   0.844  1.00  0.00    -0.268 OA
ATOM     28  O   UNL     1       1.205   2.049   3.344  1.00  0.00    -0.248 OA
ATOM     29  H   UNL     1       0.076   3.021   5.273  1.00  0.00     0.171 HD
ATOM     30  Cl  UNL     1      -3.494   6.338   7.050  1.00  0.00    -0.084 Cl
ENDBRANCH  16  17
ENDBRANCH   1  16
TORSDOF 5
