REMARK SMILES O=c1[nH]c2ccccc2c(=O)n1CC[C@H]1CC[N@H+](Cc2ccccc2)CC1
REMARK SMILES IDX 14 1 15 2 17 3 18 4 16 5 26 6 27 7 19 9 20 10 21 11 25 12
REMARK SMILES IDX 22 13 24 14 23 15 13 16 12 17 10 18 2 19 9 20 3 21 8 22 4 23
REMARK SMILES IDX 7 24 5 25 6 26 11 27 1 28
REMARK H PARENT 18 8 3 29
ROOT
ATOM      1  C   UNL     1       1.488   0.096   0.375  1.00  0.00     0.026 C 
ENDROOT
BRANCH   1   2
ATOM      2  C   UNL     1       0.358   1.042  -0.072  1.00  0.00     0.002 C 
ATOM      3  C   UNL     1      -1.471   1.493  -1.747  1.00  0.00     0.262 C 
ATOM      4  N   UNL     1      -2.451   1.671  -0.612  1.00  0.00    -0.331 N 
ATOM      5  C   UNL     1      -0.374   0.529  -1.320  1.00  0.00     0.065 C 
ATOM      6  C   UNL     1      -1.785   2.184   0.643  1.00  0.00     0.262 C 
ATOM      7  C   UNL     1      -0.663   1.238   1.058  1.00  0.00     0.065 C 
ATOM      8  H   UNL     1      -2.841   0.747  -0.389  1.00  0.00     0.348 HD
BRANCH   4   9
ATOM      9  C   UNL     1      -3.627   2.527  -1.039  1.00  0.00     0.299 C 
BRANCH   9  10
ATOM     10  C   UNL     1      -4.791   2.445  -0.089  1.00  0.00     0.006 A 
ATOM     11  C   UNL     1      -5.577   1.283  -0.025  1.00  0.00     0.009 A 
ATOM     12  C   UNL     1      -5.096   3.520   0.760  1.00  0.00     0.009 A 
ATOM     13  C   UNL     1      -6.640   1.199   0.875  1.00  0.00     0.001 A 
ATOM     14  C   UNL     1      -6.160   3.430   1.658  1.00  0.00     0.001 A 
ATOM     15  C   UNL     1      -6.929   2.270   1.717  1.00  0.00     0.000 A 
ENDBRANCH   9  10
ENDBRANCH   4   9
ENDBRANCH   1   2
BRANCH   1  16
ATOM     16  C   UNL     1       2.677  -0.004  -0.597  1.00  0.00     0.131 C 
BRANCH  16  17
ATOM     17  N   UNL     1       3.464   1.223  -0.681  1.00  0.00    -0.260 N 
ATOM     18  C   UNL     1       3.184   2.131  -1.702  1.00  0.00     0.264 A 
ATOM     19  C   UNL     1       4.417   1.440   0.306  1.00  0.00     0.328 A 
ATOM     20  C   UNL     1       4.069   3.307  -1.810  1.00  0.00     0.064 A 
ATOM     21  N   UNL     1       5.179   2.565   0.190  1.00  0.00    -0.307 N 
ATOM     22  C   UNL     1       3.926   4.229  -2.852  1.00  0.00     0.016 A 
ATOM     23  C   UNL     1       5.052   3.488  -0.844  1.00  0.00     0.055 A 
ATOM     24  C   UNL     1       4.777   5.333  -2.916  1.00  0.00     0.001 A 
ATOM     25  C   UNL     1       5.901   4.592  -0.903  1.00  0.00     0.027 A 
ATOM     26  C   UNL     1       5.761   5.514  -1.943  1.00  0.00     0.002 A 
ATOM     27  O   UNL     1       2.231   2.023  -2.473  1.00  0.00    -0.268 OA
ATOM     28  O   UNL     1       4.588   0.690   1.265  1.00  0.00    -0.248 OA
ATOM     29  H   UNL     1       5.885   2.688   0.906  1.00  0.00     0.171 HD
ENDBRANCH  16  17
ENDBRANCH   1  16
TORSDOF 5
