REMARK SMILES CCOCC[n+]1ccc(CC=C(O)[C@@H]2Cc3cc(OC)c(OC)cc3S2)cc1
REMARK SMILES IDX 9 1 8 2 7 3 6 4 28 5 27 6 10 7 11 8 12 9 13 10 14 12 15 13
REMARK SMILES IDX 26 14 16 15 25 16 17 17 24 18 18 19 21 20 19 21 20 22 22 23
REMARK SMILES IDX 23 24 5 25 4 26 3 27 2 28 1 29
REMARK H PARENT 13 11
ROOT
ATOM      1  C   UNL     1       2.345  -1.734   0.181  1.00  0.00    -0.032 A 
ATOM      2  C   UNL     1       2.706  -0.519  -0.405  1.00  0.00     0.074 A 
ATOM      3  C   UNL     1       3.651   0.292   0.209  1.00  0.00     0.308 A 
ATOM      4  N   UNL     1       4.230  -0.087   1.372  1.00  0.00    -0.203 N 
ATOM      5  C   UNL     1       3.892  -1.256   1.963  1.00  0.00     0.308 A 
ATOM      6  C   UNL     1       2.948  -2.098   1.384  1.00  0.00     0.074 A 
ENDROOT
BRANCH   1   7
ATOM      7  C   UNL     1       1.288  -2.601  -0.465  1.00  0.00     0.067 C 
BRANCH   7   8
ATOM      8  C   UNL     1      -0.099  -2.134  -0.126  1.00  0.00     0.020 C 
BRANCH   8   9
ATOM      9  C   UNL     1      -0.874  -1.388  -0.930  1.00  0.00     0.102 C 
BRANCH   9  10
ATOM     10  O   UNL     1      -0.380  -0.965  -2.155  1.00  0.00    -0.511 OA
ATOM     11  H   UNL     1      -1.005  -0.303  -2.514  1.00  0.00     0.293 HD
ENDBRANCH   9  10
BRANCH   9  12
ATOM     12  C   UNL     1      -2.272  -0.944  -0.552  1.00  0.00     0.121 C 
ATOM     13  C   UNL     1      -3.378  -1.626  -1.382  1.00  0.00     0.059 C 
ATOM     14  S   UNL     1      -2.454   0.858  -0.820  1.00  0.00    -0.114 SA
ATOM     15  C   UNL     1      -4.509  -0.644  -1.500  1.00  0.00    -0.029 A 
ATOM     16  C   UNL     1      -4.157   0.684  -1.265  1.00  0.00     0.015 A 
ATOM     17  C   UNL     1      -5.808  -0.969  -1.882  1.00  0.00     0.055 A 
ATOM     18  C   UNL     1      -5.081   1.710  -1.388  1.00  0.00     0.065 A 
ATOM     19  C   UNL     1      -6.760   0.051  -2.007  1.00  0.00     0.161 A 
ATOM     20  C   UNL     1      -6.395   1.397  -1.754  1.00  0.00     0.161 A 
BRANCH  19  21
ATOM     21  O   UNL     1      -8.068  -0.153  -2.372  1.00  0.00    -0.493 OA
ATOM     22  C   UNL     1      -8.466  -1.474  -2.706  1.00  0.00     0.278 C 
ENDBRANCH  19  21
BRANCH  20  23
ATOM     23  O   UNL     1      -7.395   2.326  -1.907  1.00  0.00    -0.493 OA
ATOM     24  C   UNL     1      -7.100   3.678  -1.586  1.00  0.00     0.278 C 
ENDBRANCH  20  23
ENDBRANCH   9  12
ENDBRANCH   8   9
ENDBRANCH   7   8
ENDBRANCH   1   7
BRANCH   4  25
ATOM     25  C   UNL     1       5.230   0.799   2.010  1.00  0.00     0.385 C 
BRANCH  25  26
ATOM     26  C   UNL     1       6.626   0.464   1.494  1.00  0.00     0.233 C 
BRANCH  26  27
ATOM     27  O   UNL     1       7.561   1.465   1.883  1.00  0.00    -0.375 OA
BRANCH  27  28
ATOM     28  C   UNL     1       8.152   1.235   3.162  1.00  0.00     0.157 C 
ATOM     29  C   UNL     1       9.107   2.375   3.456  1.00  0.00     0.035 C 
ENDBRANCH  27  28
ENDBRANCH  26  27
ENDBRANCH  25  26
ENDBRANCH   4  25
TORSDOF 11
