REMARK SMILES COc1ccc2c(c1)CC[C@H](NC(=O)N(C)C)C2
REMARK SMILES IDX 3 1 4 2 5 3 6 4 7 5 8 6 9 7 10 8 11 9 18 10 2 11 1 12 12 13
REMARK SMILES IDX 13 14 15 15 14 17 16 18 17 19
REMARK H PARENT 12 16
ROOT
ATOM      1  C   UNL     1       3.268   0.198   2.143  1.00  0.00     0.119 A 
ATOM      2  C   UNL     1       2.681   1.460   2.159  1.00  0.00     0.047 A 
ATOM      3  C   UNL     1       1.565   1.724   1.360  1.00  0.00     0.008 A 
ATOM      4  C   UNL     1       1.023   0.733   0.529  1.00  0.00    -0.043 A 
ATOM      5  C   UNL     1       1.599  -0.547   0.523  1.00  0.00    -0.041 A 
ATOM      6  C   UNL     1       2.725  -0.796   1.324  1.00  0.00     0.050 A 
ATOM      7  C   UNL     1       1.080  -1.651  -0.364  1.00  0.00     0.038 C 
ATOM      8  C   UNL     1      -0.300  -1.368  -0.956  1.00  0.00     0.030 C 
ATOM      9  C   UNL     1      -0.433   0.072  -1.456  1.00  0.00     0.088 C 
ATOM     10  C   UNL     1      -0.205   1.053  -0.292  1.00  0.00     0.060 C 
ENDROOT
BRANCH   1  11
ATOM     11  O   UNL     1       4.362  -0.192   2.866  1.00  0.00    -0.497 OA
ATOM     12  C   UNL     1       4.941   0.780   3.727  1.00  0.00     0.278 C 
ENDBRANCH   1  11
BRANCH   9  13
ATOM     13  N   UNL     1       0.474   0.326  -2.576  1.00  0.00    -0.335 N 
ATOM     14  C   UNL     1       0.231   1.361  -3.445  1.00  0.00     0.317 C 
ATOM     15  N   UNL     1       1.200   1.529  -4.426  1.00  0.00    -0.331 N 
ATOM     16  H   UNL     1       1.454   0.236  -2.354  1.00  0.00     0.165 HD
ATOM     17  O   UNL     1      -0.762   2.077  -3.350  1.00  0.00    -0.249 OA
ATOM     18  C   UNL     1       2.091   0.468  -4.876  1.00  0.00     0.148 C 
ATOM     19  C   UNL     1       1.007   2.622  -5.363  1.00  0.00     0.148 C 
ENDBRANCH   9  13
TORSDOF 2
