REMARK SMILES O=C(CC[C@H]1CC[N@H+](Cc2ccccc2O)CC1)c1cc2c3c(ccn3C(=O)CC2)c1
REMARK SMILES IDX 7 1 8 2 17 3 6 4 5 5 18 6 9 8 10 9 11 10 15 11 12 12 14 13
REMARK SMILES IDX 13 14 16 15 4 17 3 18 2 19 1 20 19 21 20 22 31 23 21 24
REMARK SMILES IDX 23 25 22 26 30 27 24 28 26 29 29 30 25 31 27 32 28 33
REMARK H PARENT 8 7 16 16
ROOT
ATOM      1  C   UNL     1      -4.173   0.313  -0.098  1.00  0.00     0.262 C 
ATOM      2  N   UNL     1      -3.857   0.491   1.356  1.00  0.00    -0.331 N 
ATOM      3  C   UNL     1      -2.383   0.604   1.619  1.00  0.00     0.262 C 
ATOM      4  C   UNL     1      -3.487  -0.943  -0.612  1.00  0.00     0.065 C 
ATOM      5  C   UNL     1      -1.968  -0.924  -0.368  1.00  0.00     0.000 C 
ATOM      6  C   UNL     1      -1.677  -0.649   1.115  1.00  0.00     0.065 C 
ATOM      7  H   UNL     1      -4.202  -0.347   1.860  1.00  0.00     0.348 HD
ENDROOT
BRANCH   2   8
ATOM      8  C   UNL     1      -4.655   1.612   1.986  1.00  0.00     0.302 C 
BRANCH   8   9
ATOM      9  C   UNL     1      -4.709   1.551   3.489  1.00  0.00     0.048 A 
ATOM     10  C   UNL     1      -4.538   2.720   4.247  1.00  0.00     0.013 A 
ATOM     11  C   UNL     1      -4.985   0.353   4.164  1.00  0.00     0.124 A 
ATOM     12  C   UNL     1      -4.622   2.678   5.640  1.00  0.00     0.001 A 
ATOM     13  C   UNL     1      -5.071   0.306   5.553  1.00  0.00     0.046 A 
ATOM     14  C   UNL     1      -4.887   1.474   6.291  1.00  0.00     0.004 A 
BRANCH  11  15
ATOM     15  O   UNL     1      -5.150  -0.789   3.424  1.00  0.00    -0.507 OA
ATOM     16  H   UNL     1      -5.483  -1.485   4.027  1.00  0.00     0.293 HD
ENDBRANCH  11  15
ENDBRANCH   8   9
ENDBRANCH   2   8
BRANCH   5  17
ATOM     17  C   UNL     1      -1.358  -2.255  -0.847  1.00  0.00     0.012 C 
BRANCH  17  18
ATOM     18  C   UNL     1       0.176  -2.285  -0.841  1.00  0.00     0.081 C 
BRANCH  18  19
ATOM     19  C   UNL     1       0.700  -3.605  -1.387  1.00  0.00     0.162 C 
ATOM     20  O   UNL     1      -0.056  -4.544  -1.630  1.00  0.00    -0.294 OA
BRANCH  19  21
ATOM     21  C   UNL     1       2.170  -3.764  -1.620  1.00  0.00     0.019 A 
ATOM     22  C   UNL     1       3.094  -2.773  -1.245  1.00  0.00     0.017 A 
ATOM     23  C   UNL     1       2.609  -4.967  -2.217  1.00  0.00     0.022 A 
ATOM     24  C   UNL     1       4.462  -2.945  -1.484  1.00  0.00    -0.022 A 
ATOM     25  C   UNL     1       3.983  -5.161  -2.441  1.00  0.00     0.001 A 
ATOM     26  C   UNL     1       4.844  -4.141  -2.085  1.00  0.00     0.059 A 
ATOM     27  C   UNL     1       5.551  -2.012  -1.053  1.00  0.00     0.047 C 
ATOM     28  C   UNL     1       4.797  -6.207  -2.956  1.00  0.00     0.029 A 
ATOM     29  N   UNL     1       6.136  -4.506  -2.396  1.00  0.00    -0.287 N 
ATOM     30  C   UNL     1       6.816  -2.203  -1.911  1.00  0.00     0.106 C 
ATOM     31  C   UNL     1       6.114  -5.792  -2.889  1.00  0.00     0.095 A 
ATOM     32  C   UNL     1       7.223  -3.643  -2.206  1.00  0.00     0.231 C 
ATOM     33  O   UNL     1       8.363  -4.043  -2.394  1.00  0.00    -0.274 OA
ENDBRANCH  19  21
ENDBRANCH  18  19
ENDBRANCH  17  18
ENDBRANCH   5  17
TORSDOF 7
