REMARK SMILES C=C(O)c1c[n+](Cc2cccc(Cl)c2)ccc1CC1=C(O)c2cc(O)c(OC)cc2C1
REMARK SMILES IDX 4 1 5 2 6 3 15 4 16 5 17 6 2 7 1 8 3 9 18 11 19 12 20 13
REMARK SMILES IDX 31 14 22 15 30 16 23 17 29 18 24 19 26 20 21 21 25 23 27 25
REMARK SMILES IDX 28 26 7 27 8 28 9 29 14 30 10 31 12 32 11 33 13 34
REMARK H PARENT 3 10 21 22 25 24
ROOT
ATOM      1  C   UNL     1      -1.470  -2.261  -0.671  1.00  0.00     0.083 A 
ATOM      2  C   UNL     1      -2.779  -1.789  -0.551  1.00  0.00     0.320 A 
ATOM      3  N   UNL     1      -3.362  -1.619   0.659  1.00  0.00    -0.200 N 
ATOM      4  C   UNL     1      -2.715  -1.968   1.791  1.00  0.00     0.308 A 
ATOM      5  C   UNL     1      -1.409  -2.432   1.739  1.00  0.00     0.075 A 
ATOM      6  C   UNL     1      -0.753  -2.546   0.505  1.00  0.00    -0.021 A 
ENDROOT
BRANCH   1   7
ATOM      7  C   UNL     1      -0.916  -2.333  -2.030  1.00  0.00     0.121 C 
ATOM      8  C   UNL     1      -0.428  -3.455  -2.571  1.00  0.00     0.059 C 
BRANCH   7   9
ATOM      9  O   UNL     1      -1.014  -1.159  -2.740  1.00  0.00    -0.508 OA
ATOM     10  H   UNL     1      -0.516  -1.256  -3.573  1.00  0.00     0.293 HD
ENDBRANCH   7   9
ENDBRANCH   1   7
BRANCH   6  11
ATOM     11  C   UNL     1       0.739  -2.806   0.517  1.00  0.00     0.072 C 
BRANCH  11  12
ATOM     12  C   UNL     1       1.601  -1.580   0.447  1.00  0.00    -0.019 C 
ATOM     13  C   UNL     1       1.306  -0.270   0.551  1.00  0.00     0.123 C 
ATOM     14  C   UNL     1       3.088  -1.778   0.199  1.00  0.00     0.071 C 
ATOM     15  C   UNL     1       2.522   0.522   0.388  1.00  0.00     0.024 A 
ATOM     16  C   UNL     1       3.581  -0.364   0.175  1.00  0.00    -0.029 A 
ATOM     17  C   UNL     1       2.749   1.889   0.414  1.00  0.00     0.062 A 
ATOM     18  C   UNL     1       4.876   0.089  -0.019  1.00  0.00     0.055 A 
ATOM     19  C   UNL     1       4.058   2.359   0.219  1.00  0.00     0.158 A 
ATOM     20  C   UNL     1       5.128   1.468   0.000  1.00  0.00     0.160 A 
BRANCH  13  21
ATOM     21  O   UNL     1       0.088   0.299   0.772  1.00  0.00    -0.507 OA
ATOM     22  H   UNL     1       0.191   1.261   0.667  1.00  0.00     0.293 HD
ENDBRANCH  13  21
BRANCH  19  23
ATOM     23  O   UNL     1       4.265   3.712   0.245  1.00  0.00    -0.504 OA
ATOM     24  H   UNL     1       3.432   4.174   0.432  1.00  0.00     0.293 HD
ENDBRANCH  19  23
BRANCH  20  25
ATOM     25  O   UNL     1       6.450   1.758  -0.208  1.00  0.00    -0.493 OA
ATOM     26  C   UNL     1       6.857   3.118  -0.192  1.00  0.00     0.278 C 
ENDBRANCH  20  25
ENDBRANCH  11  12
ENDBRANCH   6  11
BRANCH   3  27
ATOM     27  C   UNL     1      -4.694  -0.974   0.735  1.00  0.00     0.393 C 
BRANCH  27  28
ATOM     28  C   UNL     1      -4.628   0.498   0.393  1.00  0.00     0.018 A 
ATOM     29  C   UNL     1      -5.705   1.106  -0.271  1.00  0.00     0.010 A 
ATOM     30  C   UNL     1      -3.527   1.296   0.751  1.00  0.00     0.030 A 
ATOM     31  C   UNL     1      -5.667   2.466  -0.596  1.00  0.00     0.002 A 
ATOM     32  C   UNL     1      -3.489   2.650   0.411  1.00  0.00     0.041 A 
ATOM     33  C   UNL     1      -4.555   3.237  -0.260  1.00  0.00     0.020 A 
ATOM     34  Cl  UNL     1      -2.102   3.581   0.820  1.00  0.00    -0.084 Cl
ENDBRANCH  27  28
ENDBRANCH   3  27
TORSDOF 9
