REMARK SMILES COc1cc2c(cc1OC)S[C@H](C(=O)CCc1cc[n+](Cc3coc([N+](=O)[O-])c3)cc1)C2
REMARK SMILES IDX 16 1 15 2 13 3 14 4 12 5 3 6 4 7 8 8 5 9 7 10 6 11 32 12
REMARK SMILES IDX 11 13 2 14 1 15 9 16 10 17 17 18 18 19 31 20 19 21 30 22
REMARK SMILES IDX 20 23 21 24 22 25 23 26 29 27 24 28 25 29 26 30 27 31 28 32
REMARK H PARENT
ROOT
ATOM      1  C   UNL     1       1.249  -1.199   0.003  1.00  0.00     0.044 C 
ENDROOT
BRANCH   1   2
ATOM      2  C   UNL     1       0.245  -0.066  -0.162  1.00  0.00     0.081 C 
BRANCH   2   3
ATOM      3  C   UNL     1      -1.165  -0.503  -0.000  1.00  0.00     0.146 C 
ATOM      4  O   UNL     1      -1.506  -1.645   0.240  1.00  0.00    -0.298 OA
BRANCH   3   5
ATOM      5  C   UNL     1      -2.182   0.599  -0.150  1.00  0.00     0.123 C 
ATOM      6  C   UNL     1      -7.010   0.178   0.092  1.00  0.00     0.161 A 
ATOM      7  C   UNL     1      -5.869   0.250   0.843  1.00  0.00     0.055 A 
ATOM      8  C   UNL     1      -7.044   0.194  -1.293  1.00  0.00     0.161 A 
ATOM      9  C   UNL     1      -4.632   0.349   0.152  1.00  0.00    -0.029 A 
ATOM     10  C   UNL     1      -5.837   0.290  -1.952  1.00  0.00     0.065 A 
ATOM     11  C   UNL     1      -4.653   0.367  -1.204  1.00  0.00     0.015 A 
ATOM     12  C   UNL     1      -3.320   0.425   0.778  1.00  0.00     0.059 C 
ATOM     13  S   UNL     1      -2.974   0.544  -1.767  1.00  0.00    -0.114 SA
BRANCH   6  14
ATOM     14  O   UNL     1      -8.233   0.081   0.735  1.00  0.00    -0.493 OA
ATOM     15  C   UNL     1      -8.363   0.052   2.123  1.00  0.00     0.278 C 
ENDBRANCH   6  14
BRANCH   8  16
ATOM     16  O   UNL     1      -8.270   0.114  -1.909  1.00  0.00    -0.493 OA
ATOM     17  C   UNL     1      -8.367   0.115  -3.318  1.00  0.00     0.278 C 
ENDBRANCH   8  16
ENDBRANCH   3   5
ENDBRANCH   2   3
ENDBRANCH   1   2
BRANCH   1  18
ATOM     18  C   UNL     1       2.611  -0.535  -0.110  1.00  0.00    -0.036 A 
ATOM     19  C   UNL     1       3.300  -0.434  -1.285  1.00  0.00     0.074 A 
ATOM     20  C   UNL     1       3.053   0.021   1.095  1.00  0.00     0.074 A 
ATOM     21  C   UNL     1       4.502   0.272  -1.237  1.00  0.00     0.308 A 
ATOM     22  C   UNL     1       4.250   0.705   1.062  1.00  0.00     0.308 A 
ATOM     23  N   UNL     1       4.962   0.828  -0.089  1.00  0.00    -0.201 N 
BRANCH  23  24
ATOM     24  C   UNL     1       6.163   1.606  -0.024  1.00  0.00     0.397 C 
BRANCH  24  25
ATOM     25  C   UNL     1       7.395   0.881   0.278  1.00  0.00     0.063 A 
ATOM     26  C   UNL     1       8.243   0.385  -0.719  1.00  0.00     0.213 A 
ATOM     27  C   UNL     1       8.002   0.558   1.477  1.00  0.00     0.143 A 
ATOM     28  O   UNL     1       9.279  -0.191  -0.170  1.00  0.00    -0.409 OA
ATOM     29  C   UNL     1       9.177  -0.110   1.146  1.00  0.00     0.433 A 
BRANCH  29  30
ATOM     30  N   UNL     1      10.129  -0.630   2.074  1.00  0.00     0.102 N 
ATOM     31  O   UNL     1      11.165  -1.203   1.622  1.00  0.00    -0.256 OA
ATOM     32  O   UNL     1       9.946  -0.512   3.437  1.00  0.00    -0.256 OA
ENDBRANCH  29  30
ENDBRANCH  24  25
ENDBRANCH  23  24
ENDBRANCH   1  18
TORSDOF 9
