REMARK SMILES COc1ccccc1C(=O)Nc1ccc2c(c1)CN(C(=O)c1cccc(Cl)c1)C(=O)C2
REMARK SMILES IDX 12 1 13 2 14 3 15 4 16 5 17 6 18 7 19 8 29 9 30 10 31 11
REMARK SMILES IDX 11 12 9 13 10 14 8 16 3 17 4 18 5 19 7 20 6 21 2 22 1 23
REMARK SMILES IDX 20 24 21 25 22 26 23 27 28 28 24 29 26 30 25 31 27 32
REMARK H PARENT 11 15
ROOT
ATOM      1  C   UNL     1       1.363  -0.717   0.923  1.00  0.00     0.041 A 
ATOM      2  C   UNL     1       0.891  -1.751   1.732  1.00  0.00     0.026 A 
ATOM      3  C   UNL     1      -0.444  -1.774   2.153  1.00  0.00     0.007 A 
ATOM      4  C   UNL     1      -1.326  -0.768   1.754  1.00  0.00    -0.033 A 
ATOM      5  C   UNL     1      -0.863   0.272   0.946  1.00  0.00    -0.022 A 
ATOM      6  C   UNL     1       0.478   0.298   0.539  1.00  0.00     0.032 A 
ATOM      7  C   UNL     1      -1.827   1.365   0.584  1.00  0.00     0.164 C 
ATOM      8  N   UNL     1      -3.163   0.843   0.341  1.00  0.00    -0.274 N 
ATOM      9  C   UNL     1      -3.718  -0.002   1.303  1.00  0.00     0.234 C 
ATOM     10  O   UNL     1      -4.931  -0.178   1.442  1.00  0.00    -0.274 OA
ATOM     11  C   UNL     1      -2.754  -0.741   2.224  1.00  0.00     0.136 C 
ENDROOT
BRANCH   1  12
ATOM     12  N   UNL     1       2.690  -0.617   0.463  1.00  0.00    -0.322 N 
ATOM     13  C   UNL     1       3.746  -1.476   0.692  1.00  0.00     0.259 C 
ATOM     14  O   UNL     1       3.684  -2.504   1.362  1.00  0.00    -0.269 OA
ATOM     15  H   UNL     1       2.904   0.188  -0.117  1.00  0.00     0.170 HD
BRANCH  13  16
ATOM     16  C   UNL     1       5.068  -1.108   0.064  1.00  0.00     0.082 A 
ATOM     17  C   UNL     1       5.297   0.029  -0.745  1.00  0.00     0.131 A 
ATOM     18  C   UNL     1       6.583   0.249  -1.264  1.00  0.00     0.047 A 
ATOM     19  C   UNL     1       7.631  -0.635  -0.994  1.00  0.00     0.004 A 
ATOM     20  C   UNL     1       6.140  -1.986   0.324  1.00  0.00     0.018 A 
ATOM     21  C   UNL     1       7.410  -1.753  -0.200  1.00  0.00     0.001 A 
BRANCH  17  22
ATOM     22  O   UNL     1       4.239   0.871  -0.985  1.00  0.00    -0.496 OA
ATOM     23  C   UNL     1       4.465   2.009  -1.812  1.00  0.00     0.278 C 
ENDBRANCH  17  22
ENDBRANCH  13  16
ENDBRANCH   1  12
BRANCH   8  24
ATOM     24  C   UNL     1      -3.974   1.655  -0.455  1.00  0.00     0.260 C 
ATOM     25  O   UNL     1      -3.746   2.851  -0.637  1.00  0.00    -0.269 OA
BRANCH  24  26
ATOM     26  C   UNL     1      -5.152   1.049  -1.134  1.00  0.00     0.041 A 
ATOM     27  C   UNL     1      -5.114  -0.263  -1.630  1.00  0.00     0.014 A 
ATOM     28  C   UNL     1      -6.288   1.841  -1.338  1.00  0.00     0.034 A 
ATOM     29  C   UNL     1      -6.222  -0.789  -2.296  1.00  0.00     0.002 A 
ATOM     30  C   UNL     1      -7.388   1.306  -2.004  1.00  0.00     0.041 A 
ATOM     31  C   UNL     1      -7.362  -0.004  -2.481  1.00  0.00     0.020 A 
ATOM     32  Cl  UNL     1      -8.791   2.272  -2.248  1.00  0.00    -0.084 Cl
ENDBRANCH  24  26
ENDBRANCH   8  24
TORSDOF 5
