REMARK SMILES CCOc1cc2c(cc1OCC)C(O)=C(C)C2
REMARK SMILES IDX 13 1 15 2 16 3 17 4 6 5 5 6 4 7 9 8 8 9 7 10 14 11 10 13
REMARK SMILES IDX 11 14 12 15 3 16 2 17 1 18
REMARK H PARENT 14 12
ROOT
ATOM      1  C   UNL     1       2.934   1.105  -0.121  1.00  0.00     0.122 C 
ATOM      2  C   UNL     1       3.778   0.223  -0.679  1.00  0.00    -0.026 C 
ATOM      3  C   UNL     1       5.252   0.341  -0.823  1.00  0.00     0.044 C 
ATOM      4  C   UNL     1       3.046  -0.997  -1.189  1.00  0.00     0.071 C 
ATOM      5  C   UNL     1       1.629  -0.663  -0.823  1.00  0.00    -0.029 A 
ATOM      6  C   UNL     1       0.487  -1.413  -1.036  1.00  0.00     0.055 A 
ATOM      7  C   UNL     1      -0.738  -0.901  -0.593  1.00  0.00     0.161 A 
ATOM      8  C   UNL     1      -0.816   0.378   0.013  1.00  0.00     0.161 A 
ATOM      9  C   UNL     1       0.359   1.117   0.225  1.00  0.00     0.062 A 
ATOM     10  C   UNL     1       1.573   0.587  -0.193  1.00  0.00     0.024 A 
ENDROOT
BRANCH   1  11
ATOM     11  O   UNL     1       3.259   2.302   0.434  1.00  0.00    -0.507 OA
ATOM     12  H   UNL     1       2.448   2.718   0.763  1.00  0.00     0.293 HD
ENDBRANCH   1  11
BRANCH   8  13
ATOM     13  O   UNL     1      -2.068   0.826   0.349  1.00  0.00    -0.490 OA
BRANCH  13  14
ATOM     14  C   UNL     1      -2.205   2.176   0.783  1.00  0.00     0.226 C 
ATOM     15  C   UNL     1      -3.685   2.455   0.976  1.00  0.00     0.049 C 
ENDBRANCH  13  14
ENDBRANCH   8  13
BRANCH   7  16
ATOM     16  O   UNL     1      -1.814  -1.711  -0.863  1.00  0.00    -0.490 OA
BRANCH  16  17
ATOM     17  C   UNL     1      -2.706  -1.897   0.239  1.00  0.00     0.226 C 
ATOM     18  C   UNL     1      -3.306  -3.287   0.121  1.00  0.00     0.049 C 
ENDBRANCH  16  17
ENDBRANCH   7  16
TORSDOF 5
