REMARK SMILES Nc1ccc2c(c1)C(=O)N(CC[C@H]1CC[N@@H+](Cc3ccccc3)CC1)C2=O
REMARK SMILES IDX 12 1 13 2 15 3 16 4 14 5 24 6 25 7 17 9 18 10 19 11 23 12
REMARK SMILES IDX 20 13 22 14 21 15 11 16 10 17 8 18 26 19 6 20 5 21 7 22 4 23
REMARK SMILES IDX 2 24 3 25 9 26 27 27 1 28
REMARK H PARENT 16 8 1 29 1 30
ROOT
ATOM      1  C   UNL     1       0.768  -1.813  -1.378  1.00  0.00     0.026 C 
ENDROOT
BRANCH   1   2
ATOM      2  C   UNL     1      -0.625  -1.754  -2.042  1.00  0.00     0.002 C 
ATOM      3  C   UNL     1      -1.673   0.113  -0.638  1.00  0.00     0.262 C 
ATOM      4  N   UNL     1      -2.629  -0.899  -0.046  1.00  0.00    -0.331 N 
ATOM      5  C   UNL     1      -1.249  -0.348  -2.029  1.00  0.00     0.065 C 
ATOM      6  C   UNL     1      -2.034  -2.282   0.025  1.00  0.00     0.262 C 
ATOM      7  C   UNL     1      -1.599  -2.733  -1.365  1.00  0.00     0.065 C 
ATOM      8  H   UNL     1      -3.445  -0.938  -0.669  1.00  0.00     0.348 HD
BRANCH   4   9
ATOM      9  C   UNL     1      -3.160  -0.461   1.305  1.00  0.00     0.299 C 
BRANCH   9  10
ATOM     10  C   UNL     1      -4.105   0.707   1.215  1.00  0.00     0.006 A 
ATOM     11  C   UNL     1      -5.407   0.531   0.721  1.00  0.00     0.009 A 
ATOM     12  C   UNL     1      -3.691   1.990   1.602  1.00  0.00     0.009 A 
ATOM     13  C   UNL     1      -6.274   1.620   0.613  1.00  0.00     0.001 A 
ATOM     14  C   UNL     1      -4.561   3.076   1.491  1.00  0.00     0.001 A 
ATOM     15  C   UNL     1      -5.850   2.890   0.996  1.00  0.00     0.000 A 
ENDBRANCH   9  10
ENDBRANCH   4   9
ENDBRANCH   1   2
BRANCH   1  16
ATOM     16  C   UNL     1       1.855  -1.056  -2.157  1.00  0.00     0.129 C 
BRANCH  16  17
ATOM     17  N   UNL     1       2.824  -0.458  -1.262  1.00  0.00    -0.274 N 
ATOM     18  C   UNL     1       4.057  -0.986  -0.990  1.00  0.00     0.261 C 
ATOM     19  C   UNL     1       2.560   0.642  -0.491  1.00  0.00     0.261 C 
ATOM     20  C   UNL     1       4.685  -0.088  -0.022  1.00  0.00     0.055 A 
ATOM     21  C   UNL     1       3.773   0.907   0.281  1.00  0.00     0.053 A 
ATOM     22  C   UNL     1       5.930  -0.150   0.574  1.00  0.00     0.040 A 
ATOM     23  C   UNL     1       4.054   1.893   1.202  1.00  0.00     0.017 A 
ATOM     24  C   UNL     1       6.271   0.865   1.475  1.00  0.00     0.032 A 
ATOM     25  C   UNL     1       5.314   1.852   1.812  1.00  0.00     0.026 A 
ATOM     26  O   UNL     1       4.558  -2.006  -1.418  1.00  0.00    -0.269 OA
ATOM     27  O   UNL     1       1.512   1.257  -0.393  1.00  0.00    -0.269 OA
BRANCH  24  28
ATOM     28  N   UNL     1       7.459   0.778   2.205  1.00  0.00    -0.399 N 
ATOM     29  H   UNL     1       7.787   1.657   2.595  1.00  0.00     0.156 HD
ATOM     30  H   UNL     1       8.207   0.266   1.745  1.00  0.00     0.156 HD
ENDBRANCH  24  28
ENDBRANCH  16  17
ENDBRANCH   1  16
TORSDOF 6
