REMARK SMILES COc1ccccc1C(=O)Nc1ccc2c(c1)CN(C(=O)c1ccccc1OC)C(=O)C2
REMARK SMILES IDX 12 1 13 2 14 3 15 4 16 5 17 6 18 7 19 8 30 9 31 10 32 11
REMARK SMILES IDX 11 12 9 13 10 14 8 16 3 17 4 18 5 19 7 20 6 21 2 22 1 23
REMARK SMILES IDX 20 24 21 25 22 26 23 27 27 28 24 29 26 30 25 31 28 32 29 33
REMARK H PARENT 11 15
ROOT
ATOM      1  C   UNL     1       1.672  -0.382  -1.477  1.00  0.00     0.041 A 
ATOM      2  C   UNL     1       1.515  -0.676  -2.831  1.00  0.00     0.026 A 
ATOM      3  C   UNL     1       0.239  -0.780  -3.395  1.00  0.00     0.007 A 
ATOM      4  C   UNL     1      -0.898  -0.577  -2.610  1.00  0.00    -0.033 A 
ATOM      5  C   UNL     1      -0.753  -0.283  -1.251  1.00  0.00    -0.022 A 
ATOM      6  C   UNL     1       0.528  -0.192  -0.690  1.00  0.00     0.032 A 
ATOM      7  C   UNL     1      -1.997  -0.133  -0.422  1.00  0.00     0.164 C 
ATOM      8  N   UNL     1      -3.067   0.504  -1.178  1.00  0.00    -0.274 N 
ATOM      9  C   UNL     1      -3.377   0.029  -2.442  1.00  0.00     0.234 C 
ATOM     10  O   UNL     1      -4.495   0.121  -2.954  1.00  0.00    -0.274 OA
ATOM     11  C   UNL     1      -2.282  -0.727  -3.184  1.00  0.00     0.136 C 
ENDROOT
BRANCH   1  12
ATOM     12  N   UNL     1       2.919  -0.264  -0.832  1.00  0.00    -0.322 N 
ATOM     13  C   UNL     1       4.181  -0.413  -1.372  1.00  0.00     0.259 C 
ATOM     14  O   UNL     1       4.419  -0.694  -2.543  1.00  0.00    -0.269 OA
ATOM     15  H   UNL     1       2.894  -0.031   0.155  1.00  0.00     0.170 HD
BRANCH  13  16
ATOM     16  C   UNL     1       5.346  -0.221  -0.431  1.00  0.00     0.082 A 
ATOM     17  C   UNL     1       5.245   0.198   0.914  1.00  0.00     0.131 A 
ATOM     18  C   UNL     1       6.415   0.329   1.679  1.00  0.00     0.047 A 
ATOM     19  C   UNL     1       7.670   0.061   1.126  1.00  0.00     0.004 A 
ATOM     20  C   UNL     1       6.622  -0.483  -0.969  1.00  0.00     0.018 A 
ATOM     21  C   UNL     1       7.775  -0.343  -0.197  1.00  0.00     0.001 A 
BRANCH  17  22
ATOM     22  O   UNL     1       3.991   0.449   1.418  1.00  0.00    -0.496 OA
ATOM     23  C   UNL     1       3.901   1.035   2.714  1.00  0.00     0.278 C 
ENDBRANCH  17  22
ENDBRANCH  13  16
ENDBRANCH   1  12
BRANCH   8  24
ATOM     24  C   UNL     1      -3.936   1.407  -0.585  1.00  0.00     0.264 C 
ATOM     25  O   UNL     1      -4.370   2.411  -1.148  1.00  0.00    -0.268 OA
BRANCH  24  26
ATOM     26  C   UNL     1      -4.257   1.242   0.854  1.00  0.00     0.082 A 
ATOM     27  C   UNL     1      -4.143   2.360   1.691  1.00  0.00     0.018 A 
ATOM     28  C   UNL     1      -4.710   0.026   1.380  1.00  0.00     0.131 A 
ATOM     29  C   UNL     1      -4.426   2.243   3.054  1.00  0.00     0.001 A 
ATOM     30  C   UNL     1      -4.969  -0.094   2.747  1.00  0.00     0.047 A 
ATOM     31  C   UNL     1      -4.829   1.016   3.581  1.00  0.00     0.004 A 
BRANCH  28  32
ATOM     32  O   UNL     1      -4.862  -1.092   0.603  1.00  0.00    -0.496 OA
ATOM     33  C   UNL     1      -6.156  -1.095  -0.010  1.00  0.00     0.278 C 
ENDBRANCH  28  32
ENDBRANCH  24  26
ENDBRANCH   8  24
TORSDOF 6
