REMARK SMILES COc1ccccc1C(=O)Nc1ccc2c(c1)CN(C(=O)c1ccccc1)C(=O)C2
REMARK SMILES IDX 9 1 10 2 11 3 8 5 3 6 4 7 5 8 7 9 6 10 2 11 1 12 12 13 13 14
REMARK SMILES IDX 17 15 14 16 16 17 15 18 18 19 30 20 19 21 28 22 29 23 20 24
REMARK SMILES IDX 21 25 22 26 23 27 27 28 24 29 26 30 25 31
REMARK H PARENT 11 4
ROOT
ATOM      1  C   UNL     1       3.679   1.758   0.553  1.00  0.00     0.259 C 
ATOM      2  O   UNL     1       3.595   2.850   1.108  1.00  0.00    -0.269 OA
ATOM      3  N   UNL     1       2.666   0.822   0.489  1.00  0.00    -0.322 N 
ATOM      4  H   UNL     1       2.894  -0.031  -0.010  1.00  0.00     0.170 HD
ENDROOT
BRANCH   1   5
ATOM      5  C   UNL     1       4.982   1.391  -0.116  1.00  0.00     0.082 A 
ATOM      6  C   UNL     1       5.227   0.190  -0.818  1.00  0.00     0.131 A 
ATOM      7  C   UNL     1       6.492  -0.021  -1.391  1.00  0.00     0.047 A 
ATOM      8  C   UNL     1       7.503   0.938  -1.277  1.00  0.00     0.004 A 
ATOM      9  C   UNL     1       6.016   2.344  -0.014  1.00  0.00     0.018 A 
ATOM     10  C   UNL     1       7.266   2.120  -0.590  1.00  0.00     0.001 A 
BRANCH   6  11
ATOM     11  O   UNL     1       4.205  -0.724  -0.905  1.00  0.00    -0.496 OA
ATOM     12  C   UNL     1       4.439  -1.919  -1.645  1.00  0.00     0.278 C 
ENDBRANCH   6  11
ENDBRANCH   1   5
BRANCH   3  13
ATOM     13  C   UNL     1       1.364   0.903   1.022  1.00  0.00     0.041 A 
ATOM     14  C   UNL     1       0.877   1.998   1.737  1.00  0.00     0.026 A 
ATOM     15  C   UNL     1       0.522  -0.197   0.813  1.00  0.00     0.032 A 
ATOM     16  C   UNL     1      -0.429   1.997   2.238  1.00  0.00     0.007 A 
ATOM     17  C   UNL     1      -0.792  -0.196   1.300  1.00  0.00    -0.022 A 
ATOM     18  C   UNL     1      -1.270   0.905   2.014  1.00  0.00    -0.033 A 
ATOM     19  C   UNL     1      -1.705  -1.375   1.127  1.00  0.00     0.164 C 
ATOM     20  C   UNL     1      -2.664   0.855   2.575  1.00  0.00     0.136 C 
ATOM     21  N   UNL     1      -3.083  -0.959   0.916  1.00  0.00    -0.274 N 
ATOM     22  C   UNL     1      -3.632  -0.048   1.818  1.00  0.00     0.234 C 
ATOM     23  O   UNL     1      -4.841   0.064   2.032  1.00  0.00    -0.274 OA
BRANCH  21  24
ATOM     24  C   UNL     1      -3.888  -1.903   0.276  1.00  0.00     0.260 C 
ATOM     25  O   UNL     1      -3.603  -3.101   0.237  1.00  0.00    -0.269 OA
BRANCH  24  26
ATOM     26  C   UNL     1      -5.126  -1.440  -0.414  1.00  0.00     0.040 A 
ATOM     27  C   UNL     1      -5.193  -0.186  -1.036  1.00  0.00     0.014 A 
ATOM     28  C   UNL     1      -6.214  -2.318  -0.503  1.00  0.00     0.014 A 
ATOM     29  C   UNL     1      -6.354   0.196  -1.711  1.00  0.00     0.001 A 
ATOM     30  C   UNL     1      -7.372  -1.931  -1.179  1.00  0.00     0.001 A 
ATOM     31  C   UNL     1      -7.442  -0.675  -1.780  1.00  0.00     0.000 A 
ENDBRANCH  24  26
ENDBRANCH  21  24
ENDBRANCH   3  13
TORSDOF 5
