REMARK SMILES O=c1c2ccccc2nc(O)n1CC[C@H]1CC[N@@H+](Cc2ccccc2)CC1
REMARK SMILES IDX 13 1 12 2 10 3 9 4 8 5 2 6 7 7 3 8 6 9 4 10 5 11 1 12 11 13
REMARK SMILES IDX 14 15 15 16 16 17 27 18 17 19 26 20 18 21 19 23 20 24 21 25
REMARK SMILES IDX 25 26 22 27 24 28 23 29
REMARK H PARENT 11 14 18 22
ROOT
ATOM      1  C   UNL     1      -0.840  -1.849  -0.941  1.00  0.00     0.131 C 
ENDROOT
BRANCH   1   2
ATOM      2  N   UNL     1      -0.683  -3.291  -1.078  1.00  0.00    -0.262 N 
ATOM      3  C   UNL     1       0.317  -3.833  -1.840  1.00  0.00     0.297 A 
ATOM      4  N   UNL     1       0.553  -5.082  -2.021  1.00  0.00    -0.197 NA
ATOM      5  C   UNL     1      -0.303  -5.989  -1.377  1.00  0.00     0.081 A 
ATOM      6  C   UNL     1      -1.516  -4.119  -0.338  1.00  0.00     0.264 A 
ATOM      7  C   UNL     1      -0.113  -7.358  -1.577  1.00  0.00     0.029 A 
ATOM      8  C   UNL     1      -1.334  -5.571  -0.534  1.00  0.00     0.066 A 
ATOM      9  C   UNL     1      -0.940  -8.290  -0.944  1.00  0.00     0.002 A 
ATOM     10  C   UNL     1      -2.166  -6.495   0.107  1.00  0.00     0.016 A 
ATOM     11  C   UNL     1      -1.966  -7.859  -0.102  1.00  0.00     0.001 A 
ATOM     12  O   UNL     1      -2.350  -3.704   0.463  1.00  0.00    -0.268 OA
BRANCH   3  13
ATOM     13  O   UNL     1       1.141  -2.963  -2.448  1.00  0.00    -0.480 OA
ATOM     14  H   UNL     1       1.763  -3.507  -2.966  1.00  0.00     0.296 HD
ENDBRANCH   3  13
ENDBRANCH   1   2
BRANCH   1  15
ATOM     15  C   UNL     1       0.022  -1.308   0.208  1.00  0.00     0.026 C 
BRANCH  15  16
ATOM     16  C   UNL     1      -0.091   0.219   0.399  1.00  0.00     0.002 C 
ATOM     17  C   UNL     1       0.522   1.028  -0.757  1.00  0.00     0.065 C 
ATOM     18  C   UNL     1       0.561   0.654   1.724  1.00  0.00     0.065 C 
ATOM     19  C   UNL     1       2.046   0.960  -0.789  1.00  0.00     0.262 C 
ATOM     20  C   UNL     1       2.084   0.584   1.687  1.00  0.00     0.262 C 
ATOM     21  N   UNL     1       2.590   1.422   0.539  1.00  0.00    -0.331 N 
ATOM     22  H   UNL     1       2.222   2.369   0.690  1.00  0.00     0.348 HD
BRANCH  21  23
ATOM     23  C   UNL     1       4.098   1.601   0.543  1.00  0.00     0.299 C 
BRANCH  23  24
ATOM     24  C   UNL     1       4.908   0.353   0.317  1.00  0.00     0.006 A 
ATOM     25  C   UNL     1       5.303  -0.450   1.398  1.00  0.00     0.009 A 
ATOM     26  C   UNL     1       5.281  -0.031  -0.981  1.00  0.00     0.009 A 
ATOM     27  C   UNL     1       6.037  -1.618   1.183  1.00  0.00     0.001 A 
ATOM     28  C   UNL     1       6.015  -1.200  -1.192  1.00  0.00     0.001 A 
ATOM     29  C   UNL     1       6.389  -1.993  -0.111  1.00  0.00     0.000 A 
ENDBRANCH  23  24
ENDBRANCH  21  23
ENDBRANCH  15  16
ENDBRANCH   1  15
TORSDOF 6
