REMARK SMILES O=[N+]([O-])OCCC[NH2+]CCCCNc1c2c(nc3ccccc13)CCCC2
REMARK SMILES IDX 8 1 7 4 6 5 5 6 4 7 2 8 1 9 3 10 9 11 10 12 11 13 12 14
REMARK SMILES IDX 13 15 14 17 15 18 23 19 16 20 27 21 22 22 18 23 17 24 24 25
REMARK SMILES IDX 26 26 21 27 19 28 25 29 20 30
REMARK H PARENT 8 2 8 3 13 16
ROOT
ATOM      1  N   UNL     1       3.524   0.478  -0.434  1.00  0.00    -0.346 N 
ATOM      2  H   UNL     1       3.150   0.846  -1.321  1.00  0.00     0.346 HD
ATOM      3  H   UNL     1       3.038  -0.415  -0.269  1.00  0.00     0.346 HD
ENDROOT
BRANCH   1   4
ATOM      4  C   UNL     1       4.992   0.208  -0.580  1.00  0.00     0.262 C 
BRANCH   4   5
ATOM      5  C   UNL     1       5.207  -0.784  -1.719  1.00  0.00     0.089 C 
BRANCH   5   6
ATOM      6  C   UNL     1       6.691  -1.101  -1.923  1.00  0.00     0.214 C 
BRANCH   6   7
ATOM      7  O   UNL     1       7.192  -1.685  -0.725  1.00  0.00    -0.314 OA
BRANCH   7   8
ATOM      8  N   UNL     1       8.568  -2.029  -0.819  1.00  0.00     0.294 N 
ATOM      9  O   UNL     1       8.997  -2.525   0.218  1.00  0.00    -0.109 OA
ATOM     10  O   UNL     1       9.134  -1.769  -1.879  1.00  0.00    -0.109 OA
ENDBRANCH   7   8
ENDBRANCH   6   7
ENDBRANCH   5   6
ENDBRANCH   4   5
ENDBRANCH   1   4
BRANCH   1  11
ATOM     11  C   UNL     1       3.192   1.431   0.673  1.00  0.00     0.260 C 
BRANCH  11  12
ATOM     12  C   UNL     1       1.697   1.740   0.684  1.00  0.00     0.063 C 
BRANCH  12  13
ATOM     13  C   UNL     1       0.830   0.526   1.018  1.00  0.00     0.027 C 
BRANCH  13  14
ATOM     14  C   UNL     1      -0.656   0.890   1.086  1.00  0.00     0.113 C 
BRANCH  14  15
ATOM     15  N   UNL     1      -1.412  -0.348   1.290  1.00  0.00    -0.384 N 
ATOM     16  H   UNL     1      -1.345  -0.659   2.260  1.00  0.00     0.160 HD
BRANCH  15  17
ATOM     17  C   UNL     1      -2.800  -0.154   0.989  1.00  0.00     0.049 A 
ATOM     18  C   UNL     1      -3.248  -0.445  -0.316  1.00  0.00    -0.003 A 
ATOM     19  C   UNL     1      -3.700   0.402   1.944  1.00  0.00     0.024 A 
ATOM     20  C   UNL     1      -4.591  -0.207  -0.607  1.00  0.00     0.046 A 
ATOM     21  C   UNL     1      -2.339  -1.097  -1.330  1.00  0.00     0.039 C 
ATOM     22  C   UNL     1      -3.357   0.744   3.279  1.00  0.00     0.012 A 
ATOM     23  C   UNL     1      -5.027   0.619   1.521  1.00  0.00     0.073 A 
ATOM     24  N   UNL     1      -5.454   0.331   0.285  1.00  0.00    -0.252 NA
ATOM     25  C   UNL     1      -5.171  -0.487  -1.969  1.00  0.00     0.056 C 
ATOM     26  C   UNL     1      -2.881  -1.072  -2.759  1.00  0.00     0.005 C 
ATOM     27  C   UNL     1      -4.296   1.284   4.157  1.00  0.00     0.001 A 
ATOM     28  C   UNL     1      -5.944   1.159   2.412  1.00  0.00     0.029 A 
ATOM     29  C   UNL     1      -4.346  -1.480  -2.781  1.00  0.00     0.007 C 
ATOM     30  C   UNL     1      -5.595   1.494   3.721  1.00  0.00     0.002 A 
ENDBRANCH  15  17
ENDBRANCH  14  15
ENDBRANCH  13  14
ENDBRANCH  12  13
ENDBRANCH  11  12
ENDBRANCH   1  11
TORSDOF 11
