REMARK SMILES O=C(COc1ccc(Cl)cc1[N+](=O)[O-])NCC[N@H+]1CC[N@H+](Cc2ccccc2)CC1
REMARK SMILES IDX 15 1 2 2 1 3 16 5 17 6 18 7 29 8 21 9 30 10 20 11 19 12
REMARK SMILES IDX 22 15 23 16 24 17 28 18 25 19 27 20 26 21 3 22 4 23 5 24
REMARK SMILES IDX 6 25 11 26 7 27 10 28 8 29 9 30 12 31 13 32 14 33
REMARK H PARENT 15 4 21 13 18 14
ROOT
ATOM      1  N   UNL     1      -1.549  -2.791   1.429  1.00  0.00    -0.347 N 
ATOM      2  C   UNL     1      -0.843  -3.834   0.856  1.00  0.00     0.258 C 
ATOM      3  O   UNL     1      -0.462  -3.794  -0.310  1.00  0.00    -0.271 OA
ATOM      4  H   UNL     1      -1.975  -2.957   2.338  1.00  0.00     0.163 HD
ENDROOT
BRANCH   1   5
ATOM      5  C   UNL     1      -1.959  -1.601   0.688  1.00  0.00     0.177 C 
BRANCH   5   6
ATOM      6  C   UNL     1      -1.327  -0.310   1.256  1.00  0.00     0.284 C 
BRANCH   6   7
ATOM      7  N   UNL     1       0.128   0.004   0.815  1.00  0.00    -0.324 N 
ATOM      8  C   UNL     1       2.262   1.237   1.554  1.00  0.00     0.324 C 
ATOM      9  N   UNL     1       3.057  -0.036   1.343  1.00  0.00    -0.322 N 
ATOM     10  C   UNL     1       0.774   0.936   1.849  1.00  0.00     0.324 C 
ATOM     11  C   UNL     1       2.468  -0.873   0.220  1.00  0.00     0.324 C 
ATOM     12  C   UNL     1       0.987  -1.215   0.499  1.00  0.00     0.324 C 
ATOM     13  H   UNL     1       3.017  -0.610   2.211  1.00  0.00     0.348 HD
ATOM     14  H   UNL     1       0.025   0.522  -0.071  1.00  0.00     0.348 HD
BRANCH   9  15
ATOM     15  C   UNL     1       4.540   0.254   1.149  1.00  0.00     0.299 C 
BRANCH  15  16
ATOM     16  C   UNL     1       5.389  -0.985   1.167  1.00  0.00     0.006 A 
ATOM     17  C   UNL     1       5.636  -1.663   2.372  1.00  0.00     0.009 A 
ATOM     18  C   UNL     1       5.931  -1.496  -0.022  1.00  0.00     0.009 A 
ATOM     19  C   UNL     1       6.397  -2.832   2.382  1.00  0.00     0.001 A 
ATOM     20  C   UNL     1       6.691  -2.667  -0.007  1.00  0.00     0.001 A 
ATOM     21  C   UNL     1       6.920  -3.335   1.194  1.00  0.00     0.000 A 
ENDBRANCH  15  16
ENDBRANCH   9  15
ENDBRANCH   6   7
ENDBRANCH   5   6
ENDBRANCH   1   5
BRANCH   2  22
ATOM     22  C   UNL     1      -0.386  -4.901   1.841  1.00  0.00     0.329 C 
BRANCH  22  23
ATOM     23  O   UNL     1       0.764  -4.258   2.418  1.00  0.00    -0.477 OA
BRANCH  23  24
ATOM     24  C   UNL     1       1.104  -4.648   3.679  1.00  0.00     0.197 A 
ATOM     25  C   UNL     1       1.125  -5.977   4.092  1.00  0.00     0.055 A 
ATOM     26  C   UNL     1       1.533  -3.658   4.574  1.00  0.00     0.312 A 
ATOM     27  C   UNL     1       1.551  -6.289   5.391  1.00  0.00     0.025 A 
ATOM     28  C   UNL     1       1.957  -3.945   5.870  1.00  0.00     0.110 A 
ATOM     29  C   UNL     1       1.962  -5.278   6.268  1.00  0.00     0.048 A 
ATOM     30  Cl  UNL     1       2.479  -5.685   7.854  1.00  0.00    -0.084 Cl
BRANCH  26  31
ATOM     31  N   UNL     1       1.456  -2.281   4.150  1.00  0.00     0.066 N 
ATOM     32  O   UNL     1       2.450  -1.766   3.605  1.00  0.00    -0.258 OA
ATOM     33  O   UNL     1       0.363  -1.708   4.263  1.00  0.00    -0.258 OA
ENDBRANCH  26  31
ENDBRANCH  23  24
ENDBRANCH  22  23
ENDBRANCH   2  22
TORSDOF 9
