REMARK SMILES COc1ccc2c(c1)C[C@H](NS(=O)(=O)N(C)C)CC2
REMARK SMILES IDX 11 1 10 3 3 4 4 5 8 6 5 7 7 8 6 9 9 10 19 11 18 12 2 13 1 14
REMARK SMILES IDX 12 15 13 16 14 17 15 18 16 19 17 20
REMARK H PARENT 11 2
ROOT
ATOM      1  N   UNL     1      -2.340  -1.106   0.723  1.00  0.00    -0.199 NA
ATOM      2  H   UNL     1      -2.440  -1.516   1.653  1.00  0.00     0.142 HD
ENDROOT
BRANCH   1   3
ATOM      3  C   UNL     1      -0.934  -0.981   0.272  1.00  0.00     0.075 C 
ATOM      4  C   UNL     1       3.161   1.791   0.718  1.00  0.00     0.119 A 
ATOM      5  C   UNL     1       3.931   0.665   0.436  1.00  0.00     0.047 A 
ATOM      6  C   UNL     1       1.776   1.655   0.842  1.00  0.00     0.050 A 
ATOM      7  C   UNL     1       3.320  -0.584   0.288  1.00  0.00     0.008 A 
ATOM      8  C   UNL     1       1.149   0.409   0.684  1.00  0.00    -0.040 A 
ATOM      9  C   UNL     1       1.932  -0.727   0.423  1.00  0.00    -0.044 A 
ATOM     10  C   UNL     1      -0.347   0.311   0.858  1.00  0.00     0.056 C 
ATOM     11  C   UNL     1       1.312  -2.088   0.225  1.00  0.00     0.037 C 
ATOM     12  C   UNL     1      -0.118  -2.180   0.754  1.00  0.00     0.025 C 
BRANCH   4  13
ATOM     13  O   UNL     1       3.628   3.065   0.891  1.00  0.00    -0.497 OA
ATOM     14  C   UNL     1       5.033   3.253   0.787  1.00  0.00     0.278 C 
ENDBRANCH   4  13
ENDBRANCH   1   3
BRANCH   1  15
ATOM     15  S   UNL     1      -3.450  -1.830  -0.300  1.00  0.00     0.279 S 
ATOM     16  O   UNL     1      -4.536  -2.248   0.555  1.00  0.00    -0.195 OA
ATOM     17  O   UNL     1      -2.752  -2.763  -1.149  1.00  0.00    -0.195 OA
BRANCH  15  18
ATOM     18  N   UNL     1      -3.955  -0.510  -1.202  1.00  0.00    -0.195 NA
ATOM     19  C   UNL     1      -4.687   0.544  -0.482  1.00  0.00     0.125 C 
ATOM     20  C   UNL     1      -3.071   0.004  -2.254  1.00  0.00     0.125 C 
ENDBRANCH  15  18
ENDBRANCH   1  15
TORSDOF 4
