REMARK SMILES CC1=C[C@H]2Cc3nc4cc(Cl)ccc4c(N)c3[C@@H](C1)C2
REMARK SMILES IDX 1 1 2 2 3 3 4 4 5 5 6 6 7 7 8 8 9 9 10 10 11 11 12 12 13 13
REMARK SMILES IDX 14 14 15 15 17 16 18 17 19 18 20 19 16 20
REMARK H PARENT 16 21 16 22
ROOT
ATOM      1  C   UNL     1      -1.875   3.344  -1.312  1.00  0.00     0.039 C 
ATOM      2  C   UNL     1      -1.748   1.904  -0.909  1.00  0.00    -0.076 C 
ATOM      3  C   UNL     1      -2.022   0.894  -1.754  1.00  0.00    -0.024 C 
ATOM      4  C   UNL     1      -1.919  -0.564  -1.357  1.00  0.00     0.018 C 
ATOM      5  C   UNL     1      -0.592  -1.168  -1.838  1.00  0.00     0.064 C 
ATOM      6  C   UNL     1       0.598  -0.796  -0.980  1.00  0.00     0.047 A 
ATOM      7  N   UNL     1       1.804  -1.124  -1.499  1.00  0.00    -0.252 NA
ATOM      8  C   UNL     1       2.911  -0.841  -0.802  1.00  0.00     0.074 A 
ATOM      9  C   UNL     1       4.131  -1.149  -1.385  1.00  0.00     0.049 A 
ATOM     10  C   UNL     1       5.332  -0.867  -0.741  1.00  0.00     0.043 A 
ATOM     11  Cl  UNL     1       6.825  -1.261  -1.498  1.00  0.00    -0.084 Cl
ATOM     12  C   UNL     1       5.331  -0.264   0.508  1.00  0.00     0.021 A 
ATOM     13  C   UNL     1       4.114   0.049   1.113  1.00  0.00     0.014 A 
ATOM     14  C   UNL     1       2.881  -0.239   0.475  1.00  0.00     0.024 A 
ATOM     15  C   UNL     1       1.606   0.036   1.036  1.00  0.00     0.046 A 
ATOM     16  C   UNL     1       0.445  -0.204   0.278  1.00  0.00     0.001 A 
ATOM     17  C   UNL     1      -0.940   0.163   0.800  1.00  0.00     0.028 C 
ATOM     18  C   UNL     1      -1.277   1.645   0.508  1.00  0.00     0.039 C 
ATOM     19  C   UNL     1      -2.012  -0.730   0.163  1.00  0.00     0.017 C 
ENDROOT
BRANCH  15  20
ATOM     20  N   UNL     1       1.478   0.747   2.259  1.00  0.00    -0.398 N 
ATOM     21  H   UNL     1       1.475   1.749   2.078  1.00  0.00     0.156 HD
ATOM     22  H   UNL     1       2.220   0.526   2.916  1.00  0.00     0.156 HD
ENDBRANCH  15  20
TORSDOF 1
