REMARK SMILES COc1ccccc1[C@H](C)NS(N)(=O)=O
REMARK SMILES IDX 9 1 10 2 8 3 3 4 4 5 5 6 7 7 6 8 2 9 1 10 11 11 12 13 14 14
REMARK SMILES IDX 15 15 13 16
REMARK H PARENT 11 12 13 17 13 18
ROOT
ATOM      1  C   UNL     1       0.883  -0.800   0.012  1.00  0.00     0.101 C 
ATOM      2  C   UNL     1       1.056  -1.476   1.375  1.00  0.00     0.031 C 
ENDROOT
BRANCH   1   3
ATOM      3  C   UNL     1      -0.596  -0.566  -0.285  1.00  0.00     0.012 A 
ATOM      4  C   UNL     1      -1.381   0.363   0.433  1.00  0.00     0.123 A 
ATOM      5  C   UNL     1      -2.735   0.515   0.114  1.00  0.00     0.047 A 
ATOM      6  C   UNL     1      -3.315  -0.240  -0.908  1.00  0.00     0.004 A 
ATOM      7  C   UNL     1      -1.198  -1.315  -1.314  1.00  0.00     0.009 A 
ATOM      8  C   UNL     1      -2.548  -1.153  -1.622  1.00  0.00     0.001 A 
BRANCH   4   9
ATOM      9  O   UNL     1      -0.736   1.072   1.417  1.00  0.00    -0.496 OA
ATOM     10  C   UNL     1      -1.500   2.021   2.151  1.00  0.00     0.278 C 
ENDBRANCH   4   9
ENDBRANCH   1   3
BRANCH   1  11
ATOM     11  N   UNL     1       1.628   0.473  -0.056  1.00  0.00    -0.195 NA
ATOM     12  H   UNL     1       1.393   1.087   0.726  1.00  0.00     0.143 HD
BRANCH  11  13
ATOM     13  S   UNL     1       3.238   0.460  -0.404  1.00  0.00     0.274 S 
ATOM     14  O   UNL     1       3.706   1.821  -0.382  1.00  0.00    -0.195 OA
ATOM     15  O   UNL     1       3.906  -0.605   0.293  1.00  0.00    -0.195 OA
BRANCH  13  16
ATOM     16  N   UNL     1       3.144   0.028  -2.008  1.00  0.00    -0.216 NA
ATOM     17  H   UNL     1       4.076  -0.218  -2.340  1.00  0.00     0.138 HD
ATOM     18  H   UNL     1       2.770   0.820  -2.531  1.00  0.00     0.138 HD
ENDBRANCH  13  16
ENDBRANCH  11  13
ENDBRANCH   1  11
TORSDOF 5
