REMARK SMILES COc1cc2c(cc1OC)SC(=C(O)CCc1cc[n+](Cc3coc([N+](=O)[O-])c3)cc1)C2
REMARK SMILES IDX 16 1 15 2 13 3 14 4 12 6 32 7 11 8 5 9 6 10 4 11 7 12 3 13
REMARK SMILES IDX 8 14 2 15 1 16 9 17 10 18 17 19 18 20 31 21 19 22 30 23
REMARK SMILES IDX 20 24 21 25 22 26 23 27 29 28 24 29 25 30 26 31 27 32 28 33
REMARK H PARENT 14 5
ROOT
ATOM      1  C   UNL     1       1.113   1.058  -1.466  1.00  0.00     0.044 C 
ENDROOT
BRANCH   1   2
ATOM      2  C   UNL     1       0.202   0.226  -2.376  1.00  0.00     0.080 C 
BRANCH   2   3
ATOM      3  C   UNL     1      -1.165   0.857  -2.510  1.00  0.00     0.103 C 
BRANCH   3   4
ATOM      4  O   UNL     1      -1.313   1.766  -3.548  1.00  0.00    -0.511 OA
ATOM      5  H   UNL     1      -0.536   1.736  -4.132  1.00  0.00     0.293 HD
ENDBRANCH   3   4
BRANCH   3   6
ATOM      6  C   UNL     1      -2.224   0.600  -1.720  1.00  0.00     0.032 C 
ATOM      7  C   UNL     1      -3.579   1.259  -1.907  1.00  0.00     0.083 C 
ATOM      8  S   UNL     1      -2.179  -0.505  -0.355  1.00  0.00    -0.090 SA
ATOM      9  C   UNL     1      -4.479   0.741  -0.820  1.00  0.00    -0.025 A 
ATOM     10  C   UNL     1      -3.879  -0.176   0.043  1.00  0.00     0.020 A 
ATOM     11  C   UNL     1      -5.810   1.112  -0.643  1.00  0.00     0.055 A 
ATOM     12  C   UNL     1      -4.588  -0.742   1.094  1.00  0.00     0.066 A 
ATOM     13  C   UNL     1      -6.541   0.552   0.412  1.00  0.00     0.161 A 
ATOM     14  C   UNL     1      -5.927  -0.380   1.285  1.00  0.00     0.161 A 
BRANCH  13  15
ATOM     15  O   UNL     1      -7.856   0.845   0.681  1.00  0.00    -0.493 OA
ATOM     16  C   UNL     1      -8.519   1.764  -0.174  1.00  0.00     0.278 C 
ENDBRANCH  13  15
BRANCH  14  17
ATOM     17  O   UNL     1      -6.724  -0.873   2.289  1.00  0.00    -0.493 OA
ATOM     18  C   UNL     1      -6.171  -1.849   3.159  1.00  0.00     0.278 C 
ENDBRANCH  14  17
ENDBRANCH   3   6
ENDBRANCH   2   3
ENDBRANCH   1   2
BRANCH   1  19
ATOM     19  C   UNL     1       2.364   0.303  -1.076  1.00  0.00    -0.036 A 
ATOM     20  C   UNL     1       3.555   0.462  -1.783  1.00  0.00     0.074 A 
ATOM     21  C   UNL     1       2.341  -0.585  -0.000  1.00  0.00     0.074 A 
ATOM     22  C   UNL     1       4.685  -0.250  -1.397  1.00  0.00     0.308 A 
ATOM     23  C   UNL     1       3.494  -1.278   0.351  1.00  0.00     0.308 A 
ATOM     24  N   UNL     1       4.642  -1.100  -0.343  1.00  0.00    -0.201 N 
BRANCH  24  25
ATOM     25  C   UNL     1       5.863  -1.848   0.047  1.00  0.00     0.397 C 
BRANCH  25  26
ATOM     26  C   UNL     1       6.782  -0.967   0.823  1.00  0.00     0.063 A 
ATOM     27  C   UNL     1       8.028  -0.511   0.423  1.00  0.00     0.213 A 
ATOM     28  C   UNL     1       6.582  -0.424   2.132  1.00  0.00     0.143 A 
ATOM     29  O   UNL     1       8.588   0.279   1.377  1.00  0.00    -0.409 OA
ATOM     30  C   UNL     1       7.706   0.320   2.408  1.00  0.00     0.433 A 
BRANCH  30  31
ATOM     31  N   UNL     1       8.077   1.099   3.548  1.00  0.00     0.102 N 
ATOM     32  O   UNL     1       7.247   1.130   4.467  1.00  0.00    -0.256 OA
ATOM     33  O   UNL     1       9.169   1.675   3.525  1.00  0.00    -0.256 OA
ENDBRANCH  30  31
ENDBRANCH  25  26
ENDBRANCH  24  25
ENDBRANCH   1  19
TORSDOF 10
