REMARK SMILES CCC[C@H](C)n1cc(C(=O)C(F)(F)F)cn1
REMARK SMILES IDX 6 1 7 2 8 3 15 4 16 5 4 6 5 7 3 8 2 9 1 10 9 11 10 12 11 13
REMARK SMILES IDX 12 14 13 15 14 16
REMARK H PARENT
ROOT
ATOM      1  N   UNL     1       0.343  -0.562  -0.875  1.00  0.00    -0.269 N 
ATOM      2  C   UNL     1       0.932  -0.542   0.357  1.00  0.00     0.121 A 
ATOM      3  C   UNL     1       2.185   0.019   0.193  1.00  0.00     0.065 A 
ATOM      4  C   UNL     1       2.248   0.304  -1.188  1.00  0.00     0.147 A 
ATOM      5  N   UNL     1       1.135  -0.045  -1.836  1.00  0.00    -0.180 NA
ENDROOT
BRANCH   1   6
ATOM      6  C   UNL     1      -0.986  -1.050  -1.238  1.00  0.00     0.104 C 
ATOM      7  C   UNL     1      -1.386  -2.322  -0.486  1.00  0.00     0.033 C 
BRANCH   6   8
ATOM      8  C   UNL     1      -2.053   0.060  -1.168  1.00  0.00     0.027 C 
BRANCH   8   9
ATOM      9  C   UNL     1      -2.393   0.555   0.241  1.00  0.00    -0.001 C 
ATOM     10  C   UNL     1      -3.452   1.647   0.200  1.00  0.00     0.004 C 
ENDBRANCH   8   9
ENDBRANCH   6   8
ENDBRANCH   1   6
BRANCH   3  11
ATOM     11  C   UNL     1       3.170   0.242   1.246  1.00  0.00     0.269 C 
ATOM     12  O   UNL     1       2.919  -0.080   2.410  1.00  0.00    -0.284 OA
BRANCH  11  13
ATOM     13  C   UNL     1       4.496   0.880   0.836  1.00  0.00     0.454 C 
ATOM     14  F   UNL     1       5.360   1.053   1.874  1.00  0.00    -0.163 F 
ATOM     15  F   UNL     1       5.162   0.136  -0.093  1.00  0.00    -0.163 F 
ATOM     16  F   UNL     1       4.324   2.111   0.275  1.00  0.00    -0.163 F 
ENDBRANCH  11  13
ENDBRANCH   3  11
TORSDOF 5
