REMARK SMILES CN(C)S(=O)(=O)N[C@H]1CCc2ccc(O)cc2C1
REMARK SMILES IDX 7 1 4 3 5 4 6 5 2 6 1 7 3 8 8 9 9 10 18 11 10 12 17 13 11 14
REMARK SMILES IDX 16 15 12 16 14 17 13 18 15 19
REMARK H PARENT 7 2 15 20
ROOT
ATOM      1  N   UNL     1      -0.645   1.133  -2.591  1.00  0.00    -0.199 NA
ATOM      2  H   UNL     1      -1.315   0.422  -2.297  1.00  0.00     0.142 HD
ENDROOT
BRANCH   1   3
ATOM      3  S   UNL     1      -1.503   2.519  -2.979  1.00  0.00     0.279 S 
ATOM      4  O   UNL     1      -2.526   2.667  -1.973  1.00  0.00    -0.195 OA
ATOM      5  O   UNL     1      -0.584   3.579  -3.310  1.00  0.00    -0.195 OA
BRANCH   3   6
ATOM      6  N   UNL     1      -2.228   1.966  -4.403  1.00  0.00    -0.195 NA
ATOM      7  C   UNL     1      -1.288   1.725  -5.521  1.00  0.00     0.125 C 
ATOM      8  C   UNL     1      -3.376   2.793  -4.834  1.00  0.00     0.125 C 
ENDBRANCH   3   6
ENDBRANCH   1   3
BRANCH   1   9
ATOM      9  C   UNL     1       0.488   1.288  -1.641  1.00  0.00     0.075 C 
ATOM     10  C   UNL     1      -0.012   1.439  -0.205  1.00  0.00     0.025 C 
ATOM     11  C   UNL     1       1.378   0.039  -1.753  1.00  0.00     0.056 C 
ATOM     12  C   UNL     1       1.164   1.650   0.747  1.00  0.00     0.037 C 
ATOM     13  C   UNL     1       2.409  -0.067  -0.657  1.00  0.00    -0.040 A 
ATOM     14  C   UNL     1       2.286   0.664   0.538  1.00  0.00    -0.044 A 
ATOM     15  C   UNL     1       3.482  -0.957  -0.813  1.00  0.00     0.050 A 
ATOM     16  C   UNL     1       3.261   0.518   1.539  1.00  0.00     0.008 A 
ATOM     17  C   UNL     1       4.430  -1.095   0.194  1.00  0.00     0.115 A 
ATOM     18  C   UNL     1       4.331  -0.362   1.369  1.00  0.00     0.046 A 
BRANCH  17  19
ATOM     19  O   UNL     1       5.455  -1.970  -0.014  1.00  0.00    -0.508 OA
ATOM     20  H   UNL     1       6.035  -1.956   0.764  1.00  0.00     0.293 HD
ENDBRANCH  17  19
ENDBRANCH   1   9
TORSDOF 4
