REMARK SMILES CCOC(=O)C1=CN(C)c2cccc(OC(=O)N(C)C)c2C1
REMARK SMILES IDX 6 1 7 2 8 3 9 4 10 5 11 6 12 7 13 8 14 9 21 10 22 11 4 12
REMARK SMILES IDX 5 13 3 14 2 15 1 16 15 17 16 18 18 19 17 20 19 21 20 22
REMARK H PARENT
ROOT
ATOM      1  C   UNL     1       1.723  -0.109   0.477  1.00  0.00     0.058 C 
ATOM      2  C   UNL     1       2.286  -1.296   0.211  1.00  0.00     0.097 C 
ATOM      3  N   UNL     1       1.584  -2.450  -0.103  1.00  0.00    -0.350 N 
ATOM      4  C   UNL     1       2.273  -3.707  -0.396  1.00  0.00     0.149 C 
ATOM      5  C   UNL     1       0.166  -2.429  -0.160  1.00  0.00     0.048 A 
ATOM      6  C   UNL     1      -0.606  -3.567  -0.464  1.00  0.00     0.027 A 
ATOM      7  C   UNL     1      -2.005  -3.521  -0.502  1.00  0.00     0.006 A 
ATOM      8  C   UNL     1      -2.671  -2.331  -0.242  1.00  0.00     0.048 A 
ATOM      9  C   UNL     1      -1.926  -1.190   0.040  1.00  0.00     0.138 A 
ATOM     10  C   UNL     1      -0.522  -1.220   0.103  1.00  0.00     0.023 A 
ATOM     11  C   UNL     1       0.234   0.048   0.447  1.00  0.00     0.086 C 
ENDROOT
BRANCH   1  12
ATOM     12  C   UNL     1       2.499   1.107   0.813  1.00  0.00     0.335 C 
ATOM     13  O   UNL     1       1.972   2.178   1.080  1.00  0.00    -0.247 OA
BRANCH  12  14
ATOM     14  O   UNL     1       3.835   0.872   0.780  1.00  0.00    -0.463 OA
BRANCH  14  15
ATOM     15  C   UNL     1       4.675   1.993   1.090  1.00  0.00     0.230 C 
ATOM     16  C   UNL     1       4.942   2.808  -0.161  1.00  0.00     0.049 C 
ENDBRANCH  14  15
ENDBRANCH  12  14
ENDBRANCH   1  12
BRANCH   9  17
ATOM     17  O   UNL     1      -2.592   0.004   0.356  1.00  0.00    -0.410 OA
BRANCH  17  18
ATOM     18  C   UNL     1      -3.216   0.649  -0.710  1.00  0.00     0.414 C 
ATOM     19  N   UNL     1      -3.822   1.839  -0.326  1.00  0.00    -0.314 N 
ATOM     20  O   UNL     1      -3.236   0.220  -1.860  1.00  0.00    -0.224 OA
ATOM     21  C   UNL     1      -4.614   2.575  -1.292  1.00  0.00     0.150 C 
ATOM     22  C   UNL     1      -3.874   2.298   1.051  1.00  0.00     0.150 C 
ENDBRANCH  17  18
ENDBRANCH   9  17
TORSDOF 5
