REMARK SMILES COc1cc2c(cc1OC)S[C@@H](C(=O)CCc1cc[n+](Cc3ccc(F)cc3)cc1)C2
REMARK SMILES IDX 15 1 13 2 14 3 12 4 3 5 4 6 8 7 5 8 7 9 6 10 31 11 11 12
REMARK SMILES IDX 2 13 1 14 9 15 10 16 16 17 17 18 18 19 30 20 19 21 29 22
REMARK SMILES IDX 20 23 21 24 22 25 23 26 28 27 24 28 27 29 25 30 26 31
REMARK H PARENT
ROOT
ATOM      1  C   UNL     1       0.509   3.066   0.477  1.00  0.00     0.081 C 
ENDROOT
BRANCH   1   2
ATOM      2  C   UNL     1       0.729   2.763  -1.000  1.00  0.00     0.146 C 
ATOM      3  O   UNL     1       0.024   3.296  -1.862  1.00  0.00    -0.298 OA
BRANCH   2   4
ATOM      4  C   UNL     1       1.818   1.780  -1.395  1.00  0.00     0.123 C 
ATOM      5  C   UNL     1       5.692  -0.675   0.107  1.00  0.00     0.161 A 
ATOM      6  C   UNL     1       5.199   0.602  -0.185  1.00  0.00     0.055 A 
ATOM      7  C   UNL     1       4.821  -1.792   0.088  1.00  0.00     0.161 A 
ATOM      8  C   UNL     1       3.850   0.758  -0.497  1.00  0.00    -0.029 A 
ATOM      9  C   UNL     1       3.465  -1.619  -0.213  1.00  0.00     0.065 A 
ATOM     10  C   UNL     1       2.998  -0.345  -0.502  1.00  0.00     0.015 A 
ATOM     11  C   UNL     1       3.192   2.079  -0.783  1.00  0.00     0.059 C 
ATOM     12  S   UNL     1       1.329   0.087  -0.893  1.00  0.00    -0.114 SA
BRANCH   5  13
ATOM     13  O   UNL     1       7.000  -0.944   0.429  1.00  0.00    -0.493 OA
ATOM     14  C   UNL     1       7.931   0.127   0.375  1.00  0.00     0.278 C 
ENDBRANCH   5  13
BRANCH   7  15
ATOM     15  O   UNL     1       5.392  -3.002   0.398  1.00  0.00    -0.493 OA
ATOM     16  C   UNL     1       4.627  -4.175   0.160  1.00  0.00     0.278 C 
ENDBRANCH   7  15
ENDBRANCH   2   4
ENDBRANCH   1   2
BRANCH   1  17
ATOM     17  C   UNL     1      -0.973   3.232   0.817  1.00  0.00     0.044 C 
BRANCH  17  18
ATOM     18  C   UNL     1      -1.767   1.963   0.596  1.00  0.00    -0.036 A 
ATOM     19  C   UNL     1      -1.719   0.914   1.512  1.00  0.00     0.074 A 
ATOM     20  C   UNL     1      -2.526   1.799  -0.563  1.00  0.00     0.074 A 
ATOM     21  C   UNL     1      -2.412  -0.264   1.249  1.00  0.00     0.308 A 
ATOM     22  C   UNL     1      -3.201   0.606  -0.786  1.00  0.00     0.308 A 
ATOM     23  N   UNL     1      -3.137  -0.401   0.116  1.00  0.00    -0.201 N 
BRANCH  23  24
ATOM     24  C   UNL     1      -3.846  -1.674  -0.162  1.00  0.00     0.393 C 
BRANCH  24  25
ATOM     25  C   UNL     1      -5.342  -1.496  -0.079  1.00  0.00     0.017 A 
ATOM     26  C   UNL     1      -5.958  -1.131   1.131  1.00  0.00     0.013 A 
ATOM     27  C   UNL     1      -6.144  -1.700  -1.216  1.00  0.00     0.013 A 
ATOM     28  C   UNL     1      -7.343  -0.962   1.196  1.00  0.00     0.040 A 
ATOM     29  C   UNL     1      -7.528  -1.530  -1.145  1.00  0.00     0.040 A 
ATOM     30  C   UNL     1      -8.115  -1.161   0.059  1.00  0.00     0.123 A 
ATOM     31  F   UNL     1      -9.441  -0.997   0.124  1.00  0.00    -0.207 F 
ENDBRANCH  24  25
ENDBRANCH  23  24
ENDBRANCH  17  18
ENDBRANCH   1  17
TORSDOF 8
