REMARK SMILES C=C(O)c1c[n+](Cc2ccccc2C)ccc1C[C@@H]1CCc2cc(OC)ccc2C1=O
REMARK SMILES IDX 4 1 5 2 6 3 15 4 16 5 17 6 2 7 1 8 3 9 18 11 19 12 20 13
REMARK SMILES IDX 30 14 21 15 29 16 22 17 28 18 23 19 27 20 24 21 31 22 25 23
REMARK SMILES IDX 26 24 7 25 8 26 9 27 13 28 10 29 12 30 11 31 14 32
REMARK H PARENT 3 10
ROOT
ATOM      1  C   UNL     1      -0.683  -1.782  -2.746  1.00  0.00     0.083 A 
ATOM      2  C   UNL     1      -1.579  -2.833  -2.977  1.00  0.00     0.320 A 
ATOM      3  N   UNL     1      -1.233  -3.905  -3.724  1.00  0.00    -0.200 N 
ATOM      4  C   UNL     1       0.004  -3.997  -4.261  1.00  0.00     0.308 A 
ATOM      5  C   UNL     1       0.940  -2.993  -4.050  1.00  0.00     0.075 A 
ATOM      6  C   UNL     1       0.613  -1.868  -3.280  1.00  0.00    -0.024 A 
ENDROOT
BRANCH   1   7
ATOM      7  C   UNL     1      -1.176  -0.673  -1.920  1.00  0.00     0.121 C 
ATOM      8  C   UNL     1      -1.330   0.573  -2.381  1.00  0.00     0.059 C 
BRANCH   7   9
ATOM      9  O   UNL     1      -1.537  -1.042  -0.647  1.00  0.00    -0.508 OA
ATOM     10  H   UNL     1      -1.789  -0.241  -0.149  1.00  0.00     0.293 HD
ENDBRANCH   7   9
ENDBRANCH   1   7
BRANCH   6  11
ATOM     11  C   UNL     1       1.692  -0.826  -3.049  1.00  0.00     0.048 C 
BRANCH  11  12
ATOM     12  C   UNL     1       2.761  -1.245  -2.017  1.00  0.00     0.066 C 
ATOM     13  C   UNL     1       2.189  -1.318  -0.598  1.00  0.00     0.017 C 
ATOM     14  C   UNL     1       3.925  -0.259  -2.071  1.00  0.00     0.166 C 
ATOM     15  C   UNL     1       3.270  -1.704   0.406  1.00  0.00     0.037 C 
ATOM     16  C   UNL     1       4.762  -0.089  -0.853  1.00  0.00     0.021 A 
ATOM     17  C   UNL     1       4.446  -0.773   0.328  1.00  0.00    -0.033 A 
ATOM     18  C   UNL     1       5.875   0.759  -0.898  1.00  0.00     0.016 A 
ATOM     19  C   UNL     1       5.279  -0.612   1.445  1.00  0.00     0.050 A 
ATOM     20  C   UNL     1       6.687   0.921   0.228  1.00  0.00     0.047 A 
ATOM     21  C   UNL     1       6.394   0.233   1.404  1.00  0.00     0.119 A 
ATOM     22  O   UNL     1       4.216   0.345  -3.101  1.00  0.00    -0.294 OA
BRANCH  21  23
ATOM     23  O   UNL     1       7.103   0.294   2.571  1.00  0.00    -0.497 OA
ATOM     24  C   UNL     1       8.250   1.137   2.587  1.00  0.00     0.278 C 
ENDBRANCH  21  23
ENDBRANCH  11  12
ENDBRANCH   6  11
BRANCH   3  25
ATOM     25  C   UNL     1      -2.212  -5.002  -3.940  1.00  0.00     0.393 C 
BRANCH  25  26
ATOM     26  C   UNL     1      -2.595  -5.115  -5.397  1.00  0.00     0.020 A 
ATOM     27  C   UNL     1      -3.203  -4.009  -6.026  1.00  0.00     0.010 A 
ATOM     28  C   UNL     1      -2.376  -6.292  -6.146  1.00  0.00    -0.042 A 
ATOM     29  C   UNL     1      -3.564  -4.058  -7.371  1.00  0.00     0.001 A 
ATOM     30  C   UNL     1      -2.746  -6.320  -7.501  1.00  0.00     0.004 A 
ATOM     31  C   UNL     1      -3.332  -5.211  -8.109  1.00  0.00     0.000 A 
ATOM     32  C   UNL     1      -1.766  -7.533  -5.549  1.00  0.00     0.045 C 
ENDBRANCH  25  26
ENDBRANCH   3  25
TORSDOF 7
