REMARK SMILES c1ccc(C[N@H+]2CC[C@@H](CCc3noc4cc(N5CCOCC5)ccc34)CC2)cc1
REMARK SMILES IDX 10 1 9 2 6 3 28 4 7 5 27 6 8 7 5 9 4 10 3 11 29 12 2 13
REMARK SMILES IDX 30 14 1 15 11 16 12 17 13 18 26 19 14 20 25 21 15 22 24 23
REMARK SMILES IDX 16 24 17 25 18 26 19 27 23 28 20 29 22 30 21 31
REMARK H PARENT 6 8
ROOT
ATOM      1  C   UNL     1       4.644  -1.177  -6.811  1.00  0.00     0.010 C 
ENDROOT
BRANCH   1   2
ATOM      2  C   UNL     1       4.577  -1.648  -8.283  1.00  0.00     0.000 C 
ATOM      3  N   UNL     1       5.472   0.031 -10.540  1.00  0.00    -0.331 N 
ATOM      4  C   UNL     1       6.509  -0.613  -9.657  1.00  0.00     0.262 C 
ATOM      5  C   UNL     1       4.229   0.418  -9.783  1.00  0.00     0.262 C 
ATOM      6  C   UNL     1       5.931  -1.848  -8.974  1.00  0.00     0.065 C 
ATOM      7  C   UNL     1       3.615  -0.817  -9.148  1.00  0.00     0.065 C 
ATOM      8  H   UNL     1       5.203  -0.665 -11.247  1.00  0.00     0.348 HD
BRANCH   3   9
ATOM      9  C   UNL     1       6.022   1.214 -11.319  1.00  0.00     0.299 C 
BRANCH   9  10
ATOM     10  C   UNL     1       7.042   0.817 -12.351  1.00  0.00     0.006 A 
ATOM     11  C   UNL     1       8.402   1.104 -12.156  1.00  0.00     0.009 A 
ATOM     12  C   UNL     1       6.649   0.139 -13.516  1.00  0.00     0.009 A 
ATOM     13  C   UNL     1       9.348   0.711 -13.103  1.00  0.00     0.001 A 
ATOM     14  C   UNL     1       7.600  -0.252 -14.459  1.00  0.00     0.001 A 
ATOM     15  C   UNL     1       8.948   0.032 -14.252  1.00  0.00     0.000 A 
ENDBRANCH   9  10
ENDBRANCH   3   9
ENDBRANCH   1   2
BRANCH   1  16
ATOM     16  C   UNL     1       5.590  -0.023  -6.475  1.00  0.00     0.061 C 
BRANCH  16  17
ATOM     17  C   UNL     1       5.237   0.637  -5.189  1.00  0.00     0.091 A 
ATOM     18  N   UNL     1       4.484   1.746  -5.213  1.00  0.00    -0.084 NA
ATOM     19  C   UNL     1       5.576   0.261  -3.866  1.00  0.00     0.045 A 
ATOM     20  O   UNL     1       4.316   2.109  -3.885  1.00  0.00    -0.356 OA
ATOM     21  C   UNL     1       6.292  -0.758  -3.228  1.00  0.00     0.016 A 
ATOM     22  C   UNL     1       4.971   1.225  -3.085  1.00  0.00     0.169 A 
ATOM     23  C   UNL     1       6.363  -0.743  -1.820  1.00  0.00     0.027 A 
ATOM     24  C   UNL     1       5.030   1.260  -1.693  1.00  0.00     0.076 A 
ATOM     25  C   UNL     1       5.761   0.255  -1.029  1.00  0.00     0.041 A 
BRANCH  25  26
ATOM     26  N   UNL     1       5.815   0.256   0.366  1.00  0.00    -0.367 N 
ATOM     27  C   UNL     1       6.191   1.527   1.037  1.00  0.00     0.145 C 
ATOM     28  C   UNL     1       6.324  -0.910   1.123  1.00  0.00     0.145 C 
ATOM     29  C   UNL     1       7.712   1.574   1.265  1.00  0.00     0.181 C 
ATOM     30  C   UNL     1       7.838  -0.785   1.369  1.00  0.00     0.181 C 
ATOM     31  O   UNL     1       8.165   0.447   2.033  1.00  0.00    -0.378 OA
ENDBRANCH  25  26
ENDBRANCH  16  17
ENDBRANCH   1  16
TORSDOF 6
