REMARK SMILES O=C([O-])CCCC[C@@H]1CCSS1
REMARK SMILES IDX 5 1 4 2 2 3 1 4 3 5 6 6 7 7 8 8 9 9 12 10 10 11 11 12
REMARK H PARENT
ROOT
ATOM      1  C   UNL     1       2.167  -0.471   0.054  1.00  0.00     0.006 C 
ENDROOT
BRANCH   1   2
ATOM      2  C   UNL     1       2.523   0.847  -0.627  1.00  0.00     0.053 C 
BRANCH   2   3
ATOM      3  C   UNL     1       3.915   1.400  -0.304  1.00  0.00     0.041 C 
ATOM      4  O   UNL     1       4.582   0.779   0.568  1.00  0.00    -0.550 OA
ATOM      5  O   UNL     1       4.221   2.436  -0.962  1.00  0.00    -0.550 OA
ENDBRANCH   2   3
ENDBRANCH   1   2
BRANCH   1   6
ATOM      6  C   UNL     1       0.828  -1.055  -0.411  1.00  0.00     0.002 C 
BRANCH   6   7
ATOM      7  C   UNL     1      -0.377  -0.197  -0.004  1.00  0.00     0.015 C 
BRANCH   7   8
ATOM      8  C   UNL     1      -1.714  -0.750  -0.522  1.00  0.00     0.059 C 
ATOM      9  C   UNL     1      -2.872   0.234  -0.305  1.00  0.00     0.027 C 
ATOM     10  S   UNL     1      -2.229  -2.276   0.338  1.00  0.00    -0.091 SA
ATOM     11  C   UNL     1      -3.259   0.306   1.168  1.00  0.00     0.083 C 
ATOM     12  S   UNL     1      -3.417  -1.398   1.761  1.00  0.00    -0.094 SA
ENDBRANCH   7   8
ENDBRANCH   6   7
ENDBRANCH   1   6
TORSDOF 5
