REMARK SMILES C#CCNc1[nH]c(=NCCCC[C@H]2CC[N@H+](Cc3ccccc3)CC2)c(C#N)cc1C#N
REMARK SMILES IDX 9 1 8 2 7 3 6 4 5 5 30 6 26 7 29 8 4 10 3 12 2 13 1 14 31 15
REMARK SMILES IDX 32 16 27 17 28 18 10 19 11 20 12 21 13 22 25 23 14 24 24 25
REMARK SMILES IDX 15 26 16 27 17 29 18 30 19 31 23 32 20 33 22 34 21 35
REMARK H PARENT 6 9 4 11 16 28
ROOT
ATOM      1  C   UNL     1       2.402  -0.505  -1.327  1.00  0.00     0.144 C 
ENDROOT
BRANCH   1   2
ATOM      2  N   UNL     1       1.461  -0.731  -2.422  1.00  0.00    -0.267 NA
BRANCH   2   3
ATOM      3  C   UNL     1       1.927  -1.065  -3.585  1.00  0.00     0.144 A 
ATOM      4  N   UNL     1       3.260  -1.255  -3.894  1.00  0.00    -0.325 N 
ATOM      5  C   UNL     1       3.756  -1.669  -5.125  1.00  0.00     0.123 A 
ATOM      6  C   UNL     1       2.850  -1.877  -6.121  1.00  0.00     0.094 A 
ATOM      7  C   UNL     1       0.927  -1.266  -4.689  1.00  0.00     0.096 A 
ATOM      8  C   UNL     1       1.421  -1.654  -5.879  1.00  0.00     0.046 A 
ATOM      9  H   UNL     1       3.941  -1.235  -3.151  1.00  0.00     0.170 HD
BRANCH   5  10
ATOM     10  N   UNL     1       5.127  -1.832  -5.182  1.00  0.00    -0.360 N 
ATOM     11  H   UNL     1       5.627  -1.324  -4.458  1.00  0.00     0.163 HD
BRANCH  10  12
ATOM     12  C   UNL     1       5.986  -2.136  -6.318  1.00  0.00     0.204 C 
BRANCH  12  13
ATOM     13  C   UNL     1       7.385  -2.158  -5.866  1.00  0.00    -0.085 C 
ATOM     14  C   UNL     1       8.528  -2.177  -5.499  1.00  0.00     0.006 C 
ENDBRANCH  12  13
ENDBRANCH  10  12
ENDBRANCH   5  10
BRANCH   6  15
ATOM     15  C   UNL     1       3.200  -2.306  -7.435  1.00  0.00     0.103 C 
ATOM     16  N   UNL     1       3.460  -2.648  -8.513  1.00  0.00    -0.192 NA
ENDBRANCH   6  15
BRANCH   7  17
ATOM     17  C   UNL     1      -0.460  -1.062  -4.468  1.00  0.00     0.103 C 
ATOM     18  N   UNL     1      -1.601  -0.911  -4.305  1.00  0.00    -0.192 NA
ENDBRANCH   7  17
ENDBRANCH   2   3
ENDBRANCH   1   2
BRANCH   1  19
ATOM     19  C   UNL     1       1.647  -0.007  -0.093  1.00  0.00     0.024 C 
BRANCH  19  20
ATOM     20  C   UNL     1       0.981  -1.111   0.736  1.00  0.00     0.002 C 
BRANCH  20  21
ATOM     21  C   UNL     1      -0.163  -1.878   0.064  1.00  0.00     0.004 C 
BRANCH  21  22
ATOM     22  C   UNL     1      -1.342  -1.023  -0.439  1.00  0.00    -0.000 C 
ATOM     23  C   UNL     1      -2.392  -1.928  -1.101  1.00  0.00     0.065 C 
ATOM     24  C   UNL     1      -2.002  -0.202   0.676  1.00  0.00     0.065 C 
ATOM     25  C   UNL     1      -3.578  -1.126  -1.617  1.00  0.00     0.262 C 
ATOM     26  C   UNL     1      -3.209   0.579   0.169  1.00  0.00     0.262 C 
ATOM     27  N   UNL     1      -4.199  -0.362  -0.473  1.00  0.00    -0.331 N 
ATOM     28  H   UNL     1      -4.482  -1.042   0.242  1.00  0.00     0.348 HD
BRANCH  27  29
ATOM     29  C   UNL     1      -5.465   0.339  -0.918  1.00  0.00     0.299 C 
BRANCH  29  30
ATOM     30  C   UNL     1      -6.307   0.820   0.232  1.00  0.00     0.006 A 
ATOM     31  C   UNL     1      -7.013  -0.095   1.030  1.00  0.00     0.009 A 
ATOM     32  C   UNL     1      -6.385   2.188   0.536  1.00  0.00     0.009 A 
ATOM     33  C   UNL     1      -7.773   0.351   2.112  1.00  0.00     0.001 A 
ATOM     34  C   UNL     1      -7.146   2.629   1.620  1.00  0.00     0.001 A 
ATOM     35  C   UNL     1      -7.837   1.711   2.408  1.00  0.00     0.000 A 
ENDBRANCH  29  30
ENDBRANCH  27  29
ENDBRANCH  21  22
ENDBRANCH  20  21
ENDBRANCH  19  20
ENDBRANCH   1  19
TORSDOF 13
