REMARK SMILES COc1cc2cc(C(=O)CCc3cc[n+](Cc4ccc([N+](=O)[O-])o4)cc3)sc2cc1OC
REMARK SMILES IDX 11 1 10 2 8 3 9 4 7 5 3 6 4 7 30 8 5 9 29 10 6 11 28 12
REMARK SMILES IDX 27 13 2 14 1 15 31 16 32 17 12 18 13 19 26 20 14 21 25 22
REMARK SMILES IDX 15 23 16 24 17 25 18 26 24 27 19 28 20 29 21 30 22 31 23 32
REMARK H PARENT
ROOT
ATOM      1  C   UNL     1       1.341   1.123   1.429  1.00  0.00     0.044 C 
ENDROOT
BRANCH   1   2
ATOM      2  C   UNL     1      -0.032   0.667   0.934  1.00  0.00     0.087 C 
BRANCH   2   3
ATOM      3  C   UNL     1      -1.150   1.498   1.554  1.00  0.00     0.173 C 
ATOM      4  O   UNL     1      -0.874   2.385   2.362  1.00  0.00    -0.293 OA
BRANCH   3   5
ATOM      5  C   UNL     1      -2.511   1.172   1.139  1.00  0.00     0.071 A 
ATOM      6  C   UNL     1      -6.622  -0.453  -0.671  1.00  0.00     0.161 A 
ATOM      7  C   UNL     1      -5.230  -0.621  -0.687  1.00  0.00     0.060 A 
ATOM      8  C   UNL     1      -7.199   0.536   0.141  1.00  0.00     0.162 A 
ATOM      9  C   UNL     1      -4.394   0.199   0.110  1.00  0.00    -0.003 A 
ATOM     10  C   UNL     1      -6.388   1.355   0.936  1.00  0.00     0.070 A 
ATOM     11  C   UNL     1      -2.964   0.212   0.256  1.00  0.00     0.032 A 
ATOM     12  C   UNL     1      -4.991   1.173   0.907  1.00  0.00     0.039 A 
ATOM     13  S   UNL     1      -3.816   2.061   1.795  1.00  0.00    -0.132 S 
BRANCH   6  14
ATOM     14  O   UNL     1      -7.498  -1.207  -1.413  1.00  0.00    -0.493 OA
ATOM     15  C   UNL     1      -6.963  -2.210  -2.264  1.00  0.00     0.278 C 
ENDBRANCH   6  14
BRANCH   8  16
ATOM     16  O   UNL     1      -8.569   0.626   0.092  1.00  0.00    -0.493 OA
ATOM     17  C   UNL     1      -9.199   1.617   0.893  1.00  0.00     0.278 C 
ENDBRANCH   8  16
ENDBRANCH   3   5
ENDBRANCH   2   3
ENDBRANCH   1   2
BRANCH   1  18
ATOM     18  C   UNL     1       2.469   0.300   0.853  1.00  0.00    -0.036 A 
ATOM     19  C   UNL     1       3.026   0.620  -0.385  1.00  0.00     0.074 A 
ATOM     20  C   UNL     1       2.986  -0.790   1.553  1.00  0.00     0.074 A 
ATOM     21  C   UNL     1       4.080  -0.136  -0.885  1.00  0.00     0.309 A 
ATOM     22  C   UNL     1       4.044  -1.517   1.018  1.00  0.00     0.309 A 
ATOM     23  N   UNL     1       4.571  -1.187  -0.184  1.00  0.00    -0.198 N 
BRANCH  23  24
ATOM     24  C   UNL     1       5.708  -1.968  -0.732  1.00  0.00     0.432 C 
BRANCH  24  25
ATOM     25  C   UNL     1       6.999  -1.331  -0.359  1.00  0.00     0.176 A 
ATOM     26  C   UNL     1       8.124  -1.760   0.322  1.00  0.00     0.060 A 
ATOM     27  O   UNL     1       7.165  -0.035  -0.762  1.00  0.00    -0.399 OA
ATOM     28  C   UNL     1       9.033  -0.665   0.342  1.00  0.00     0.134 A 
ATOM     29  C   UNL     1       8.397   0.353  -0.328  1.00  0.00     0.433 A 
BRANCH  29  30
ATOM     30  N   UNL     1       8.781   1.695  -0.634  1.00  0.00     0.102 N 
ATOM     31  O   UNL     1       7.953   2.393  -1.235  1.00  0.00    -0.256 OA
ATOM     32  O   UNL     1       9.907   2.043  -0.264  1.00  0.00    -0.256 OA
ENDBRANCH  29  30
ENDBRANCH  24  25
ENDBRANCH  23  24
ENDBRANCH   1  18
TORSDOF 9
