REMARK SMILES CN(C)C(=O)N[C@H]1CCc2cc(O)ccc2C1
REMARK SMILES IDX 7 1 8 2 9 3 10 4 11 5 12 6 14 7 15 8 16 9 17 10 6 11 2 12
REMARK SMILES IDX 4 13 1 14 3 15 5 16 13 18
REMARK H PARENT 6 17 13 19
ROOT
ATOM      1  C   UNL     1       0.450  -0.400  -2.260  1.00  0.00     0.088 C 
ATOM      2  C   UNL     1       0.032   0.769  -1.368  1.00  0.00     0.030 C 
ATOM      3  C   UNL     1       1.259   1.433  -0.750  1.00  0.00     0.038 C 
ATOM      4  C   UNL     1       2.204   0.448  -0.111  1.00  0.00    -0.041 A 
ATOM      5  C   UNL     1       3.161   0.915   0.804  1.00  0.00     0.050 A 
ATOM      6  C   UNL     1       4.064   0.028   1.383  1.00  0.00     0.115 A 
ATOM      7  C   UNL     1       4.039  -1.321   1.062  1.00  0.00     0.046 A 
ATOM      8  C   UNL     1       3.101  -1.794   0.145  1.00  0.00     0.008 A 
ATOM      9  C   UNL     1       2.186  -0.916  -0.458  1.00  0.00    -0.043 A 
ATOM     10  C   UNL     1       1.167  -1.475  -1.423  1.00  0.00     0.060 C 
ENDROOT
BRANCH   1  11
ATOM     11  N   UNL     1      -0.722  -0.943  -2.945  1.00  0.00    -0.335 N 
ATOM     12  N   UNL     1      -1.773  -2.221  -4.575  1.00  0.00    -0.331 N 
ATOM     13  C   UNL     1      -0.579  -1.743  -4.051  1.00  0.00     0.317 C 
ATOM     14  C   UNL     1      -3.054  -1.546  -4.410  1.00  0.00     0.148 C 
ATOM     15  C   UNL     1      -1.676  -3.095  -5.733  1.00  0.00     0.148 C 
ATOM     16  O   UNL     1       0.520  -2.013  -4.526  1.00  0.00    -0.249 OA
ATOM     17  H   UNL     1      -1.482  -1.226  -2.345  1.00  0.00     0.165 HD
ENDBRANCH   1  11
BRANCH   6  18
ATOM     18  O   UNL     1       5.001   0.451   2.279  1.00  0.00    -0.508 OA
ATOM     19  H   UNL     1       4.912   1.411   2.388  1.00  0.00     0.293 HD
ENDBRANCH   6  18
TORSDOF 2
