REMARK SMILES O=C1Cc2cc(C(O)=CC[C@H]3CC[N@H+](Cc4ccccc4)CC3)cc3c2N1CCC3
REMARK SMILES IDX 9 1 7 2 8 3 6 5 24 6 5 7 25 8 4 9 26 10 30 11 3 12 27 13
REMARK SMILES IDX 29 14 2 15 28 16 1 17 10 18 11 19 23 20 12 21 22 22 13 23
REMARK SMILES IDX 14 24 15 26 16 27 17 28 21 29 18 30 20 31 19 32
REMARK H PARENT 8 4 14 25
ROOT
ATOM      1  C   UNL     1       1.261   2.059  -2.054  1.00  0.00     0.020 C 
ENDROOT
BRANCH   1   2
ATOM      2  C   UNL     1       0.048   1.890  -2.599  1.00  0.00     0.118 C 
BRANCH   2   3
ATOM      3  O   UNL     1      -0.289   0.709  -3.225  1.00  0.00    -0.508 OA
ATOM      4  H   UNL     1      -1.097   0.874  -3.747  1.00  0.00     0.293 HD
ENDBRANCH   2   3
BRANCH   2   5
ATOM      5  C   UNL     1      -0.999   2.924  -2.539  1.00  0.00     0.017 A 
ATOM      6  C   UNL     1      -2.273   2.592  -2.006  1.00  0.00     0.017 A 
ATOM      7  C   UNL     1      -0.743   4.226  -3.020  1.00  0.00     0.018 A 
ATOM      8  C   UNL     1      -3.294   3.543  -1.954  1.00  0.00    -0.023 A 
ATOM      9  C   UNL     1      -1.755   5.162  -2.950  1.00  0.00    -0.014 A 
ATOM     10  C   UNL     1      -2.985   4.801  -2.426  1.00  0.00     0.051 A 
ATOM     11  C   UNL     1      -4.659   3.305  -1.374  1.00  0.00     0.039 C 
ATOM     12  C   UNL     1      -1.806   6.609  -3.344  1.00  0.00     0.138 C 
ATOM     13  N   UNL     1      -3.859   5.877  -2.444  1.00  0.00    -0.312 N 
ATOM     14  C   UNL     1      -5.687   4.313  -1.923  1.00  0.00     0.027 C 
ATOM     15  C   UNL     1      -3.236   7.020  -2.933  1.00  0.00     0.231 C 
ATOM     16  C   UNL     1      -5.176   5.759  -1.857  1.00  0.00     0.126 C 
ATOM     17  O   UNL     1      -3.713   8.139  -3.022  1.00  0.00    -0.274 OA
ENDBRANCH   2   5
ENDBRANCH   1   2
BRANCH   1  18
ATOM     18  C   UNL     1       2.363   1.041  -2.120  1.00  0.00     0.035 C 
BRANCH  18  19
ATOM     19  C   UNL     1       2.331   0.043  -0.948  1.00  0.00     0.004 C 
ATOM     20  C   UNL     1       3.387  -1.050  -1.158  1.00  0.00     0.065 C 
ATOM     21  C   UNL     1       2.552   0.726   0.410  1.00  0.00     0.065 C 
ATOM     22  C   UNL     1       3.397  -2.051  -0.013  1.00  0.00     0.262 C 
ATOM     23  C   UNL     1       2.572  -0.281   1.552  1.00  0.00     0.262 C 
ATOM     24  N   UNL     1       3.628  -1.329   1.290  1.00  0.00    -0.331 N 
ATOM     25  H   UNL     1       4.528  -0.837   1.221  1.00  0.00     0.348 HD
BRANCH  24  26
ATOM     26  C   UNL     1       3.777  -2.306   2.439  1.00  0.00     0.299 C 
BRANCH  26  27
ATOM     27  C   UNL     1       4.364  -1.678   3.674  1.00  0.00     0.006 A 
ATOM     28  C   UNL     1       3.561  -1.422   4.795  1.00  0.00     0.009 A 
ATOM     29  C   UNL     1       5.722  -1.323   3.714  1.00  0.00     0.009 A 
ATOM     30  C   UNL     1       4.104  -0.816   5.929  1.00  0.00     0.001 A 
ATOM     31  C   UNL     1       6.260  -0.717   4.850  1.00  0.00     0.001 A 
ATOM     32  C   UNL     1       5.450  -0.462   5.955  1.00  0.00     0.000 A 
ENDBRANCH  26  27
ENDBRANCH  24  26
ENDBRANCH  18  19
ENDBRANCH   1  18
TORSDOF 7
