REMARK SMILES O=C(Nc1ccc2c(c1)CN(C(=O)c1ccccc1)C(=O)C2)c1cccc(Cl)c1
REMARK SMILES IDX 4 1 5 2 6 3 7 4 8 5 9 6 10 7 11 8 20 9 21 10 22 11 3 12 2 13
REMARK SMILES IDX 1 14 23 16 24 17 29 18 25 19 27 20 26 21 28 22 12 23 13 24
REMARK SMILES IDX 14 25 15 26 19 27 16 28 18 29 17 30
REMARK H PARENT 3 15
ROOT
ATOM      1  C   UNL     1       1.656  -1.035   0.398  1.00  0.00     0.041 A 
ATOM      2  C   UNL     1       1.717  -2.419   0.555  1.00  0.00     0.026 A 
ATOM      3  C   UNL     1       0.548  -3.187   0.563  1.00  0.00     0.007 A 
ATOM      4  C   UNL     1      -0.700  -2.579   0.402  1.00  0.00    -0.033 A 
ATOM      5  C   UNL     1      -0.773  -1.192   0.251  1.00  0.00    -0.022 A 
ATOM      6  C   UNL     1       0.402  -0.425   0.256  1.00  0.00     0.032 A 
ATOM      7  C   UNL     1      -2.131  -0.557   0.145  1.00  0.00     0.164 C 
ATOM      8  N   UNL     1      -3.070  -1.409  -0.571  1.00  0.00    -0.274 N 
ATOM      9  C   UNL     1      -3.165  -2.752  -0.250  1.00  0.00     0.234 C 
ATOM     10  O   UNL     1      -4.186  -3.422  -0.421  1.00  0.00    -0.274 OA
ATOM     11  C   UNL     1      -1.970  -3.385   0.449  1.00  0.00     0.136 C 
ENDROOT
BRANCH   1  12
ATOM     12  N   UNL     1       2.788  -0.191   0.387  1.00  0.00    -0.322 N 
ATOM     13  C   UNL     1       4.117  -0.573   0.449  1.00  0.00     0.255 C 
ATOM     14  O   UNL     1       4.556  -1.715   0.469  1.00  0.00    -0.269 OA
ATOM     15  H   UNL     1       2.598   0.792   0.247  1.00  0.00     0.170 HD
BRANCH  13  16
ATOM     16  C   UNL     1       5.093   0.553   0.454  1.00  0.00     0.041 A 
ATOM     17  C   UNL     1       6.312   0.382  -0.215  1.00  0.00     0.014 A 
ATOM     18  C   UNL     1       4.831   1.749   1.133  1.00  0.00     0.034 A 
ATOM     19  C   UNL     1       7.255   1.412  -0.232  1.00  0.00     0.002 A 
ATOM     20  C   UNL     1       5.779   2.771   1.109  1.00  0.00     0.041 A 
ATOM     21  C   UNL     1       6.985   2.611   0.427  1.00  0.00     0.020 A 
ATOM     22  Cl  UNL     1       5.457   4.246   1.936  1.00  0.00    -0.084 Cl
ENDBRANCH  13  16
ENDBRANCH   1  12
BRANCH   8  23
ATOM     23  C   UNL     1      -3.973  -0.880  -1.481  1.00  0.00     0.260 C 
ATOM     24  O   UNL     1      -4.228  -1.394  -2.568  1.00  0.00    -0.269 OA
BRANCH  23  25
ATOM     25  C   UNL     1      -4.553   0.455  -1.186  1.00  0.00     0.040 A 
ATOM     26  C   UNL     1      -4.617   1.409  -2.207  1.00  0.00     0.014 A 
ATOM     27  C   UNL     1      -5.067   0.749   0.084  1.00  0.00     0.014 A 
ATOM     28  C   UNL     1      -5.157   2.669  -1.948  1.00  0.00     0.001 A 
ATOM     29  C   UNL     1      -5.607   2.010   0.337  1.00  0.00     0.001 A 
ATOM     30  C   UNL     1      -5.646   2.970  -0.676  1.00  0.00     0.000 A 
ENDBRANCH  23  25
ENDBRANCH   8  23
TORSDOF 4
