REMARK SMILES O=C(c1ccccc1)c1ccc2c(c1)C(=O)N(CC[C@H]1CC[N@H+](Cc3ccccc3)CC1)C2=O
REMARK SMILES IDX 19 1 20 2 22 3 23 4 21 5 31 6 32 7 24 9 25 10 26 11 30 12
REMARK SMILES IDX 27 13 29 14 28 15 18 16 17 17 15 18 33 19 13 20 12 21 14 22
REMARK SMILES IDX 11 23 9 24 10 25 16 26 34 27 2 28 1 29 3 30 4 31 8 32 5 33
REMARK SMILES IDX 7 34 6 35
REMARK H PARENT 23 8
ROOT
ATOM      1  C   UNL     1      -0.904   1.052   1.857  1.00  0.00     0.026 C 
ENDROOT
BRANCH   1   2
ATOM      2  C   UNL     1      -2.428   0.847   1.739  1.00  0.00     0.002 C 
ATOM      3  C   UNL     1      -4.342  -0.801   2.027  1.00  0.00     0.262 C 
ATOM      4  N   UNL     1      -4.688  -0.621   0.573  1.00  0.00    -0.331 N 
ATOM      5  C   UNL     1      -2.857  -0.543   2.237  1.00  0.00     0.065 C 
ATOM      6  C   UNL     1      -4.353   0.764   0.079  1.00  0.00     0.262 C 
ATOM      7  C   UNL     1      -2.866   1.029   0.277  1.00  0.00     0.065 C 
ATOM      8  H   UNL     1      -4.114  -1.282   0.032  1.00  0.00     0.348 HD
BRANCH   4   9
ATOM      9  C   UNL     1      -6.128  -1.008   0.299  1.00  0.00     0.299 C 
BRANCH   9  10
ATOM     10  C   UNL     1      -6.420  -1.196  -1.165  1.00  0.00     0.006 A 
ATOM     11  C   UNL     1      -7.184  -0.251  -1.867  1.00  0.00     0.009 A 
ATOM     12  C   UNL     1      -5.916  -2.311  -1.853  1.00  0.00     0.009 A 
ATOM     13  C   UNL     1      -7.430  -0.415  -3.231  1.00  0.00     0.001 A 
ATOM     14  C   UNL     1      -6.166  -2.470  -3.217  1.00  0.00     0.001 A 
ATOM     15  C   UNL     1      -6.920  -1.522  -3.905  1.00  0.00     0.000 A 
ENDBRANCH   9  10
ENDBRANCH   4   9
ENDBRANCH   1   2
BRANCH   1  16
ATOM     16  C   UNL     1      -0.402   1.157   3.305  1.00  0.00     0.129 C 
BRANCH  16  17
ATOM     17  N   UNL     1       0.806   0.382   3.504  1.00  0.00    -0.274 N 
ATOM     18  C   UNL     1       2.071   0.884   3.374  1.00  0.00     0.261 C 
ATOM     19  C   UNL     1       0.811  -0.973   3.700  1.00  0.00     0.261 C 
ATOM     20  C   UNL     1       2.986  -0.237   3.586  1.00  0.00     0.053 A 
ATOM     21  C   UNL     1       2.216  -1.372   3.787  1.00  0.00     0.053 A 
ATOM     22  C   UNL     1       4.368  -0.273   3.575  1.00  0.00     0.027 A 
ATOM     23  C   UNL     1       2.783  -2.613   3.989  1.00  0.00     0.015 A 
ATOM     24  C   UNL     1       4.972  -1.520   3.793  1.00  0.00     0.023 A 
ATOM     25  C   UNL     1       4.181  -2.681   3.986  1.00  0.00     0.013 A 
ATOM     26  O   UNL     1       2.421   2.017   3.109  1.00  0.00    -0.269 OA
ATOM     27  O   UNL     1      -0.137  -1.734   3.748  1.00  0.00    -0.269 OA
BRANCH  24  28
ATOM     28  C   UNL     1       6.447  -1.682   3.754  1.00  0.00     0.193 C 
ATOM     29  O   UNL     1       6.908  -2.715   3.277  1.00  0.00    -0.289 OA
BRANCH  28  30
ATOM     30  C   UNL     1       7.365  -0.632   4.261  1.00  0.00     0.022 A 
ATOM     31  C   UNL     1       8.595  -0.457   3.616  1.00  0.00     0.012 A 
ATOM     32  C   UNL     1       7.048   0.146   5.381  1.00  0.00     0.012 A 
ATOM     33  C   UNL     1       9.488   0.516   4.067  1.00  0.00     0.001 A 
ATOM     34  C   UNL     1       7.946   1.118   5.829  1.00  0.00     0.001 A 
ATOM     35  C   UNL     1       9.161   1.305   5.169  1.00  0.00     0.000 A 
ENDBRANCH  28  30
ENDBRANCH  24  28
ENDBRANCH  16  17
ENDBRANCH   1  16
TORSDOF 7
