REMARK SMILES COc1ccc([C@H]2CC(c3cc(F)cc(F)c3)=NN2c2ccc(S(N)(=O)=O)cc2)c(OC)c1
REMARK SMILES IDX 20 1 21 2 22 3 23 4 28 5 29 6 19 7 7 8 8 9 9 10 18 11 6 12
REMARK SMILES IDX 3 13 4 14 33 15 5 16 30 17 2 18 1 19 31 20 32 21 10 22 11 23
REMARK SMILES IDX 17 24 12 25 15 26 14 27 13 28 16 29 24 30 26 31 27 32 25 33
REMARK H PARENT 25 34 25 35
ROOT
ATOM      1  C   UNL     1      -1.626  -0.602   0.953  1.00  0.00     0.060 A 
ATOM      2  C   UNL     1      -1.493  -1.919   1.424  1.00  0.00     0.029 A 
ATOM      3  C   UNL     1      -2.563  -2.823   1.406  1.00  0.00     0.024 A 
ATOM      4  C   UNL     1      -3.797  -2.418   0.904  1.00  0.00     0.082 A 
ATOM      5  C   UNL     1      -3.976  -1.116   0.444  1.00  0.00     0.024 A 
ATOM      6  C   UNL     1      -2.895  -0.229   0.468  1.00  0.00     0.029 A 
ENDROOT
BRANCH   1   7
ATOM      7  N   UNL     1      -0.572   0.310   0.951  1.00  0.00    -0.257 N 
ATOM      8  C   UNL     1       0.789   0.074   1.450  1.00  0.00     0.148 C 
ATOM      9  C   UNL     1       1.350   1.487   1.628  1.00  0.00     0.091 C 
ATOM     10  C   UNL     1       0.250   2.296   0.999  1.00  0.00     0.071 C 
ATOM     11  N   UNL     1      -0.815   1.628   0.676  1.00  0.00    -0.176 NA
BRANCH   8  12
ATOM     12  C   UNL     1       1.634  -0.788   0.522  1.00  0.00     0.019 A 
ATOM     13  C   UNL     1       3.250  -2.458  -1.105  1.00  0.00     0.122 A 
ATOM     14  C   UNL     1       2.956  -2.817   0.209  1.00  0.00     0.047 A 
ATOM     15  C   UNL     1       2.744  -1.263  -1.609  1.00  0.00     0.093 A 
ATOM     16  C   UNL     1       2.167  -1.992   1.016  1.00  0.00     0.013 A 
ATOM     17  C   UNL     1       1.933  -0.447  -0.807  1.00  0.00     0.127 A 
BRANCH  13  18
ATOM     18  O   UNL     1       4.042  -3.347  -1.778  1.00  0.00    -0.497 OA
ATOM     19  C   UNL     1       4.375  -3.023  -3.122  1.00  0.00     0.278 C 
ENDBRANCH  13  18
BRANCH  17  20
ATOM     20  O   UNL     1       1.510   0.754  -1.318  1.00  0.00    -0.496 OA
ATOM     21  C   UNL     1       0.472   0.558  -2.280  1.00  0.00     0.278 C 
ENDBRANCH  17  20
ENDBRANCH   8  12
BRANCH  10  22
ATOM     22  C   UNL     1       0.372   3.758   0.797  1.00  0.00     0.004 A 
ATOM     23  C   UNL     1      -0.677   4.444   0.171  1.00  0.00     0.049 A 
ATOM     24  C   UNL     1       1.505   4.462   1.213  1.00  0.00     0.049 A 
ATOM     25  C   UNL     1      -0.579   5.817  -0.031  1.00  0.00     0.126 A 
ATOM     26  C   UNL     1       1.575   5.836   0.999  1.00  0.00     0.126 A 
ATOM     27  C   UNL     1       0.542   6.525   0.379  1.00  0.00     0.078 A 
ATOM     28  F   UNL     1      -1.584   6.467  -0.631  1.00  0.00    -0.207 F 
ATOM     29  F   UNL     1       2.663   6.506   1.400  1.00  0.00    -0.207 F 
ENDBRANCH  10  22
ENDBRANCH   1   7
BRANCH   4  30
ATOM     30  S   UNL     1      -5.158  -3.549   0.869  1.00  0.00     0.238 S 
ATOM     31  O   UNL     1      -4.828  -4.694   1.687  1.00  0.00    -0.207 OA
ATOM     32  O   UNL     1      -6.382  -2.803   1.034  1.00  0.00    -0.207 OA
BRANCH  30  33
ATOM     33  N   UNL     1      -5.094  -4.100  -0.722  1.00  0.00    -0.225 NA
ATOM     34  H   UNL     1      -4.444  -3.570  -1.302  1.00  0.00     0.137 HD
ATOM     35  H   UNL     1      -4.874  -5.098  -0.715  1.00  0.00     0.137 HD
ENDBRANCH  30  33
ENDBRANCH   4  30
TORSDOF 7
