REMARK SMILES COc1cccc2c(CC[C@H]3CC[N@@H+](Cc4ccccc4)CC3)noc12
REMARK SMILES IDX 10 1 11 2 13 3 14 4 12 5 22 6 23 7 15 9 16 10 17 11 21 12
REMARK SMILES IDX 18 13 20 14 19 15 9 16 8 17 7 18 24 19 6 20 26 21 25 22 5 23
REMARK SMILES IDX 3 24 4 25 2 26 1 27
REMARK H PARENT 14 8
ROOT
ATOM      1  C   UNL     1       0.513  -1.051  -1.983  1.00  0.00     0.010 C 
ENDROOT
BRANCH   1   2
ATOM      2  C   UNL     1      -0.510   0.077  -2.263  1.00  0.00     0.000 C 
ATOM      3  C   UNL     1      -2.681  -1.250  -1.984  1.00  0.00     0.262 C 
ATOM      4  N   UNL     1      -3.040  -0.381  -0.807  1.00  0.00    -0.331 N 
ATOM      5  C   UNL     1      -1.774  -0.482  -2.940  1.00  0.00     0.065 C 
ATOM      6  C   UNL     1      -1.814   0.110  -0.068  1.00  0.00     0.262 C 
ATOM      7  C   UNL     1      -0.928   0.891  -1.031  1.00  0.00     0.065 C 
ATOM      8  H   UNL     1      -3.529   0.451  -1.159  1.00  0.00     0.348 HD
BRANCH   4   9
ATOM      9  C   UNL     1      -4.018  -1.081   0.116  1.00  0.00     0.299 C 
BRANCH   9  10
ATOM     10  C   UNL     1      -4.712  -0.139   1.062  1.00  0.00     0.006 A 
ATOM     11  C   UNL     1      -5.719   0.722   0.598  1.00  0.00     0.009 A 
ATOM     12  C   UNL     1      -4.346  -0.090   2.415  1.00  0.00     0.009 A 
ATOM     13  C   UNL     1      -6.343   1.614   1.471  1.00  0.00     0.001 A 
ATOM     14  C   UNL     1      -4.972   0.805   3.284  1.00  0.00     0.001 A 
ATOM     15  C   UNL     1      -5.968   1.656   2.812  1.00  0.00     0.000 A 
ENDBRANCH   9  10
ENDBRANCH   4   9
ENDBRANCH   1   2
BRANCH   1  16
ATOM     16  C   UNL     1       1.865  -0.568  -1.424  1.00  0.00     0.061 C 
BRANCH  16  17
ATOM     17  C   UNL     1       2.079  -0.909   0.015  1.00  0.00     0.092 A 
ATOM     18  C   UNL     1       3.192  -1.562   0.610  1.00  0.00     0.049 A 
ATOM     19  N   UNL     1       1.153  -0.592   0.931  1.00  0.00    -0.084 NA
ATOM     20  C   UNL     1       4.417  -2.101   0.187  1.00  0.00     0.014 A 
ATOM     21  C   UNL     1       2.866  -1.623   1.955  1.00  0.00     0.208 A 
ATOM     22  O   UNL     1       1.647  -1.044   2.142  1.00  0.00    -0.352 OA
ATOM     23  C   UNL     1       5.253  -2.680   1.150  1.00  0.00     0.005 A 
ATOM     24  C   UNL     1       3.669  -2.190   2.949  1.00  0.00     0.164 A 
ATOM     25  C   UNL     1       4.886  -2.724   2.502  1.00  0.00     0.050 A 
BRANCH  24  26
ATOM     26  O   UNL     1       3.211  -2.183   4.234  1.00  0.00    -0.493 OA
ATOM     27  C   UNL     1       4.096  -2.672   5.235  1.00  0.00     0.278 C 
ENDBRANCH  24  26
ENDBRANCH  16  17
ENDBRANCH   1  16
TORSDOF 6
