REMARK SMILES CC[C@@H](C)n1cc(C(=O)C(F)(F)F)cn1
REMARK SMILES IDX 5 1 6 2 7 3 14 4 15 5 3 6 4 7 2 8 1 9 8 10 9 11 10 12 11 13
REMARK SMILES IDX 12 14 13 15
REMARK H PARENT
ROOT
ATOM      1  N   UNL     1      -0.225  -0.396  -0.213  1.00  0.00    -0.269 N 
ATOM      2  C   UNL     1       0.896  -0.959   0.330  1.00  0.00     0.121 A 
ATOM      3  C   UNL     1       1.938  -0.082   0.090  1.00  0.00     0.065 A 
ATOM      4  C   UNL     1       1.328   0.982  -0.611  1.00  0.00     0.147 A 
ATOM      5  N   UNL     1       0.021   0.793  -0.795  1.00  0.00    -0.180 NA
ENDROOT
BRANCH   1   6
ATOM      6  C   UNL     1      -1.569  -0.968  -0.202  1.00  0.00     0.104 C 
ATOM      7  C   UNL     1      -2.284  -0.821  -1.547  1.00  0.00     0.033 C 
BRANCH   6   8
ATOM      8  C   UNL     1      -2.405  -0.466   0.991  1.00  0.00     0.023 C 
ATOM      9  C   UNL     1      -2.820   0.998   0.933  1.00  0.00     0.006 C 
ENDBRANCH   6   8
ENDBRANCH   1   6
BRANCH   3  10
ATOM     10  C   UNL     1       3.328  -0.268   0.494  1.00  0.00     0.269 C 
ATOM     11  O   UNL     1       3.666  -1.283   1.109  1.00  0.00    -0.284 OA
BRANCH  10  12
ATOM     12  C   UNL     1       4.316   0.835   0.122  1.00  0.00     0.454 C 
ATOM     13  F   UNL     1       4.384   1.034  -1.226  1.00  0.00    -0.163 F 
ATOM     14  F   UNL     1       3.971   2.040   0.660  1.00  0.00    -0.163 F 
ATOM     15  F   UNL     1       5.590   0.586   0.533  1.00  0.00    -0.163 F 
ENDBRANCH  10  12
ENDBRANCH   3  10
TORSDOF 4
