REMARK SMILES Cc1cccc2c1C[C@@H](C)C2=O
REMARK SMILES IDX 1 1 2 2 3 3 4 4 5 5 6 6 7 7 8 8 9 9 10 10 11 11 12 12
REMARK H PARENT
ROOT
ATOM      1  C   UNL     1       2.330   1.601   0.275  1.00  0.00     0.044 C 
ATOM      2  C   UNL     1       1.740   0.281  -0.120  1.00  0.00    -0.047 A 
ATOM      3  C   UNL     1       2.562  -0.772  -0.558  1.00  0.00     0.004 A 
ATOM      4  C   UNL     1       2.020  -2.014  -0.936  1.00  0.00     0.001 A 
ATOM      5  C   UNL     1       0.645  -2.229  -0.883  1.00  0.00     0.012 A 
ATOM      6  C   UNL     1      -0.146  -1.183  -0.446  1.00  0.00     0.021 A 
ATOM      7  C   UNL     1       0.368   0.054  -0.068  1.00  0.00    -0.034 A 
ATOM      8  C   UNL     1      -0.712   1.010   0.342  1.00  0.00     0.048 C 
ATOM      9  C   UNL     1      -2.015   0.183   0.278  1.00  0.00     0.062 C 
ATOM     10  C   UNL     1      -3.085   0.840  -0.577  1.00  0.00     0.017 C 
ATOM     11  C   UNL     1      -1.594  -1.154  -0.298  1.00  0.00     0.166 C 
ATOM     12  O   UNL     1      -2.327  -2.083  -0.591  1.00  0.00    -0.294 OA
ENDROOT
TORSDOF 0
