REMARK SMILES COc1cc2c(cc1OC)S[C@H](C(=O)CCc1cc[n+](Cc3ccc(F)cc3)cc1)C2
REMARK SMILES IDX 15 1 13 2 14 3 12 4 3 5 4 6 8 7 5 8 7 9 6 10 31 11 11 12
REMARK SMILES IDX 2 13 1 14 9 15 10 16 16 17 17 18 18 19 30 20 19 21 29 22
REMARK SMILES IDX 20 23 21 24 22 25 23 26 28 27 24 28 27 29 25 30 26 31
REMARK H PARENT
ROOT
ATOM      1  C   UNL     1       0.205   0.200   1.250  1.00  0.00     0.081 C 
ENDROOT
BRANCH   1   2
ATOM      2  C   UNL     1       1.538   0.929   1.379  1.00  0.00     0.146 C 
ATOM      3  O   UNL     1       1.706   2.022   0.834  1.00  0.00    -0.298 OA
BRANCH   2   4
ATOM      4  C   UNL     1       2.609   0.282   2.263  1.00  0.00     0.123 C 
ATOM      5  C   UNL     1       6.672   0.530  -0.320  1.00  0.00     0.161 A 
ATOM      6  C   UNL     1       5.903   1.183   0.653  1.00  0.00     0.055 A 
ATOM      7  C   UNL     1       6.336  -0.786  -0.723  1.00  0.00     0.161 A 
ATOM      8  C   UNL     1       4.801   0.531   1.198  1.00  0.00    -0.029 A 
ATOM      9  C   UNL     1       5.227  -1.431  -0.162  1.00  0.00     0.065 A 
ATOM     10  C   UNL     1       4.474  -0.760   0.790  1.00  0.00     0.015 A 
ATOM     11  C   UNL     1       3.924   1.081   2.288  1.00  0.00     0.059 C 
ATOM     12  S   UNL     1       3.035  -1.375   1.613  1.00  0.00    -0.114 SA
BRANCH   5  13
ATOM     13  O   UNL     1       7.773   1.079  -0.930  1.00  0.00    -0.493 OA
ATOM     14  C   UNL     1       8.138   2.404  -0.572  1.00  0.00     0.278 C 
ENDBRANCH   5  13
BRANCH   7  15
ATOM     15  O   UNL     1       7.148  -1.345  -1.681  1.00  0.00    -0.493 OA
ATOM     16  C   UNL     1       6.966  -2.721  -1.979  1.00  0.00     0.278 C 
ENDBRANCH   7  15
ENDBRANCH   2   4
ENDBRANCH   1   2
BRANCH   1  17
ATOM     17  C   UNL     1      -0.835   1.056   0.526  1.00  0.00     0.044 C 
BRANCH  17  18
ATOM     18  C   UNL     1      -2.137   0.317   0.323  1.00  0.00    -0.036 A 
ATOM     19  C   UNL     1      -2.334  -0.474  -0.809  1.00  0.00     0.074 A 
ATOM     20  C   UNL     1      -3.164   0.403   1.261  1.00  0.00     0.074 A 
ATOM     21  C   UNL     1      -3.541  -1.141  -0.986  1.00  0.00     0.308 A 
ATOM     22  C   UNL     1      -4.356  -0.281   1.045  1.00  0.00     0.308 A 
ATOM     23  N   UNL     1      -4.529  -1.033  -0.069  1.00  0.00    -0.201 N 
BRANCH  23  24
ATOM     24  C   UNL     1      -5.810  -1.756  -0.272  1.00  0.00     0.393 C 
BRANCH  24  25
ATOM     25  C   UNL     1      -6.950  -0.796  -0.514  1.00  0.00     0.017 A 
ATOM     26  C   UNL     1      -6.934   0.080  -1.615  1.00  0.00     0.013 A 
ATOM     27  C   UNL     1      -8.055  -0.776   0.355  1.00  0.00     0.013 A 
ATOM     28  C   UNL     1      -7.992   0.966  -1.827  1.00  0.00     0.040 A 
ATOM     29  C   UNL     1      -9.110   0.112   0.136  1.00  0.00     0.040 A 
ATOM     30  C   UNL     1      -9.069   0.976  -0.950  1.00  0.00     0.123 A 
ATOM     31  F   UNL     1     -10.080   1.827  -1.156  1.00  0.00    -0.207 F 
ENDBRANCH  24  25
ENDBRANCH  23  24
ENDBRANCH  17  18
ENDBRANCH   1  17
TORSDOF 8
