REMARK SMILES Cc1ccc(O)cc1
REMARK SMILES IDX 1 1 2 2 3 3 4 4 5 5 7 6 8 7 6 8
REMARK H PARENT 6 9
ROOT
ATOM      1  C   UNL     1      -2.438   0.022   0.412  1.00  0.00     0.044 C 
ATOM      2  C   UNL     1      -0.959  -0.030   0.172  1.00  0.00    -0.051 A 
ATOM      3  C   UNL     1      -0.142   1.050   0.532  1.00  0.00     0.007 A 
ATOM      4  C   UNL     1       1.232   1.016   0.281  1.00  0.00     0.046 A 
ATOM      5  C   UNL     1       1.786  -0.098  -0.343  1.00  0.00     0.115 A 
ATOM      6  C   UNL     1       0.989  -1.171  -0.720  1.00  0.00     0.046 A 
ATOM      7  C   UNL     1      -0.384  -1.136  -0.468  1.00  0.00     0.007 A 
ENDROOT
BRANCH   5   8
ATOM      8  O   UNL     1       3.121  -0.173  -0.608  1.00  0.00    -0.508 OA
ATOM      9  H   UNL     1       3.544   0.641  -0.289  1.00  0.00     0.293 HD
ENDBRANCH   5   8
TORSDOF 1
