REMARK SMILES COc1cc2c(cc1OC)C(=O)[C@@H](C[C@H]1CC[N@@H+](Cc3ccccc3)CC1)C2
REMARK SMILES IDX 14 1 15 2 17 3 18 4 16 5 26 6 27 7 19 9 20 10 21 11 25 12
REMARK SMILES IDX 22 13 24 14 23 15 13 16 11 17 28 18 6 19 5 20 7 21 4 22 8 23
REMARK SMILES IDX 3 24 12 25 9 26 10 27 2 28 1 29
REMARK H PARENT 18 8
ROOT
ATOM      1  C   UNL     1      -0.644   0.772   0.029  1.00  0.00     0.016 C 
ENDROOT
BRANCH   1   2
ATOM      2  C   UNL     1       0.720   0.066  -0.130  1.00  0.00     0.001 C 
ATOM      3  C   UNL     1       2.508  -0.610  -1.788  1.00  0.00     0.262 C 
ATOM      4  N   UNL     1       3.559  -0.018  -0.888  1.00  0.00    -0.331 N 
ATOM      5  C   UNL     1       1.173   0.099  -1.599  1.00  0.00     0.065 C 
ATOM      6  C   UNL     1       3.147  -0.065   0.564  1.00  0.00     0.262 C 
ATOM      7  C   UNL     1       1.816   0.646   0.775  1.00  0.00     0.065 C 
ATOM      8  H   UNL     1       4.372  -0.644  -0.952  1.00  0.00     0.348 HD
BRANCH   4   9
ATOM      9  C   UNL     1       4.078   1.323  -1.365  1.00  0.00     0.299 C 
BRANCH   9  10
ATOM     10  C   UNL     1       5.381   1.714  -0.724  1.00  0.00     0.006 A 
ATOM     11  C   UNL     1       5.419   2.705   0.268  1.00  0.00     0.009 A 
ATOM     12  C   UNL     1       6.577   1.077  -1.094  1.00  0.00     0.009 A 
ATOM     13  C   UNL     1       6.625   3.047   0.881  1.00  0.00     0.001 A 
ATOM     14  C   UNL     1       7.780   1.422  -0.478  1.00  0.00     0.001 A 
ATOM     15  C   UNL     1       7.803   2.404   0.509  1.00  0.00     0.000 A 
ENDBRANCH   9  10
ENDBRANCH   4   9
ENDBRANCH   1   2
BRANCH   1  16
ATOM     16  C   UNL     1      -1.194   0.856   1.462  1.00  0.00     0.066 C 
ATOM     17  C   UNL     1      -1.351  -0.509   2.110  1.00  0.00     0.166 C 
ATOM     18  C   UNL     1      -2.621   1.464   1.497  1.00  0.00     0.048 C 
ATOM     19  C   UNL     1      -2.746  -0.733   2.457  1.00  0.00     0.025 A 
ATOM     20  C   UNL     1      -3.473   0.390   2.095  1.00  0.00    -0.033 A 
ATOM     21  C   UNL     1      -3.314  -1.851   3.039  1.00  0.00     0.062 A 
ATOM     22  C   UNL     1      -4.842   0.424   2.317  1.00  0.00     0.055 A 
ATOM     23  C   UNL     1      -4.692  -1.832   3.268  1.00  0.00     0.161 A 
ATOM     24  C   UNL     1      -5.461  -0.690   2.905  1.00  0.00     0.161 A 
ATOM     25  O   UNL     1      -0.455  -1.312   2.315  1.00  0.00    -0.294 OA
BRANCH  23  26
ATOM     26  O   UNL     1      -5.395  -2.868   3.833  1.00  0.00    -0.493 OA
ATOM     27  C   UNL     1      -4.662  -4.003   4.274  1.00  0.00     0.278 C 
ENDBRANCH  23  26
BRANCH  24  28
ATOM     28  O   UNL     1      -6.806  -0.773   3.168  1.00  0.00    -0.493 OA
ATOM     29  C   UNL     1      -7.615   0.354   2.868  1.00  0.00     0.278 C 
ENDBRANCH  24  28
ENDBRANCH   1  16
TORSDOF 6
