REMARK SMILES C[C@H]1CC[N@@H+](Cc2ccccc2)CC1
REMARK SMILES IDX 4 1 5 2 13 3 3 4 2 5 1 6 14 7 6 9 7 10 8 11 12 12 9 13 11 14
REMARK SMILES IDX 10 15
REMARK H PARENT 5 8
ROOT
ATOM      1  C   UNL     1      -0.923   1.010  -1.158  1.00  0.00     0.262 C 
ATOM      2  N   UNL     1      -0.346  -0.359  -0.903  1.00  0.00    -0.331 N 
ATOM      3  C   UNL     1      -1.369  -1.319  -0.339  1.00  0.00     0.262 C 
ATOM      4  C   UNL     1      -1.487   1.579   0.137  1.00  0.00     0.065 C 
ATOM      5  C   UNL     1      -2.515   0.657   0.802  1.00  0.00    -0.003 C 
ATOM      6  C   UNL     1      -3.844   0.646   0.043  1.00  0.00     0.008 C 
ATOM      7  C   UNL     1      -1.938  -0.755   0.957  1.00  0.00     0.065 C 
ATOM      8  H   UNL     1       0.392  -0.261  -0.195  1.00  0.00     0.348 HD
ENDROOT
BRANCH   2   9
ATOM      9  C   UNL     1       0.341  -0.904  -2.141  1.00  0.00     0.299 C 
BRANCH   9  10
ATOM     10  C   UNL     1       1.237  -2.077  -1.851  1.00  0.00     0.006 A 
ATOM     11  C   UNL     1       2.454  -1.893  -1.175  1.00  0.00     0.009 A 
ATOM     12  C   UNL     1       0.862  -3.373  -2.234  1.00  0.00     0.009 A 
ATOM     13  C   UNL     1       3.272  -2.986  -0.883  1.00  0.00     0.001 A 
ATOM     14  C   UNL     1       1.683  -4.462  -1.940  1.00  0.00     0.001 A 
ATOM     15  C   UNL     1       2.885  -4.268  -1.263  1.00  0.00     0.000 A 
ENDBRANCH   9  10
ENDBRANCH   2   9
TORSDOF 2
