REMARK SMILES CC1=C[C@@H]2Cc3nc4cc(Cl)ccc4c(N)c3[C@H](C1)C2
REMARK SMILES IDX 1 1 2 2 3 3 4 4 5 5 6 6 7 7 8 8 9 9 10 10 11 11 12 12 13 13
REMARK SMILES IDX 14 14 15 15 17 16 18 17 19 18 20 19 16 20
REMARK H PARENT 16 21 16 22
ROOT
ATOM      1  C   UNL     1      -2.562  -0.822  -2.906  1.00  0.00     0.039 C 
ATOM      2  C   UNL     1      -2.102  -0.344  -1.561  1.00  0.00    -0.076 C 
ATOM      3  C   UNL     1      -2.252   0.932  -1.160  1.00  0.00    -0.024 C 
ATOM      4  C   UNL     1      -1.811   1.425   0.202  1.00  0.00     0.018 C 
ATOM      5  C   UNL     1      -0.448   2.123   0.115  1.00  0.00     0.064 C 
ATOM      6  C   UNL     1       0.727   1.173   0.030  1.00  0.00     0.047 A 
ATOM      7  N   UNL     1       1.913   1.766  -0.241  1.00  0.00    -0.252 NA
ATOM      8  C   UNL     1       3.023   1.022  -0.254  1.00  0.00     0.074 A 
ATOM      9  C   UNL     1       4.225   1.674  -0.489  1.00  0.00     0.049 A 
ATOM     10  C   UNL     1       5.433   0.985  -0.491  1.00  0.00     0.043 A 
ATOM     11  Cl  UNL     1       6.903   1.830  -0.782  1.00  0.00    -0.084 Cl
ATOM     12  C   UNL     1       5.459  -0.380  -0.251  1.00  0.00     0.021 A 
ATOM     13  C   UNL     1       4.260  -1.052  -0.018  1.00  0.00     0.014 A 
ATOM     14  C   UNL     1       3.016  -0.370  -0.028  1.00  0.00     0.024 A 
ATOM     15  C   UNL     1       1.754  -0.999   0.176  1.00  0.00     0.046 A 
ATOM     16  C   UNL     1       0.596  -0.200   0.277  1.00  0.00     0.001 A 
ATOM     17  C   UNL     1      -0.775  -0.789   0.595  1.00  0.00     0.028 C 
ATOM     18  C   UNL     1      -1.440  -1.379  -0.673  1.00  0.00     0.039 C 
ATOM     19  C   UNL     1      -1.704   0.270   1.200  1.00  0.00     0.017 C 
ENDROOT
BRANCH  15  20
ATOM     20  N   UNL     1       1.688  -2.381   0.479  1.00  0.00    -0.398 N 
ATOM     21  H   UNL     1       2.415  -2.928   0.029  1.00  0.00     0.156 HD
ATOM     22  H   UNL     1       0.780  -2.801   0.316  1.00  0.00     0.156 HD
ENDBRANCH  15  20
TORSDOF 1
