REMARK SMILES COc1ccc([C@@H](C)NS(N)(=O)=O)cc1OC
REMARK SMILES IDX 7 1 8 2 6 3 3 4 4 5 15 6 5 7 14 8 2 9 1 10 16 11 17 12 9 13
REMARK SMILES IDX 10 15 12 16 13 17 11 18
REMARK H PARENT 9 14 11 19 11 20
ROOT
ATOM      1  C   UNL     1       1.790   0.507  -0.549  1.00  0.00     0.098 C 
ATOM      2  C   UNL     1       2.357   1.843  -1.041  1.00  0.00     0.031 C 
ENDROOT
BRANCH   1   3
ATOM      3  C   UNL     1       0.284   0.518  -0.344  1.00  0.00    -0.026 A 
ATOM      4  C   UNL     1      -2.511   0.427   0.074  1.00  0.00     0.160 A 
ATOM      5  C   UNL     1      -1.787   1.589   0.355  1.00  0.00     0.051 A 
ATOM      6  C   UNL     1      -1.832  -0.711  -0.399  1.00  0.00     0.161 A 
ATOM      7  C   UNL     1      -0.403   1.630   0.157  1.00  0.00     0.009 A 
ATOM      8  C   UNL     1      -0.448  -0.654  -0.607  1.00  0.00     0.055 A 
BRANCH   4   9
ATOM      9  O   UNL     1      -3.867   0.298   0.240  1.00  0.00    -0.493 OA
ATOM     10  C   UNL     1      -4.589   1.434   0.693  1.00  0.00     0.278 C 
ENDBRANCH   4   9
BRANCH   6  11
ATOM     11  O   UNL     1      -2.603  -1.821  -0.641  1.00  0.00    -0.493 OA
ATOM     12  C   UNL     1      -1.925  -3.051  -0.859  1.00  0.00     0.278 C 
ENDBRANCH   6  11
ENDBRANCH   1   3
BRANCH   1  13
ATOM     13  N   UNL     1       2.486   0.164   0.709  1.00  0.00    -0.195 NA
ATOM     14  H   UNL     1       1.886   0.295   1.526  1.00  0.00     0.143 HD
BRANCH  13  15
ATOM     15  S   UNL     1       3.213  -1.329   0.822  1.00  0.00     0.274 S 
ATOM     16  O   UNL     1       3.619  -1.494   2.192  1.00  0.00    -0.195 OA
ATOM     17  O   UNL     1       2.429  -2.294   0.098  1.00  0.00    -0.195 OA
BRANCH  15  18
ATOM     18  N   UNL     1       4.565  -0.991  -0.066  1.00  0.00    -0.216 NA
ATOM     19  H   UNL     1       4.401  -0.879  -1.059  1.00  0.00     0.138 HD
ATOM     20  H   UNL     1       5.167  -0.310   0.390  1.00  0.00     0.138 HD
ENDBRANCH  15  18
ENDBRANCH  13  15
ENDBRANCH   1  13
TORSDOF 6
