REMARK SMILES CN(C)C(=O)N[C@H]1CCc2c(O)cccc2C1
REMARK SMILES IDX 7 1 8 2 9 3 10 4 11 5 13 6 14 7 15 8 16 9 17 10 6 11 2 12
REMARK SMILES IDX 4 13 1 14 3 15 5 16 12 18
REMARK H PARENT 6 17 12 19
ROOT
ATOM      1  C   UNL     1       0.213   2.128  -0.784  1.00  0.00     0.088 C 
ATOM      2  C   UNL     1      -0.217   1.319   0.437  1.00  0.00     0.030 C 
ATOM      3  C   UNL     1       1.001   0.880   1.244  1.00  0.00     0.042 C 
ATOM      4  C   UNL     1       2.093   0.253   0.412  1.00  0.00    -0.003 A 
ATOM      5  C   UNL     1       3.118  -0.502   1.005  1.00  0.00     0.119 A 
ATOM      6  C   UNL     1       4.122  -1.090   0.239  1.00  0.00     0.046 A 
ATOM      7  C   UNL     1       4.137  -0.914  -1.140  1.00  0.00     0.004 A 
ATOM      8  C   UNL     1       3.148  -0.146  -1.748  1.00  0.00     0.004 A 
ATOM      9  C   UNL     1       2.130   0.451  -0.985  1.00  0.00    -0.039 A 
ATOM     10  C   UNL     1       1.071   1.250  -1.710  1.00  0.00     0.061 C 
ENDROOT
BRANCH   1  11
ATOM     11  N   UNL     1      -0.964   2.651  -1.473  1.00  0.00    -0.335 N 
ATOM     12  N   UNL     1      -2.040   4.051  -2.983  1.00  0.00    -0.331 N 
ATOM     13  C   UNL     1      -0.849   3.682  -2.372  1.00  0.00     0.317 C 
ATOM     14  C   UNL     1      -3.352   3.842  -2.385  1.00  0.00     0.148 C 
ATOM     15  C   UNL     1      -1.967   5.121  -3.964  1.00  0.00     0.148 C 
ATOM     16  O   UNL     1       0.228   4.220  -2.615  1.00  0.00    -0.249 OA
ATOM     17  H   UNL     1      -1.651   1.963  -1.743  1.00  0.00     0.165 HD
ENDBRANCH   1  11
BRANCH   5  18
ATOM     18  O   UNL     1       3.205  -0.708   2.353  1.00  0.00    -0.508 OA
ATOM     19  H   UNL     1       2.624  -0.082   2.810  1.00  0.00     0.293 HD
ENDBRANCH   5  18
TORSDOF 2
