REMARK SMILES O=C(NCCN=c1c2c([nH]c3ccccc13)CCCC2)c1ccc(F)cc1
REMARK SMILES IDX 5 1 6 2 7 3 10 4 9 5 11 6 8 7 17 8 12 9 16 10 20 11 18 12
REMARK SMILES IDX 13 13 15 14 19 15 14 16 4 18 3 19 2 20 1 22 21 23 22 24
REMARK SMILES IDX 27 25 23 26 26 27 24 28 25 29
REMARK H PARENT 10 17 3 21
ROOT
ATOM      1  C   UNL     1      -0.332   2.245  -0.172  1.00  0.00     0.164 C 
ENDROOT
BRANCH   1   2
ATOM      2  N   UNL     1       0.278   0.923  -0.242  1.00  0.00    -0.282 NA
BRANCH   2   3
ATOM      3  C   UNL     1       1.326   0.554   0.419  1.00  0.00     0.072 A 
ATOM      4  N   UNL     1       3.998  -0.123   0.995  1.00  0.00    -0.358 N 
ATOM      5  C   UNL     1       3.200  -1.032   0.330  1.00  0.00     0.021 A 
ATOM      6  C   UNL     1       3.418   0.938   1.710  1.00  0.00     0.048 A 
ATOM      7  C   UNL     1       1.905  -0.789   0.046  1.00  0.00    -0.003 A 
ATOM      8  C   UNL     1       3.861  -2.329  -0.082  1.00  0.00     0.054 C 
ATOM      9  C   UNL     1       4.188   1.659   2.634  1.00  0.00     0.027 A 
ATOM     10  C   UNL     1       2.075   1.300   1.486  1.00  0.00     0.024 A 
ATOM     11  C   UNL     1       1.007  -1.759  -0.672  1.00  0.00     0.039 C 
ATOM     12  C   UNL     1       3.064  -3.134  -1.110  1.00  0.00     0.007 C 
ATOM     13  C   UNL     1       3.610   2.675   3.394  1.00  0.00     0.002 A 
ATOM     14  C   UNL     1       1.493   2.281   2.296  1.00  0.00     0.012 A 
ATOM     15  C   UNL     1       1.586  -3.173  -0.743  1.00  0.00     0.005 C 
ATOM     16  C   UNL     1       2.260   2.971   3.240  1.00  0.00     0.001 A 
ATOM     17  H   UNL     1       4.887  -0.469   1.339  1.00  0.00     0.166 HD
ENDBRANCH   2   3
ENDBRANCH   1   2
BRANCH   1  18
ATOM     18  C   UNL     1      -1.137   2.474  -1.459  1.00  0.00     0.139 C 
BRANCH  18  19
ATOM     19  N   UNL     1      -2.151   1.448  -1.636  1.00  0.00    -0.350 N 
ATOM     20  C   UNL     1      -3.374   1.553  -1.009  1.00  0.00     0.251 C 
ATOM     21  H   UNL     1      -1.767   0.519  -1.758  1.00  0.00     0.163 HD
ATOM     22  O   UNL     1      -3.751   2.559  -0.418  1.00  0.00    -0.269 OA
BRANCH  20  23
ATOM     23  C   UNL     1      -4.236   0.336  -1.040  1.00  0.00     0.040 A 
ATOM     24  C   UNL     1      -5.205   0.180  -0.037  1.00  0.00     0.017 A 
ATOM     25  C   UNL     1      -4.119  -0.632  -2.049  1.00  0.00     0.017 A 
ATOM     26  C   UNL     1      -6.034  -0.944  -0.030  1.00  0.00     0.040 A 
ATOM     27  C   UNL     1      -4.951  -1.755  -2.038  1.00  0.00     0.040 A 
ATOM     28  C   UNL     1      -5.896  -1.901  -1.028  1.00  0.00     0.123 A 
ATOM     29  F   UNL     1      -6.692  -2.979  -1.022  1.00  0.00    -0.207 F 
ENDBRANCH  20  23
ENDBRANCH  18  19
ENDBRANCH   1  18
TORSDOF 5
