REMARK SMILES O=c1nc2cc(Cl)ccc2c(O)n1CC[C@H]1CC[N@H+](Cc2ccccc2)CC1
REMARK SMILES IDX 14 1 13 2 11 3 10 4 9 5 4 6 2 7 8 8 5 9 3 10 6 11 1 12 7 13
REMARK SMILES IDX 12 14 15 16 16 17 17 18 28 19 18 20 27 21 19 22 20 24 21 25
REMARK SMILES IDX 22 26 26 27 23 28 25 29 24 30
REMARK H PARENT 12 15 19 23
ROOT
ATOM      1  C   UNL     1       1.149   1.688  -2.972  1.00  0.00     0.131 C 
ENDROOT
BRANCH   1   2
ATOM      2  N   UNL     1       2.561   1.338  -2.832  1.00  0.00    -0.262 N 
ATOM      3  C   UNL     1       3.556   2.215  -3.214  1.00  0.00     0.204 A 
ATOM      4  C   UNL     1       4.856   1.901  -3.077  1.00  0.00     0.061 A 
ATOM      5  C   UNL     1       6.003   2.719  -3.422  1.00  0.00     0.017 A 
ATOM      6  C   UNL     1       5.080   0.544  -2.489  1.00  0.00     0.083 A 
ATOM      7  C   UNL     1       2.847   0.106  -2.232  1.00  0.00     0.350 A 
ATOM      8  C   UNL     1       7.250   2.257  -3.242  1.00  0.00     0.021 A 
ATOM      9  C   UNL     1       6.499   0.120  -2.342  1.00  0.00     0.049 A 
ATOM     10  N   UNL     1       4.155  -0.269  -2.103  1.00  0.00    -0.193 NA
ATOM     11  C   UNL     1       7.493   0.940  -2.703  1.00  0.00     0.043 A 
ATOM     12  O   UNL     1       1.942  -0.619  -1.817  1.00  0.00    -0.246 OA
ATOM     13  Cl  UNL     1       9.136   0.441  -2.526  1.00  0.00    -0.084 Cl
BRANCH   3  14
ATOM     14  O   UNL     1       3.105   3.413  -3.727  1.00  0.00    -0.494 OA
ATOM     15  H   UNL     1       3.852   3.922  -4.078  1.00  0.00     0.295 HD
ENDBRANCH   3  14
ENDBRANCH   1   2
BRANCH   1  16
ATOM     16  C   UNL     1       0.582   2.277  -1.671  1.00  0.00     0.026 C 
BRANCH  16  17
ATOM     17  C   UNL     1      -0.912   1.968  -1.447  1.00  0.00     0.002 C 
ATOM     18  C   UNL     1      -1.450   2.824  -0.291  1.00  0.00     0.065 C 
ATOM     19  C   UNL     1      -1.144   0.479  -1.137  1.00  0.00     0.065 C 
ATOM     20  C   UNL     1      -2.901   2.505   0.036  1.00  0.00     0.262 C 
ATOM     21  C   UNL     1      -2.595   0.170  -0.795  1.00  0.00     0.262 C 
ATOM     22  N   UNL     1      -3.039   1.040   0.354  1.00  0.00    -0.331 N 
ATOM     23  H   UNL     1      -2.416   0.826   1.143  1.00  0.00     0.348 HD
BRANCH  22  24
ATOM     24  C   UNL     1      -4.439   0.707   0.830  1.00  0.00     0.299 C 
BRANCH  24  25
ATOM     25  C   UNL     1      -4.533  -0.636   1.499  1.00  0.00     0.006 A 
ATOM     26  C   UNL     1      -5.161  -1.713   0.854  1.00  0.00     0.009 A 
ATOM     27  C   UNL     1      -3.977  -0.838   2.773  1.00  0.00     0.009 A 
ATOM     28  C   UNL     1      -5.223  -2.965   1.466  1.00  0.00     0.001 A 
ATOM     29  C   UNL     1      -4.042  -2.092   3.381  1.00  0.00     0.001 A 
ATOM     30  C   UNL     1      -4.662  -3.154   2.727  1.00  0.00     0.000 A 
ENDBRANCH  24  25
ENDBRANCH  22  24
ENDBRANCH  16  17
ENDBRANCH   1  16
TORSDOF 6
