REMARK SMILES CNC(=O)Oc1cccc(C[N@@H+](C)CCCOc2ccc(C(=O)c3ccccc3)cc2)c1
REMARK SMILES IDX 14 1 12 2 13 3 11 5 10 6 9 7 32 8 8 9 6 10 7 11 5 12 3 13
REMARK SMILES IDX 2 14 4 15 1 16 15 18 16 19 17 20 18 21 19 22 31 23 20 24
REMARK SMILES IDX 30 25 21 26 22 27 23 28 24 29 25 30 29 31 26 32 28 33 27 34
REMARK H PARENT 12 4 2 17
ROOT
ATOM      1  C   UNL     1       1.067  -2.137  -1.221  1.00  0.00     0.265 C 
ENDROOT
BRANCH   1   2
ATOM      2  N   UNL     1       2.449  -1.525  -1.272  1.00  0.00    -0.334 N 
ATOM      3  C   UNL     1       3.047  -1.227   0.079  1.00  0.00     0.333 C 
ATOM      4  H   UNL     1       3.056  -2.255  -1.667  1.00  0.00     0.348 HD
BRANCH   2   5
ATOM      5  C   UNL     1       2.567  -0.369  -2.252  1.00  0.00     0.298 C 
BRANCH   5   6
ATOM      6  C   UNL     1       3.990  -0.123  -2.674  1.00  0.00     0.010 A 
ATOM      7  C   UNL     1       4.582  -0.878  -3.699  1.00  0.00     0.010 A 
ATOM      8  C   UNL     1       4.770   0.811  -1.981  1.00  0.00     0.056 A 
ATOM      9  C   UNL     1       5.934  -0.710  -4.012  1.00  0.00     0.004 A 
ATOM     10  C   UNL     1       6.133   0.920  -2.257  1.00  0.00     0.133 A 
ATOM     11  C   UNL     1       6.716   0.187  -3.285  1.00  0.00     0.047 A 
BRANCH  10  12
ATOM     12  O   UNL     1       6.957   1.787  -1.527  1.00  0.00    -0.410 OA
BRANCH  12  13
ATOM     13  C   UNL     1       6.947   1.614  -0.147  1.00  0.00     0.412 C 
ATOM     14  N   UNL     1       7.806   2.506   0.427  1.00  0.00    -0.324 N 
ATOM     15  O   UNL     1       6.275   0.792   0.466  1.00  0.00    -0.224 OA
ATOM     16  C   UNL     1       8.115   2.483   1.833  1.00  0.00     0.146 C 
ATOM     17  H   UNL     1       8.387   3.043  -0.202  1.00  0.00     0.166 HD
ENDBRANCH  12  13
ENDBRANCH  10  12
ENDBRANCH   5   6
ENDBRANCH   2   5
ENDBRANCH   1   2
BRANCH   1  18
ATOM     18  C   UNL     1       0.006  -1.204  -0.646  1.00  0.00     0.103 C 
BRANCH  18  19
ATOM     19  C   UNL     1      -0.331  -1.512   0.814  1.00  0.00     0.235 C 
BRANCH  19  20
ATOM     20  O   UNL     1      -1.168  -0.493   1.353  1.00  0.00    -0.493 OA
BRANCH  20  21
ATOM     21  C   UNL     1      -2.513  -0.539   1.117  1.00  0.00     0.119 A 
ATOM     22  C   UNL     1      -3.212   0.599   1.534  1.00  0.00     0.047 A 
ATOM     23  C   UNL     1      -3.212  -1.583   0.513  1.00  0.00     0.047 A 
ATOM     24  C   UNL     1      -4.592   0.706   1.341  1.00  0.00     0.016 A 
ATOM     25  C   UNL     1      -4.595  -1.482   0.318  1.00  0.00     0.016 A 
ATOM     26  C   UNL     1      -5.290  -0.343   0.740  1.00  0.00     0.023 A 
BRANCH  26  27
ATOM     27  C   UNL     1      -6.747  -0.269   0.472  1.00  0.00     0.193 C 
ATOM     28  O   UNL     1      -7.182  -0.785  -0.555  1.00  0.00    -0.289 OA
BRANCH  27  29
ATOM     29  C   UNL     1      -7.681   0.413   1.403  1.00  0.00     0.022 A 
ATOM     30  C   UNL     1      -8.798   1.065   0.866  1.00  0.00     0.012 A 
ATOM     31  C   UNL     1      -7.494   0.381   2.790  1.00  0.00     0.012 A 
ATOM     32  C   UNL     1      -9.704   1.709   1.710  1.00  0.00     0.001 A 
ATOM     33  C   UNL     1      -8.403   1.027   3.630  1.00  0.00     0.001 A 
ATOM     34  C   UNL     1      -9.503   1.693   3.090  1.00  0.00     0.000 A 
ENDBRANCH  27  29
ENDBRANCH  26  27
ENDBRANCH  20  21
ENDBRANCH  19  20
ENDBRANCH  18  19
ENDBRANCH   1  18
TORSDOF 11
