REMARK SMILES COc1ccc(OC)c([C@H]2CC(c3cc(F)ccc3F)=NN2c2ccc(S(N)(=O)=O)cc2)c1
REMARK SMILES IDX 23 1 24 2 25 3 26 4 31 5 32 6 22 7 10 8 11 9 12 10 21 11
REMARK SMILES IDX 9 12 3 13 4 14 33 15 5 16 6 17 2 18 1 19 7 20 8 21 13 22
REMARK SMILES IDX 14 23 19 24 15 25 18 26 17 27 20 28 16 29 27 30 29 31 30 32
REMARK SMILES IDX 28 33
REMARK H PARENT 28 34 28 35
ROOT
ATOM      1  C   UNL     1       1.510   0.592   0.530  1.00  0.00     0.060 A 
ATOM      2  C   UNL     1       2.782   0.298   0.001  1.00  0.00     0.029 A 
ATOM      3  C   UNL     1       3.787   1.265  -0.108  1.00  0.00     0.024 A 
ATOM      4  C   UNL     1       3.535   2.562   0.329  1.00  0.00     0.082 A 
ATOM      5  C   UNL     1       2.287   2.896   0.850  1.00  0.00     0.024 A 
ATOM      6  C   UNL     1       1.292   1.913   0.951  1.00  0.00     0.029 A 
ENDROOT
BRANCH   1   7
ATOM      7  N   UNL     1       0.532  -0.399   0.613  1.00  0.00    -0.257 N 
ATOM      8  C   UNL     1      -0.839  -0.236   1.113  1.00  0.00     0.148 C 
ATOM      9  C   UNL     1      -1.300  -1.676   1.342  1.00  0.00     0.091 C 
ATOM     10  C   UNL     1      -0.160  -2.431   0.719  1.00  0.00     0.074 C 
ATOM     11  N   UNL     1       0.858  -1.703   0.366  1.00  0.00    -0.176 NA
BRANCH   8  12
ATOM     12  C   UNL     1      -1.747   0.534   0.166  1.00  0.00     0.023 A 
ATOM     13  C   UNL     1      -3.225   2.467  -0.171  1.00  0.00     0.119 A 
ATOM     14  C   UNL     1      -3.478   2.052  -1.475  1.00  0.00     0.050 A 
ATOM     15  C   UNL     1      -2.374   1.705   0.638  1.00  0.00     0.056 A 
ATOM     16  C   UNL     1      -2.881   0.888  -1.962  1.00  0.00     0.050 A 
ATOM     17  C   UNL     1      -2.013   0.146  -1.154  1.00  0.00     0.124 A 
BRANCH  13  18
ATOM     18  O   UNL     1      -3.745   3.577   0.437  1.00  0.00    -0.497 OA
ATOM     19  C   UNL     1      -4.579   4.412  -0.356  1.00  0.00     0.278 C 
ENDBRANCH  13  18
BRANCH  17  20
ATOM     20  O   UNL     1      -1.498  -1.024  -1.646  1.00  0.00    -0.496 OA
ATOM     21  C   UNL     1      -0.488  -0.761  -2.624  1.00  0.00     0.278 C 
ENDBRANCH  17  20
ENDBRANCH   8  12
BRANCH  10  22
ATOM     22  C   UNL     1      -0.185  -3.898   0.539  1.00  0.00     0.037 A 
ATOM     23  C   UNL     1       0.841  -4.501  -0.202  1.00  0.00     0.052 A 
ATOM     24  C   UNL     1      -1.194  -4.700   1.079  1.00  0.00     0.132 A 
ATOM     25  C   UNL     1       0.835  -5.880  -0.391  1.00  0.00     0.124 A 
ATOM     26  C   UNL     1      -1.192  -6.082   0.886  1.00  0.00     0.043 A 
ATOM     27  C   UNL     1      -0.171  -6.676   0.145  1.00  0.00     0.042 A 
ATOM     28  F   UNL     1      -2.186  -4.175   1.811  1.00  0.00    -0.206 F 
ATOM     29  F   UNL     1       1.815  -6.451  -1.101  1.00  0.00    -0.207 F 
ENDBRANCH  10  22
ENDBRANCH   1   7
BRANCH   4  30
ATOM     30  S   UNL     1       4.783   3.801   0.168  1.00  0.00     0.238 S 
ATOM     31  O   UNL     1       5.700   3.424  -0.882  1.00  0.00    -0.207 OA
ATOM     32  O   UNL     1       4.171   5.108   0.226  1.00  0.00    -0.207 OA
BRANCH  30  33
ATOM     33  N   UNL     1       5.633   3.630   1.606  1.00  0.00    -0.225 NA
ATOM     34  H   UNL     1       5.560   4.486   2.155  1.00  0.00     0.137 HD
ATOM     35  H   UNL     1       6.591   3.342   1.409  1.00  0.00     0.137 HD
ENDBRANCH  30  33
ENDBRANCH   4  30
TORSDOF 7
