REMARK SMILES O=C1c2cccc([N+](=O)[O-])c2C(=O)N1CC[C@H]1CC[N@@H+](Cc2ccccc2)CC1
REMARK SMILES IDX 16 1 17 2 19 3 20 4 18 5 28 6 29 7 21 9 22 10 23 11 27 12
REMARK SMILES IDX 24 13 26 14 25 15 15 16 14 17 12 18 2 19 11 20 3 21 7 22
REMARK SMILES IDX 4 23 6 24 5 25 13 26 1 27 8 28 9 29 10 30
REMARK H PARENT 20 8
ROOT
ATOM      1  C   UNL     1       0.358   1.174   0.653  1.00  0.00     0.026 C 
ENDROOT
BRANCH   1   2
ATOM      2  C   UNL     1      -0.627   0.027   0.321  1.00  0.00     0.002 C 
ATOM      3  C   UNL     1      -2.715   0.854  -0.969  1.00  0.00     0.262 C 
ATOM      4  N   UNL     1      -3.562   0.178   0.082  1.00  0.00    -0.331 N 
ATOM      5  C   UNL     1      -1.350   0.182  -1.025  1.00  0.00     0.065 C 
ATOM      6  C   UNL     1      -2.948   0.295   1.446  1.00  0.00     0.262 C 
ATOM      7  C   UNL     1      -1.575  -0.364   1.464  1.00  0.00     0.065 C 
ATOM      8  H   UNL     1      -3.616  -0.818  -0.168  1.00  0.00     0.348 HD
BRANCH   4   9
ATOM      9  C   UNL     1      -4.993   0.684   0.070  1.00  0.00     0.299 C 
BRANCH   9  10
ATOM     10  C   UNL     1      -5.772   0.216  -1.129  1.00  0.00     0.006 A 
ATOM     11  C   UNL     1      -6.053   1.097  -2.184  1.00  0.00     0.009 A 
ATOM     12  C   UNL     1      -6.209  -1.115  -1.218  1.00  0.00     0.009 A 
ATOM     13  C   UNL     1      -6.752   0.652  -3.308  1.00  0.00     0.001 A 
ATOM     14  C   UNL     1      -6.908  -1.554  -2.343  1.00  0.00     0.001 A 
ATOM     15  C   UNL     1      -7.177  -0.672  -3.387  1.00  0.00     0.000 A 
ENDBRANCH   9  10
ENDBRANCH   4   9
ENDBRANCH   1   2
BRANCH   1  16
ATOM     16  C   UNL     1      -0.217   2.547   1.009  1.00  0.00     0.129 C 
BRANCH  16  17
ATOM     17  N   UNL     1       0.337   3.600   0.179  1.00  0.00    -0.274 N 
ATOM     18  C   UNL     1      -0.144   3.928  -1.057  1.00  0.00     0.268 C 
ATOM     19  C   UNL     1       1.493   4.274   0.466  1.00  0.00     0.261 C 
ATOM     20  C   UNL     1       0.718   4.982  -1.579  1.00  0.00     0.130 A 
ATOM     21  C   UNL     1       1.733   5.180  -0.659  1.00  0.00     0.060 A 
ATOM     22  C   UNL     1       0.691   5.707  -2.748  1.00  0.00     0.282 A 
ATOM     23  C   UNL     1       2.755   6.088  -0.872  1.00  0.00     0.015 A 
ATOM     24  C   UNL     1       1.708   6.634  -3.011  1.00  0.00     0.086 A 
ATOM     25  C   UNL     1       2.737   6.819  -2.068  1.00  0.00     0.008 A 
ATOM     26  O   UNL     1      -1.071   3.416  -1.654  1.00  0.00    -0.268 OA
ATOM     27  O   UNL     1       2.220   4.161   1.432  1.00  0.00    -0.269 OA
BRANCH  22  28
ATOM     28  N   UNL     1      -0.387   5.531  -3.684  1.00  0.00     0.063 N 
ATOM     29  O   UNL     1      -1.513   5.879  -3.309  1.00  0.00    -0.258 OA
ATOM     30  O   UNL     1      -0.094   5.065  -4.791  1.00  0.00    -0.258 OA
ENDBRANCH  22  28
ENDBRANCH  16  17
ENDBRANCH   1  16
TORSDOF 6
