REMARK SMILES O=C(Cc1cc(=O)oc2cc(O)ccc12)NCCCCN=c1c2c([nH]c3ccccc13)CCCC2
REMARK SMILES IDX 18 1 19 2 20 3 21 4 22 5 25 6 24 7 26 8 23 9 32 10 27 11
REMARK SMILES IDX 31 12 35 13 33 14 28 15 30 16 34 17 29 18 17 20 16 21 2 22
REMARK SMILES IDX 1 24 3 25 4 26 5 27 15 28 6 29 14 30 9 31 8 32 13 33 10 34
REMARK SMILES IDX 11 35 7 36 12 37
REMARK H PARENT 25 19 16 23 12 38
ROOT
ATOM      1  C   UNL     1       0.204  -1.653   0.932  1.00  0.00     0.023 C 
ENDROOT
BRANCH   1   2
ATOM      2  C   UNL     1      -0.551  -0.353   0.642  1.00  0.00     0.025 C 
BRANCH   2   3
ATOM      3  C   UNL     1      -1.369  -0.393  -0.647  1.00  0.00     0.143 C 
BRANCH   3   4
ATOM      4  N   UNL     1      -2.097   0.846  -0.782  1.00  0.00    -0.284 NA
BRANCH   4   5
ATOM      5  C   UNL     1      -3.351   1.070  -0.631  1.00  0.00     0.072 A 
ATOM      6  N   UNL     1      -6.096   1.748  -0.929  1.00  0.00    -0.358 N 
ATOM      7  C   UNL     1      -5.749   0.541  -0.360  1.00  0.00     0.021 A 
ATOM      8  C   UNL     1      -5.148   2.761  -1.104  1.00  0.00     0.048 A 
ATOM      9  C   UNL     1      -4.468   0.144  -0.172  1.00  0.00    -0.003 A 
ATOM     10  C   UNL     1      -6.931  -0.307   0.077  1.00  0.00     0.054 C 
ATOM     11  C   UNL     1      -5.545   4.048  -1.489  1.00  0.00     0.027 A 
ATOM     12  C   UNL     1      -3.785   2.476  -0.970  1.00  0.00     0.024 A 
ATOM     13  C   UNL     1      -4.148  -1.137   0.552  1.00  0.00     0.039 C 
ATOM     14  C   UNL     1      -6.574  -1.721   0.523  1.00  0.00     0.007 C 
ATOM     15  C   UNL     1      -4.598   5.052  -1.698  1.00  0.00     0.002 A 
ATOM     16  C   UNL     1      -2.835   3.488  -1.185  1.00  0.00     0.012 A 
ATOM     17  C   UNL     1      -5.312  -1.703   1.367  1.00  0.00     0.005 C 
ATOM     18  C   UNL     1      -3.242   4.773  -1.542  1.00  0.00     0.001 A 
ATOM     19  H   UNL     1      -7.063   2.040  -0.838  1.00  0.00     0.166 HD
ENDBRANCH   4   5
ENDBRANCH   3   4
ENDBRANCH   2   3
ENDBRANCH   1   2
BRANCH   1  20
ATOM     20  C   UNL     1       1.169  -2.109  -0.161  1.00  0.00     0.116 C 
BRANCH  20  21
ATOM     21  N   UNL     1       2.200  -1.129  -0.439  1.00  0.00    -0.356 N 
ATOM     22  C   UNL     1       3.375  -1.512  -1.060  1.00  0.00     0.224 C 
ATOM     23  H   UNL     1       1.903  -0.171  -0.577  1.00  0.00     0.163 HD
ATOM     24  O   UNL     1       3.654  -2.680  -1.314  1.00  0.00    -0.275 OA
BRANCH  22  25
ATOM     25  C   UNL     1       4.291  -0.342  -1.415  1.00  0.00     0.136 C 
BRANCH  25  26
ATOM     26  C   UNL     1       5.726  -0.629  -1.053  1.00  0.00    -0.020 A 
ATOM     27  C   UNL     1       6.626  -0.935  -2.001  1.00  0.00     0.098 A 
ATOM     28  C   UNL     1       6.187  -0.564   0.344  1.00  0.00     0.022 A 
ATOM     29  C   UNL     1       8.044  -1.211  -1.726  1.00  0.00     0.336 A 
ATOM     30  C   UNL     1       5.354  -0.259   1.430  1.00  0.00     0.016 A 
ATOM     31  C   UNL     1       7.534  -0.822   0.617  1.00  0.00     0.142 A 
ATOM     32  O   UNL     1       8.448  -1.140  -0.406  1.00  0.00    -0.423 OA
ATOM     33  C   UNL     1       5.860  -0.216   2.736  1.00  0.00     0.047 A 
ATOM     34  C   UNL     1       8.054  -0.781   1.911  1.00  0.00     0.094 A 
ATOM     35  C   UNL     1       7.206  -0.477   2.964  1.00  0.00     0.119 A 
ATOM     36  O   UNL     1       8.819  -1.472  -2.639  1.00  0.00    -0.246 OA
BRANCH  35  37
ATOM     37  O   UNL     1       7.735  -0.444   4.220  1.00  0.00    -0.508 OA
ATOM     38  H   UNL     1       7.027  -0.249   4.855  1.00  0.00     0.293 HD
ENDBRANCH  35  37
ENDBRANCH  25  26
ENDBRANCH  22  25
ENDBRANCH  20  21
ENDBRANCH   1  20
TORSDOF 9
