REMARK SMILES O=C1CC(=NCCN=c2c3c([nH]c4cc(Cl)ccc24)CCCC3)C(=O)c2ccccc21
REMARK SMILES IDX 7 1 8 2 9 3 12 4 11 5 13 6 10 7 20 8 14 9 19 10 23 11 21 12
REMARK SMILES IDX 15 13 18 14 22 15 17 16 16 18 6 19 5 20 4 21 3 22 24 23 2 24
REMARK SMILES IDX 26 25 31 26 27 27 30 28 28 29 29 30 25 31 1 32
REMARK H PARENT 12 17
ROOT
ATOM      1  C   UNL     1       0.158  -1.316   3.142  1.00  0.00     0.166 C 
ENDROOT
BRANCH   1   2
ATOM      2  N   UNL     1       0.438  -0.080   2.432  1.00  0.00    -0.282 NA
BRANCH   2   3
ATOM      3  C   UNL     1      -0.264   0.503   1.534  1.00  0.00     0.072 A 
ATOM      4  N   UNL     1      -1.134   1.541  -0.952  1.00  0.00    -0.358 N 
ATOM      5  C   UNL     1      -1.939   0.657  -0.262  1.00  0.00     0.021 A 
ATOM      6  C   UNL     1      -0.083   2.200  -0.303  1.00  0.00     0.049 A 
ATOM      7  C   UNL     1      -1.616   0.141   0.947  1.00  0.00    -0.003 A 
ATOM      8  C   UNL     1      -3.248   0.322  -0.955  1.00  0.00     0.054 C 
ATOM      9  C   UNL     1       0.574   3.270  -0.919  1.00  0.00     0.047 A 
ATOM     10  C   UNL     1       0.382   1.724   0.928  1.00  0.00     0.024 A 
ATOM     11  C   UNL     1      -2.583  -0.706   1.727  1.00  0.00     0.039 C 
ATOM     12  C   UNL     1      -4.034  -0.813  -0.306  1.00  0.00     0.007 C 
ATOM     13  C   UNL     1       1.665   3.874  -0.293  1.00  0.00     0.043 A 
ATOM     14  C   UNL     1       1.479   2.337   1.552  1.00  0.00     0.014 A 
ATOM     15  C   UNL     1      -4.021  -0.661   1.205  1.00  0.00     0.005 C 
ATOM     16  C   UNL     1       2.117   3.418   0.942  1.00  0.00     0.021 A 
ATOM     17  H   UNL     1      -1.565   2.021  -1.736  1.00  0.00     0.166 HD
ATOM     18  Cl  UNL     1       2.472   5.182  -1.067  1.00  0.00    -0.084 Cl
ENDBRANCH   2   3
ENDBRANCH   1   2
BRANCH   1  19
ATOM     19  C   UNL     1       0.814  -2.512   2.442  1.00  0.00     0.166 C 
BRANCH  19  20
ATOM     20  N   UNL     1       0.162  -2.774   1.158  1.00  0.00    -0.283 NA
BRANCH  20  21
ATOM     21  C   UNL     1       0.751  -2.510   0.043  1.00  0.00     0.091 C 
ATOM     22  C   UNL     1       0.011  -2.707  -1.244  1.00  0.00     0.141 C 
ATOM     23  C   UNL     1       2.155  -1.986  -0.133  1.00  0.00     0.207 C 
ATOM     24  C   UNL     1       0.185  -1.584  -2.231  1.00  0.00     0.169 C 
ATOM     25  C   UNL     1       2.325  -0.898  -1.106  1.00  0.00     0.035 A 
ATOM     26  C   UNL     1       1.374  -0.702  -2.110  1.00  0.00     0.029 A 
ATOM     27  C   UNL     1       3.465  -0.089  -1.040  1.00  0.00     0.013 A 
ATOM     28  C   UNL     1       1.570   0.318  -3.051  1.00  0.00     0.012 A 
ATOM     29  C   UNL     1       3.648   0.929  -1.975  1.00  0.00     0.001 A 
ATOM     30  C   UNL     1       2.703   1.131  -2.980  1.00  0.00     0.001 A 
ATOM     31  O   UNL     1       3.104  -2.495   0.441  1.00  0.00    -0.287 OA
ATOM     32  O   UNL     1      -0.601  -1.424  -3.163  1.00  0.00    -0.294 OA
ENDBRANCH  20  21
ENDBRANCH  19  20
ENDBRANCH   1  19
TORSDOF 5
