REMARK SMILES CNC(=O)Oc1ccc2c(c1)[C@]1(C)CCO[C@@H]1N2C
REMARK SMILES IDX 5 1 3 2 2 3 1 4 4 6 6 7 7 8 11 9 8 10 10 11 9 12 12 13 18 14
REMARK SMILES IDX 14 15 17 16 15 17 16 18 13 19 19 20
REMARK H PARENT 2 5
ROOT
ATOM      1  O   UNL     1       3.011  -0.163  -1.117  1.00  0.00    -0.410 OA
ENDROOT
BRANCH   1   2
ATOM      2  C   UNL     1       3.627  -0.956  -0.161  1.00  0.00     0.412 C 
ATOM      3  N   UNL     1       4.818  -1.409  -0.657  1.00  0.00    -0.324 N 
ATOM      4  C   UNL     1       5.751  -2.142   0.155  1.00  0.00     0.146 C 
ATOM      5  H   UNL     1       5.111  -1.017  -1.540  1.00  0.00     0.166 HD
ATOM      6  O   UNL     1       3.198  -1.211   0.956  1.00  0.00    -0.224 OA
ENDBRANCH   1   2
BRANCH   1   7
ATOM      7  C   UNL     1       1.761   0.361  -0.761  1.00  0.00     0.133 A 
ATOM      8  C   UNL     1       1.631   1.755  -0.738  1.00  0.00     0.049 A 
ATOM      9  C   UNL     1       0.672  -0.477  -0.530  1.00  0.00     0.054 A 
ATOM     10  C   UNL     1       0.393   2.336  -0.445  1.00  0.00     0.030 A 
ATOM     11  C   UNL     1      -0.543   0.120  -0.230  1.00  0.00    -0.010 A 
ATOM     12  C   UNL     1      -0.693   1.514  -0.179  1.00  0.00     0.043 A 
ATOM     13  C   UNL     1      -1.859  -0.526   0.086  1.00  0.00     0.042 C 
ATOM     14  N   UNL     1      -2.014   1.902   0.096  1.00  0.00    -0.348 N 
ATOM     15  C   UNL     1      -2.650  -0.936  -1.145  1.00  0.00     0.045 C 
ATOM     16  C   UNL     1      -2.666   0.688   0.604  1.00  0.00     0.225 C 
ATOM     17  C   UNL     1      -4.066  -0.546  -0.777  1.00  0.00     0.164 C 
ATOM     18  O   UNL     1      -3.991   0.602   0.072  1.00  0.00    -0.357 OA
ATOM     19  C   UNL     1      -1.764  -1.641   1.128  1.00  0.00     0.021 C 
ATOM     20  C   UNL     1      -2.240   3.139   0.816  1.00  0.00     0.146 C 
ENDBRANCH   1   7
TORSDOF 2
