REMARK SMILES COc1cc2c(cc1OC)S[C@H](C(=O)CCc1cc[n+](Cc3ccsc3)cc1)C2
REMARK SMILES IDX 15 1 13 2 14 3 12 4 3 5 4 6 8 7 5 8 7 9 6 10 29 11 11 12
REMARK SMILES IDX 2 13 1 14 9 15 10 16 16 17 17 18 18 19 28 20 19 21 27 22
REMARK SMILES IDX 20 23 21 24 22 25 23 26 26 27 24 28 25 29
REMARK H PARENT
ROOT
ATOM      1  C   UNL     1      -1.148  -2.915  -3.053  1.00  0.00     0.081 C 
ENDROOT
BRANCH   1   2
ATOM      2  C   UNL     1       0.333  -2.804  -2.720  1.00  0.00     0.146 C 
ATOM      3  O   UNL     1       0.802  -3.511  -1.820  1.00  0.00    -0.298 OA
BRANCH   2   4
ATOM      4  C   UNL     1       1.246  -1.905  -3.566  1.00  0.00     0.123 C 
ATOM      5  C   UNL     1       2.201   1.073   0.034  1.00  0.00     0.161 A 
ATOM      6  C   UNL     1       2.685  -0.043  -0.658  1.00  0.00     0.055 A 
ATOM      7  C   UNL     1       1.196   1.870  -0.555  1.00  0.00     0.161 A 
ATOM      8  C   UNL     1       2.122  -0.368  -1.890  1.00  0.00    -0.029 A 
ATOM      9  C   UNL     1       0.638   1.546  -1.790  1.00  0.00     0.065 A 
ATOM     10  C   UNL     1       1.103   0.416  -2.434  1.00  0.00     0.015 A 
ATOM     11  C   UNL     1       2.513  -1.535  -2.764  1.00  0.00     0.059 C 
ATOM     12  S   UNL     1       0.470  -0.283  -3.925  1.00  0.00    -0.114 SA
BRANCH   5  13
ATOM     13  O   UNL     1       2.585   1.418   1.303  1.00  0.00    -0.493 OA
ATOM     14  C   UNL     1       3.877   0.972   1.710  1.00  0.00     0.278 C 
ENDBRANCH   5  13
BRANCH   7  15
ATOM     15  O   UNL     1       0.645   2.938   0.114  1.00  0.00    -0.493 OA
ATOM     16  C   UNL     1       1.504   4.079  -0.004  1.00  0.00     0.278 C 
ENDBRANCH   7  15
ENDBRANCH   2   4
ENDBRANCH   1   2
BRANCH   1  17
ATOM     17  C   UNL     1      -1.996  -3.061  -1.784  1.00  0.00     0.044 C 
BRANCH  17  18
ATOM     18  C   UNL     1      -1.848  -1.904  -0.816  1.00  0.00    -0.036 A 
ATOM     19  C   UNL     1      -1.006  -2.017   0.293  1.00  0.00     0.074 A 
ATOM     20  C   UNL     1      -2.516  -0.698  -1.016  1.00  0.00     0.074 A 
ATOM     21  C   UNL     1      -0.850  -0.943   1.161  1.00  0.00     0.308 A 
ATOM     22  C   UNL     1      -2.338   0.350  -0.115  1.00  0.00     0.308 A 
ATOM     23  N   UNL     1      -1.517   0.214   0.951  1.00  0.00    -0.201 N 
BRANCH  23  24
ATOM     24  C   UNL     1      -1.339   1.340   1.901  1.00  0.00     0.394 C 
BRANCH  24  25
ATOM     25  C   UNL     1      -2.202   1.125   3.108  1.00  0.00     0.027 A 
ATOM     26  C   UNL     1      -1.719   0.680   4.386  1.00  0.00     0.022 A 
ATOM     27  C   UNL     1      -3.569   1.337   3.153  1.00  0.00     0.075 A 
ATOM     28  C   UNL     1      -2.723   0.558   5.321  1.00  0.00     0.065 A 
ATOM     29  S   UNL     1      -4.248   0.979   4.681  1.00  0.00    -0.152 S 
ENDBRANCH  24  25
ENDBRANCH  23  24
ENDBRANCH  17  18
ENDBRANCH   1  17
TORSDOF 8
