REMARK SMILES CCCCCCCNC(=O)Oc1ccc2c(c1)[C@]1(C)CC[N@@H+](C)[C@@H]1N2C
REMARK SMILES IDX 6 1 7 2 8 3 9 4 10 5 11 7 12 8 21 9 22 10 20 11 24 12 18 13
REMARK SMILES IDX 25 14 16 15 15 16 17 17 14 18 13 19 23 20 19 22 26 23 5 24
REMARK SMILES IDX 4 25 3 26 2 27 1 28
REMARK H PARENT 8 6 22 21
ROOT
ATOM      1  C   UNL     1       5.016  -1.817   0.591  1.00  0.00     0.021 C 
ENDROOT
BRANCH   1   2
ATOM      2  C   UNL     1       3.785  -0.966   0.295  1.00  0.00     0.119 C 
BRANCH   2   3
ATOM      3  N   UNL     1       2.567  -1.708   0.540  1.00  0.00    -0.321 N 
ATOM      4  C   UNL     1       1.364  -1.306   0.029  1.00  0.00     0.412 C 
ATOM      5  O   UNL     1       1.214  -0.389  -0.767  1.00  0.00    -0.224 OA
ATOM      6  H   UNL     1       2.523  -2.361   1.310  1.00  0.00     0.167 HD
BRANCH   4   7
ATOM      7  O   UNL     1       0.352  -2.088   0.571  1.00  0.00    -0.410 OA
BRANCH   7   8
ATOM      8  C   UNL     1      -0.939  -1.798   0.112  1.00  0.00     0.133 A 
ATOM      9  C   UNL     1      -5.679   1.442   1.087  1.00  0.00     0.265 C 
ATOM     10  N   UNL     1      -6.053   0.608  -0.094  1.00  0.00    -0.317 N 
ATOM     11  C   UNL     1      -4.238   1.073   1.349  1.00  0.00     0.081 C 
ATOM     12  C   UNL     1      -4.849   0.485  -0.953  1.00  0.00     0.296 C 
ATOM     13  C   UNL     1      -3.647   0.887  -0.052  1.00  0.00     0.072 C 
ATOM     14  N   UNL     1      -4.818  -0.947  -1.222  1.00  0.00    -0.325 N 
ATOM     15  C   UNL     1      -2.809  -0.347  -0.139  1.00  0.00    -0.007 A 
ATOM     16  C   UNL     1      -3.516  -1.352  -0.810  1.00  0.00     0.045 A 
ATOM     17  C   UNL     1      -1.524  -0.554   0.342  1.00  0.00     0.054 A 
ATOM     18  C   UNL     1      -2.941  -2.605  -0.987  1.00  0.00     0.030 A 
ATOM     19  C   UNL     1      -1.641  -2.828  -0.523  1.00  0.00     0.049 A 
ATOM     20  C   UNL     1      -7.301   1.024  -0.778  1.00  0.00     0.334 C 
ATOM     21  H   UNL     1      -6.155  -0.373   0.201  1.00  0.00     0.349 HD
ATOM     22  C   UNL     1      -2.946   2.140  -0.571  1.00  0.00     0.025 C 
ATOM     23  C   UNL     1      -5.112  -1.366  -2.598  1.00  0.00     0.150 C 
ENDBRANCH   7   8
ENDBRANCH   4   7
ENDBRANCH   2   3
ENDBRANCH   1   2
BRANCH   1  24
ATOM     24  C   UNL     1       6.341  -1.125   0.256  1.00  0.00     0.002 C 
BRANCH  24  25
ATOM     25  C   UNL     1       6.991  -0.374   1.423  1.00  0.00     0.000 C 
BRANCH  25  26
ATOM     26  C   UNL     1       6.261   0.871   1.929  1.00  0.00    -0.000 C 
BRANCH  26  27
ATOM     27  C   UNL     1       6.021   1.966   0.887  1.00  0.00    -0.003 C 
ATOM     28  C   UNL     1       7.303   2.526   0.289  1.00  0.00     0.004 C 
ENDBRANCH  26  27
ENDBRANCH  25  26
ENDBRANCH  24  25
ENDBRANCH   1  24
TORSDOF 8
