REMARK SMILES COc1cc(C=Cc2nnc(-c3ccc(Cl)cc3Cl)o2)ccc1O
REMARK SMILES IDX 6 1 5 2 23 3 22 4 3 5 21 6 4 7 24 8 2 10 1 11 7 12 8 13 9 14
REMARK SMILES IDX 20 15 10 16 11 17 12 18 13 19 18 20 14 21 17 22 15 23 19 24
REMARK SMILES IDX 16 25
REMARK H PARENT 24 9
ROOT
ATOM      1  C   UNL     1      -1.276  -0.667  -0.091  1.00  0.00     0.014 C 
ENDROOT
BRANCH   1   2
ATOM      2  C   UNL     1      -2.556  -0.308  -0.717  1.00  0.00    -0.022 A 
ATOM      3  C   UNL     1      -5.025   0.308  -1.847  1.00  0.00     0.157 A 
ATOM      4  C   UNL     1      -3.896   0.279  -2.655  1.00  0.00     0.051 A 
ATOM      5  C   UNL     1      -4.955   0.024  -0.480  1.00  0.00     0.161 A 
ATOM      6  C   UNL     1      -2.661  -0.035  -2.089  1.00  0.00     0.012 A 
ATOM      7  C   UNL     1      -3.715  -0.289   0.080  1.00  0.00     0.058 A 
BRANCH   3   8
ATOM      8  O   UNL     1      -6.225   0.619  -2.426  1.00  0.00    -0.504 OA
ATOM      9  H   UNL     1      -6.874   0.578  -1.697  1.00  0.00     0.293 HD
ENDBRANCH   3   8
BRANCH   5  10
ATOM     10  O   UNL     1      -6.153   0.086   0.185  1.00  0.00    -0.493 OA
ATOM     11  C   UNL     1      -6.125  -0.204   1.578  1.00  0.00     0.278 C 
ENDBRANCH   5  10
ENDBRANCH   1   2
BRANCH   1  12
ATOM     12  C   UNL     1      -0.108  -0.076  -0.390  1.00  0.00     0.071 C 
BRANCH  12  13
ATOM     13  C   UNL     1       1.097  -0.453   0.262  1.00  0.00     0.241 A 
ATOM     14  N   UNL     1       1.260  -1.370   1.205  1.00  0.00    -0.108 NA
ATOM     15  O   UNL     1       2.310   0.140  -0.040  1.00  0.00    -0.417 OA
ATOM     16  N   UNL     1       2.593  -1.394   1.547  1.00  0.00    -0.107 NA
ATOM     17  C   UNL     1       3.189  -0.493   0.801  1.00  0.00     0.249 A 
BRANCH  17  18
ATOM     18  C   UNL     1       4.588  -0.079   0.717  1.00  0.00     0.058 A 
ATOM     19  C   UNL     1       5.048   0.569  -0.448  1.00  0.00     0.017 A 
ATOM     20  C   UNL     1       5.518  -0.307   1.750  1.00  0.00     0.055 A 
ATOM     21  C   UNL     1       6.381   0.971  -0.581  1.00  0.00     0.021 A 
ATOM     22  C   UNL     1       6.854   0.097   1.616  1.00  0.00     0.041 A 
ATOM     23  C   UNL     1       7.278   0.731   0.453  1.00  0.00     0.042 A 
ATOM     24  Cl  UNL     1       5.098  -1.055   3.253  1.00  0.00    -0.083 Cl
ATOM     25  Cl  UNL     1       8.918   1.224   0.295  1.00  0.00    -0.084 Cl
ENDBRANCH  17  18
ENDBRANCH  12  13
ENDBRANCH   1  12
TORSDOF 6
