REMARK SMILES CC1=C[C@@H]2Cc3nc4cc(Cl)ccc4c(N)c3[C@H](C1)C2
REMARK SMILES IDX 1 1 2 2 3 3 4 4 5 5 6 6 7 7 8 8 9 9 10 10 11 11 12 12 13 13
REMARK SMILES IDX 14 14 15 15 17 16 18 17 19 18 20 19 16 20
REMARK H PARENT 16 21 16 22
ROOT
ATOM      1  C   UNL     1       3.959  -1.801   2.268  1.00  0.00     0.039 C 
ATOM      2  C   UNL     1       2.578  -1.952   1.701  1.00  0.00    -0.076 C 
ATOM      3  C   UNL     1       2.328  -2.684   0.600  1.00  0.00    -0.024 C 
ATOM      4  C   UNL     1       0.938  -2.863   0.027  1.00  0.00     0.018 C 
ATOM      5  C   UNL     1       0.705  -1.906  -1.149  1.00  0.00     0.064 C 
ATOM      6  C   UNL     1       0.399  -0.483  -0.734  1.00  0.00     0.047 A 
ATOM      7  N   UNL     1       0.383   0.410  -1.752  1.00  0.00    -0.252 NA
ATOM      8  C   UNL     1       0.041   1.676  -1.499  1.00  0.00     0.074 A 
ATOM      9  C   UNL     1      -0.010   2.550  -2.575  1.00  0.00     0.049 A 
ATOM     10  C   UNL     1      -0.386   3.879  -2.410  1.00  0.00     0.043 A 
ATOM     11  Cl  UNL     1      -0.441   4.931  -3.771  1.00  0.00    -0.084 Cl
ATOM     12  C   UNL     1      -0.724   4.359  -1.155  1.00  0.00     0.021 A 
ATOM     13  C   UNL     1      -0.673   3.496  -0.060  1.00  0.00     0.014 A 
ATOM     14  C   UNL     1      -0.278   2.141  -0.205  1.00  0.00     0.024 A 
ATOM     15  C   UNL     1      -0.179   1.214   0.871  1.00  0.00     0.046 A 
ATOM     16  C   UNL     1       0.096  -0.140   0.590  1.00  0.00     0.001 A 
ATOM     17  C   UNL     1       0.117  -1.210   1.678  1.00  0.00     0.028 C 
ATOM     18  C   UNL     1       1.471  -1.218   2.430  1.00  0.00     0.039 C 
ATOM     19  C   UNL     1      -0.135  -2.602   1.086  1.00  0.00     0.017 C 
ENDROOT
BRANCH  15  20
ATOM     20  N   UNL     1      -0.555   1.602   2.182  1.00  0.00    -0.398 N 
ATOM     21  H   UNL     1      -0.359   2.577   2.385  1.00  0.00     0.156 HD
ATOM     22  H   UNL     1      -0.183   1.009   2.914  1.00  0.00     0.156 HD
ENDBRANCH  15  20
TORSDOF 1
