REMARK SMILES O=C1C=C(NCCN=c2c3c([nH]c4cc(Cl)ccc24)CCCC3)C(=O)c2ccccc21
REMARK SMILES IDX 7 1 8 2 9 3 12 4 11 5 13 6 10 7 20 8 14 9 19 10 23 11 21 12
REMARK SMILES IDX 15 13 18 14 22 15 17 16 16 18 6 19 5 20 4 22 3 23 24 24 2 25
REMARK SMILES IDX 26 26 31 27 27 28 30 29 28 30 29 31 25 32 1 33
REMARK H PARENT 12 17 5 21
ROOT
ATOM      1  C   UNL     1       0.289   1.169   2.370  1.00  0.00     0.164 C 
ENDROOT
BRANCH   1   2
ATOM      2  N   UNL     1      -0.932   0.439   2.034  1.00  0.00    -0.282 NA
BRANCH   2   3
ATOM      3  C   UNL     1      -1.635   0.639   0.969  1.00  0.00     0.072 A 
ATOM      4  N   UNL     1      -2.623   0.277  -1.637  1.00  0.00    -0.358 N 
ATOM      5  C   UNL     1      -3.093  -0.528  -0.618  1.00  0.00     0.021 A 
ATOM      6  C   UNL     1      -1.987   1.494  -1.340  1.00  0.00     0.049 A 
ATOM      7  C   UNL     1      -2.693  -0.389   0.662  1.00  0.00    -0.003 A 
ATOM      8  C   UNL     1      -4.086  -1.600  -1.014  1.00  0.00     0.054 C 
ATOM      9  C   UNL     1      -1.814   2.458  -2.340  1.00  0.00     0.047 A 
ATOM     10  C   UNL     1      -1.508   1.743  -0.039  1.00  0.00     0.024 A 
ATOM     11  C   UNL     1      -3.184  -1.248   1.795  1.00  0.00     0.039 C 
ATOM     12  C   UNL     1      -4.294  -2.678   0.052  1.00  0.00     0.007 C 
ATOM     13  C   UNL     1      -1.248   3.692  -2.027  1.00  0.00     0.043 A 
ATOM     14  C   UNL     1      -0.999   3.009   0.274  1.00  0.00     0.014 A 
ATOM     15  C   UNL     1      -4.431  -2.055   1.436  1.00  0.00     0.005 C 
ATOM     16  C   UNL     1      -0.859   3.979  -0.722  1.00  0.00     0.021 A 
ATOM     17  H   UNL     1      -3.115   0.219  -2.523  1.00  0.00     0.166 HD
ATOM     18  Cl  UNL     1      -1.060   4.882  -3.256  1.00  0.00    -0.084 Cl
ENDBRANCH   2   3
ENDBRANCH   1   2
BRANCH   1  19
ATOM     19  C   UNL     1       1.243   0.218   3.115  1.00  0.00     0.136 C 
BRANCH  19  20
ATOM     20  N   UNL     1       1.508  -0.987   2.324  1.00  0.00    -0.380 N 
ATOM     21  H   UNL     1       0.643  -1.526   2.255  1.00  0.00     0.160 HD
BRANCH  20  22
ATOM     22  C   UNL     1       2.247  -1.050   1.137  1.00  0.00     0.087 C 
ATOM     23  C   UNL     1       2.062  -2.057   0.270  1.00  0.00     0.082 C 
ATOM     24  C   UNL     1       3.269   0.014   0.795  1.00  0.00     0.209 C 
ATOM     25  C   UNL     1       2.793  -2.204  -0.998  1.00  0.00     0.188 C 
ATOM     26  C   UNL     1       4.039  -0.130  -0.459  1.00  0.00     0.035 A 
ATOM     27  C   UNL     1       3.809  -1.195  -1.324  1.00  0.00     0.033 A 
ATOM     28  C   UNL     1       5.013   0.826  -0.786  1.00  0.00     0.013 A 
ATOM     29  C   UNL     1       4.543  -1.311  -2.512  1.00  0.00     0.013 A 
ATOM     30  C   UNL     1       5.745   0.711  -1.969  1.00  0.00     0.001 A 
ATOM     31  C   UNL     1       5.510  -0.358  -2.832  1.00  0.00     0.001 A 
ATOM     32  O   UNL     1       3.474   0.996   1.503  1.00  0.00    -0.287 OA
ATOM     33  O   UNL     1       2.554  -3.143  -1.747  1.00  0.00    -0.289 OA
ENDBRANCH  20  22
ENDBRANCH  19  20
ENDBRANCH   1  19
TORSDOF 5
