REMARK SMILES O=C(NCCCN=c1c2c([nH]c3ccccc13)CCCC2)c1ccc(F)cc1
REMARK SMILES IDX 5 1 6 2 7 3 8 4 11 5 10 6 12 7 9 8 18 9 13 10 17 11 21 12
REMARK SMILES IDX 19 13 14 14 16 15 20 16 15 17 4 19 3 20 2 21 1 23 22 24
REMARK SMILES IDX 23 25 28 26 24 27 27 28 25 29 26 30
REMARK H PARENT 11 18 3 22
ROOT
ATOM      1  C   UNL     1       1.347   0.557  -0.092  1.00  0.00     0.045 C 
ENDROOT
BRANCH   1   2
ATOM      2  C   UNL     1      -0.006   1.270  -0.088  1.00  0.00     0.144 C 
BRANCH   2   3
ATOM      3  N   UNL     1      -1.013   0.311   0.317  1.00  0.00    -0.284 NA
BRANCH   3   4
ATOM      4  C   UNL     1      -2.276   0.391   0.053  1.00  0.00     0.072 A 
ATOM      5  N   UNL     1      -4.777  -0.092  -1.150  1.00  0.00    -0.358 N 
ATOM      6  C   UNL     1      -4.278  -1.002  -0.240  1.00  0.00     0.021 A 
ATOM      7  C   UNL     1      -4.262   1.214  -1.202  1.00  0.00     0.048 A 
ATOM      8  C   UNL     1      -3.103  -0.823   0.396  1.00  0.00    -0.003 A 
ATOM      9  C   UNL     1      -5.120  -2.236   0.005  1.00  0.00     0.054 C 
ATOM     10  C   UNL     1      -4.965   2.213  -1.888  1.00  0.00     0.027 A 
ATOM     11  C   UNL     1      -3.030   1.519  -0.590  1.00  0.00     0.024 A 
ATOM     12  C   UNL     1      -2.533  -1.794   1.395  1.00  0.00     0.039 C 
ATOM     13  C   UNL     1      -4.377  -3.363   0.723  1.00  0.00     0.007 C 
ATOM     14  C   UNL     1      -4.496   3.526  -1.898  1.00  0.00     0.002 A 
ATOM     15  C   UNL     1      -2.601   2.851  -0.559  1.00  0.00     0.012 A 
ATOM     16  C   UNL     1      -3.556  -2.820   1.885  1.00  0.00     0.005 C 
ATOM     17  C   UNL     1      -3.326   3.848  -1.216  1.00  0.00     0.001 A 
ATOM     18  H   UNL     1      -5.748  -0.207  -1.418  1.00  0.00     0.166 HD
ENDBRANCH   3   4
ENDBRANCH   2   3
ENDBRANCH   1   2
BRANCH   1  19
ATOM     19  C   UNL     1       2.450   1.476  -0.607  1.00  0.00     0.118 C 
BRANCH  19  20
ATOM     20  N   UNL     1       3.741   0.814  -0.598  1.00  0.00    -0.352 N 
ATOM     21  C   UNL     1       4.541   0.824   0.527  1.00  0.00     0.251 C 
ATOM     22  H   UNL     1       3.908   0.118  -1.311  1.00  0.00     0.163 HD
ATOM     23  O   UNL     1       4.269   1.441   1.550  1.00  0.00    -0.269 OA
BRANCH  21  24
ATOM     24  C   UNL     1       5.779  -0.003   0.464  1.00  0.00     0.040 A 
ATOM     25  C   UNL     1       6.444  -0.253  -0.746  1.00  0.00     0.017 A 
ATOM     26  C   UNL     1       6.297  -0.516   1.662  1.00  0.00     0.017 A 
ATOM     27  C   UNL     1       7.606  -1.031  -0.753  1.00  0.00     0.040 A 
ATOM     28  C   UNL     1       7.457  -1.293   1.650  1.00  0.00     0.040 A 
ATOM     29  C   UNL     1       8.098  -1.545   0.442  1.00  0.00     0.123 A 
ATOM     30  F   UNL     1       9.212  -2.289   0.429  1.00  0.00    -0.207 F 
ENDBRANCH  21  24
ENDBRANCH  19  20
ENDBRANCH   1  19
TORSDOF 6
