REMARK SMILES CN(C)C(=O)Oc1cccc([N+](C)(C)C)c1
REMARK SMILES IDX 7 1 8 2 9 3 10 4 11 5 16 6 6 7 4 8 2 9 1 10 3 11 5 12 12 13
REMARK SMILES IDX 13 14 14 15 15 16
REMARK H PARENT
ROOT
ATOM      1  C   UNL     1       0.714  -1.042   0.159  1.00  0.00     0.138 A 
ATOM      2  C   UNL     1       0.573  -2.006   1.151  1.00  0.00     0.048 A 
ATOM      3  C   UNL     1      -0.668  -2.181   1.752  1.00  0.00     0.010 A 
ATOM      4  C   UNL     1      -1.754  -1.391   1.358  1.00  0.00     0.068 A 
ATOM      5  C   UNL     1      -1.620  -0.420   0.347  1.00  0.00     0.135 A 
ATOM      6  C   UNL     1      -0.374  -0.276  -0.272  1.00  0.00     0.115 A 
ENDROOT
BRANCH   1   7
ATOM      7  O   UNL     1       1.987  -0.916  -0.425  1.00  0.00    -0.410 OA
BRANCH   7   8
ATOM      8  C   UNL     1       2.538   0.365  -0.536  1.00  0.00     0.414 C 
ATOM      9  N   UNL     1       3.803   0.357  -1.104  1.00  0.00    -0.314 N 
ATOM     10  C   UNL     1       4.538  -0.868  -1.373  1.00  0.00     0.150 C 
ATOM     11  C   UNL     1       4.566   1.592  -1.139  1.00  0.00     0.150 C 
ATOM     12  O   UNL     1       1.956   1.384  -0.173  1.00  0.00    -0.224 OA
ENDBRANCH   7   8
ENDBRANCH   1   7
BRANCH   5  13
ATOM     13  N   UNL     1      -2.820   0.435  -0.031  1.00  0.00    -0.298 N 
ATOM     14  C   UNL     1      -2.479   1.470  -1.102  1.00  0.00     0.340 C 
ATOM     15  C   UNL     1      -3.918  -0.469  -0.574  1.00  0.00     0.340 C 
ATOM     16  C   UNL     1      -3.289   1.195   1.207  1.00  0.00     0.340 C 
ENDBRANCH   5  13
TORSDOF 3
