REMARK SMILES CNC(=O)Oc1ccc2c(c1)[C@]1(C)CC[N@@H+](C)[C@@H]1N2C
REMARK SMILES IDX 5 1 6 2 15 3 16 4 14 5 18 6 12 7 19 8 10 9 9 10 11 11 8 12
REMARK SMILES IDX 7 13 17 14 13 16 20 17 3 18 2 19 4 20 1 21
REMARK H PARENT 16 15 2 22
ROOT
ATOM      1  O   UNL     1       3.517  -0.376  -0.819  1.00  0.00    -0.410 OA
ENDROOT
BRANCH   1   2
ATOM      2  C   UNL     1       2.183  -0.721  -0.572  1.00  0.00     0.133 A 
ATOM      3  C   UNL     1      -1.706   1.359   1.508  1.00  0.00     0.265 C 
ATOM      4  N   UNL     1      -2.561   0.130   1.376  1.00  0.00    -0.317 N 
ATOM      5  C   UNL     1      -1.500   1.832   0.082  1.00  0.00     0.081 C 
ATOM      6  C   UNL     1      -2.414  -0.400  -0.012  1.00  0.00     0.296 C 
ATOM      7  C   UNL     1      -1.419   0.542  -0.727  1.00  0.00     0.072 C 
ATOM      8  N   UNL     1      -1.792  -1.689   0.270  1.00  0.00    -0.325 N 
ATOM      9  C   UNL     1      -0.140  -0.221  -0.556  1.00  0.00    -0.007 A 
ATOM     10  C   UNL     1      -0.416  -1.491  -0.033  1.00  0.00     0.045 A 
ATOM     11  C   UNL     1       1.153   0.177  -0.852  1.00  0.00     0.054 A 
ATOM     12  C   UNL     1       0.611  -2.396   0.195  1.00  0.00     0.030 A 
ATOM     13  C   UNL     1       1.925  -2.006  -0.080  1.00  0.00     0.049 A 
ATOM     14  C   UNL     1      -3.958   0.266   1.850  1.00  0.00     0.334 C 
ATOM     15  H   UNL     1      -2.108  -0.632   1.899  1.00  0.00     0.349 HD
ATOM     16  C   UNL     1      -1.750   0.744  -2.203  1.00  0.00     0.025 C 
ATOM     17  C   UNL     1      -2.343  -2.846  -0.440  1.00  0.00     0.150 C 
ENDBRANCH   1   2
BRANCH   1  18
ATOM     18  C   UNL     1       3.992   0.670  -0.039  1.00  0.00     0.412 C 
ATOM     19  N   UNL     1       5.297   0.917  -0.361  1.00  0.00    -0.324 N 
ATOM     20  O   UNL     1       3.353   1.279   0.809  1.00  0.00    -0.224 OA
ATOM     21  C   UNL     1       6.102   1.858   0.371  1.00  0.00     0.146 C 
ATOM     22  H   UNL     1       5.740   0.261  -0.990  1.00  0.00     0.166 HD
ENDBRANCH   1  18
TORSDOF 2
