REMARK SMILES COc1ccc([C@@H]2C=C(c3cc(F)ccc3F)NN2c2ccc(S(N)(=O)=O)cc2)c(OC)c1
REMARK SMILES IDX 20 1 21 2 22 3 23 4 28 5 29 6 19 7 18 8 9 9 8 10 7 11 10 13
REMARK SMILES IDX 11 14 16 15 12 16 15 17 14 18 17 19 13 20 6 21 5 22 30 23
REMARK SMILES IDX 4 24 33 25 3 26 31 27 32 28 2 29 1 30 24 31 26 32 27 33
REMARK SMILES IDX 25 34
REMARK H PARENT 18 12 25 35 25 36
ROOT
ATOM      1  C   UNL     1      -1.660  -0.727   0.372  1.00  0.00     0.058 A 
ATOM      2  C   UNL     1      -2.621  -0.510   1.381  1.00  0.00     0.029 A 
ATOM      3  C   UNL     1      -3.545  -1.493   1.750  1.00  0.00     0.024 A 
ATOM      4  C   UNL     1      -3.521  -2.727   1.106  1.00  0.00     0.082 A 
ATOM      5  C   UNL     1      -2.570  -2.989   0.122  1.00  0.00     0.024 A 
ATOM      6  C   UNL     1      -1.651  -1.994  -0.235  1.00  0.00     0.029 A 
ENDROOT
BRANCH   1   7
ATOM      7  N   UNL     1      -0.737   0.279   0.048  1.00  0.00    -0.276 N 
ATOM      8  N   UNL     1      -0.868   1.587   0.508  1.00  0.00    -0.297 N 
ATOM      9  C   UNL     1      -0.222   2.475  -0.341  1.00  0.00     0.063 C 
ATOM     10  C   UNL     1       0.239   1.816  -1.417  1.00  0.00     0.033 C 
ATOM     11  C   UNL     1      -0.063   0.333  -1.287  1.00  0.00     0.164 C 
ATOM     12  H   UNL     1      -0.603   1.736   1.486  1.00  0.00     0.188 HD
BRANCH   9  13
ATOM     13  C   UNL     1      -0.052   3.894  -0.010  1.00  0.00     0.038 A 
ATOM     14  C   UNL     1       0.102   4.855  -1.021  1.00  0.00     0.052 A 
ATOM     15  C   UNL     1      -0.056   4.343   1.321  1.00  0.00     0.132 A 
ATOM     16  C   UNL     1       0.252   6.202  -0.696  1.00  0.00     0.124 A 
ATOM     17  C   UNL     1       0.095   5.693   1.643  1.00  0.00     0.043 A 
ATOM     18  C   UNL     1       0.251   6.630   0.626  1.00  0.00     0.042 A 
ATOM     19  F   UNL     1      -0.195   3.470   2.333  1.00  0.00    -0.206 F 
ATOM     20  F   UNL     1       0.396   7.101  -1.678  1.00  0.00    -0.207 F 
ENDBRANCH   9  13
BRANCH  11  21
ATOM     21  C   UNL     1       1.185  -0.525  -1.399  1.00  0.00     0.023 A 
ATOM     22  C   UNL     1       1.336  -1.339  -2.538  1.00  0.00     0.014 A 
ATOM     23  C   UNL     1       2.220  -0.540  -0.451  1.00  0.00     0.128 A 
ATOM     24  C   UNL     1       2.469  -2.138  -2.710  1.00  0.00     0.047 A 
ATOM     25  C   UNL     1       3.369  -1.324  -0.637  1.00  0.00     0.093 A 
ATOM     26  C   UNL     1       3.492  -2.135  -1.763  1.00  0.00     0.122 A 
BRANCH  23  27
ATOM     27  O   UNL     1       2.165   0.290   0.640  1.00  0.00    -0.496 OA
ATOM     28  C   UNL     1       1.984  -0.458   1.844  1.00  0.00     0.278 C 
ENDBRANCH  23  27
BRANCH  26  29
ATOM     29  O   UNL     1       4.549  -2.950  -2.060  1.00  0.00    -0.497 OA
ATOM     30  C   UNL     1       5.615  -2.988  -1.119  1.00  0.00     0.278 C 
ENDBRANCH  26  29
ENDBRANCH  11  21
ENDBRANCH   1   7
BRANCH   4  31
ATOM     31  S   UNL     1      -4.681  -3.986   1.560  1.00  0.00     0.238 S 
ATOM     32  O   UNL     1      -5.219  -3.669   2.863  1.00  0.00    -0.207 OA
ATOM     33  O   UNL     1      -4.109  -5.273   1.247  1.00  0.00    -0.207 OA
BRANCH  31  34
ATOM     34  N   UNL     1      -5.933  -3.696   0.470  1.00  0.00    -0.225 NA
ATOM     35  H   UNL     1      -5.686  -3.019  -0.252  1.00  0.00     0.137 HD
ATOM     36  H   UNL     1      -6.763  -3.410   0.992  1.00  0.00     0.137 HD
ENDBRANCH  31  34
ENDBRANCH   4  31
TORSDOF 7
