REMARK SMILES COc1ccc([C@H]2CC(c3cc(F)ccc3F)=NN2c2ccc(S(N)(=O)=O)cc2)c(OC)c1
REMARK SMILES IDX 20 1 21 2 22 3 23 4 28 5 29 6 19 7 7 8 8 9 9 10 18 11 6 12
REMARK SMILES IDX 3 13 4 14 33 15 5 16 30 17 2 18 1 19 31 20 32 21 10 22 11 23
REMARK SMILES IDX 16 24 12 25 15 26 14 27 17 28 13 29 24 30 26 31 27 32 25 33
REMARK H PARENT 25 34 25 35
ROOT
ATOM      1  C   UNL     1       1.830  -0.673  -0.441  1.00  0.00     0.060 A 
ATOM      2  C   UNL     1       3.185  -0.508  -0.099  1.00  0.00     0.029 A 
ATOM      3  C   UNL     1       4.101  -1.565  -0.160  1.00  0.00     0.024 A 
ATOM      4  C   UNL     1       3.667  -2.820  -0.580  1.00  0.00     0.082 A 
ATOM      5  C   UNL     1       2.330  -3.026  -0.912  1.00  0.00     0.024 A 
ATOM      6  C   UNL     1       1.427  -1.958  -0.845  1.00  0.00     0.029 A 
ENDROOT
BRANCH   1   7
ATOM      7  N   UNL     1       0.942   0.399  -0.366  1.00  0.00    -0.257 N 
ATOM      8  C   UNL     1      -0.478   0.364  -0.738  1.00  0.00     0.148 C 
ATOM      9  C   UNL     1      -0.828   1.848  -0.864  1.00  0.00     0.091 C 
ATOM     10  C   UNL     1       0.397   2.470  -0.253  1.00  0.00     0.074 C 
ATOM     11  N   UNL     1       1.375   1.647  -0.019  1.00  0.00    -0.176 NA
BRANCH   8  12
ATOM     12  C   UNL     1      -1.370  -0.316   0.297  1.00  0.00     0.019 A 
ATOM     13  C   UNL     1      -3.058  -1.536   2.200  1.00  0.00     0.122 A 
ATOM     14  C   UNL     1      -1.825  -1.013   2.583  1.00  0.00     0.047 A 
ATOM     15  C   UNL     1      -3.457  -1.441   0.864  1.00  0.00     0.093 A 
ATOM     16  C   UNL     1      -0.990  -0.406   1.646  1.00  0.00     0.013 A 
ATOM     17  C   UNL     1      -2.625  -0.831  -0.087  1.00  0.00     0.127 A 
BRANCH  13  18
ATOM     18  O   UNL     1      -3.775  -2.103   3.217  1.00  0.00    -0.497 OA
ATOM     19  C   UNL     1      -5.019  -2.703   2.881  1.00  0.00     0.278 C 
ENDBRANCH  13  18
BRANCH  17  20
ATOM     20  O   UNL     1      -2.946  -0.676  -1.413  1.00  0.00    -0.496 OA
ATOM     21  C   UNL     1      -4.190  -1.202  -1.859  1.00  0.00     0.278 C 
ENDBRANCH  17  20
ENDBRANCH   8  12
BRANCH  10  22
ATOM     22  C   UNL     1       0.494   3.918   0.035  1.00  0.00     0.037 A 
ATOM     23  C   UNL     1       1.608   4.389   0.741  1.00  0.00     0.052 A 
ATOM     24  C   UNL     1      -0.483   4.828  -0.378  1.00  0.00     0.132 A 
ATOM     25  C   UNL     1       1.721   5.747   1.025  1.00  0.00     0.124 A 
ATOM     26  C   UNL     1      -0.362   6.188  -0.089  1.00  0.00     0.043 A 
ATOM     27  C   UNL     1       0.746   6.651   0.618  1.00  0.00     0.042 A 
ATOM     28  F   UNL     1      -1.558   4.431  -1.071  1.00  0.00    -0.206 F 
ATOM     29  F   UNL     1       2.786   6.192   1.703  1.00  0.00    -0.207 F 
ENDBRANCH  10  22
ENDBRANCH   1   7
BRANCH   4  30
ATOM     30  S   UNL     1       4.808  -4.168  -0.633  1.00  0.00     0.238 S 
ATOM     31  O   UNL     1       5.889  -3.919   0.292  1.00  0.00    -0.207 OA
ATOM     32  O   UNL     1       4.078  -5.414  -0.652  1.00  0.00    -0.207 OA
BRANCH  30  33
ATOM     33  N   UNL     1       5.469  -4.004  -2.168  1.00  0.00    -0.225 NA
ATOM     34  H   UNL     1       6.467  -3.810  -2.095  1.00  0.00     0.137 HD
ATOM     35  H   UNL     1       5.245  -4.826  -2.729  1.00  0.00     0.137 HD
ENDBRANCH  30  33
ENDBRANCH   4  30
TORSDOF 7
