REMARK SMILES CC(=O)Nc1ccc2c(c1)C(=O)N(CC[C@H]1CC[N@H+](Cc3ccccc3)CC1)C2=O
REMARK SMILES IDX 15 1 16 2 18 3 19 4 17 5 27 6 28 7 20 9 21 10 22 11 26 12
REMARK SMILES IDX 23 13 25 14 24 15 14 16 13 17 11 18 29 19 9 20 8 21 10 22
REMARK SMILES IDX 7 23 5 24 6 25 12 26 30 27 4 28 2 29 1 31 3 32
REMARK H PARENT 19 8 4 30
ROOT
ATOM      1  C   UNL     1      -0.098  -0.031   0.562  1.00  0.00     0.026 C 
ENDROOT
BRANCH   1   2
ATOM      2  C   UNL     1       1.355  -0.017   1.075  1.00  0.00     0.002 C 
ATOM      3  C   UNL     1       3.437   1.389   1.450  1.00  0.00     0.262 C 
ATOM      4  N   UNL     1       4.207   0.451   0.561  1.00  0.00    -0.331 N 
ATOM      5  C   UNL     1       1.967   1.391   1.051  1.00  0.00     0.065 C 
ATOM      6  C   UNL     1       3.676  -0.960   0.636  1.00  0.00     0.262 C 
ATOM      7  C   UNL     1       2.210  -0.971   0.225  1.00  0.00     0.065 C 
ATOM      8  H   UNL     1       4.087   0.767  -0.410  1.00  0.00     0.348 HD
BRANCH   4   9
ATOM      9  C   UNL     1       5.696   0.528   0.837  1.00  0.00     0.299 C 
BRANCH   9  10
ATOM     10  C   UNL     1       6.530  -0.101  -0.245  1.00  0.00     0.006 A 
ATOM     11  C   UNL     1       6.658   0.522  -1.497  1.00  0.00     0.009 A 
ATOM     12  C   UNL     1       7.177  -1.326  -0.026  1.00  0.00     0.009 A 
ATOM     13  C   UNL     1       7.410  -0.076  -2.509  1.00  0.00     0.001 A 
ATOM     14  C   UNL     1       7.928  -1.920  -1.041  1.00  0.00     0.001 A 
ATOM     15  C   UNL     1       8.042  -1.296  -2.282  1.00  0.00     0.000 A 
ENDBRANCH   9  10
ENDBRANCH   4   9
ENDBRANCH   1   2
BRANCH   1  16
ATOM     16  C   UNL     1      -1.079   0.731   1.460  1.00  0.00     0.129 C 
BRANCH  16  17
ATOM     17  N   UNL     1      -2.418   0.705   0.910  1.00  0.00    -0.274 N 
ATOM     18  C   UNL     1      -3.346  -0.260   1.187  1.00  0.00     0.261 C 
ATOM     19  C   UNL     1      -2.858   1.573  -0.053  1.00  0.00     0.261 C 
ATOM     20  C   UNL     1      -4.526   0.057   0.384  1.00  0.00     0.055 A 
ATOM     21  C   UNL     1      -4.227   1.174  -0.373  1.00  0.00     0.053 A 
ATOM     22  C   UNL     1      -5.750  -0.581   0.307  1.00  0.00     0.040 A 
ATOM     23  C   UNL     1      -5.139   1.715  -1.252  1.00  0.00     0.017 A 
ATOM     24  C   UNL     1      -6.705  -0.056  -0.577  1.00  0.00     0.041 A 
ATOM     25  C   UNL     1      -6.390   1.087  -1.347  1.00  0.00     0.027 A 
ATOM     26  O   UNL     1      -3.248  -1.223   1.922  1.00  0.00    -0.269 OA
ATOM     27  O   UNL     1      -2.249   2.483  -0.583  1.00  0.00    -0.269 OA
BRANCH  24  28
ATOM     28  N   UNL     1      -7.949  -0.720  -0.637  1.00  0.00    -0.326 N 
ATOM     29  C   UNL     1      -9.028  -0.412  -1.447  1.00  0.00     0.221 C 
ATOM     30  H   UNL     1      -8.061  -1.522  -0.028  1.00  0.00     0.169 HD
ATOM     31  C   UNL     1     -10.195  -1.344  -1.229  1.00  0.00     0.114 C 
ATOM     32  O   UNL     1      -9.085   0.480  -2.285  1.00  0.00    -0.275 OA
ENDBRANCH  24  28
ENDBRANCH  16  17
ENDBRANCH   1  16
TORSDOF 6
