REMARK SMILES CCc1ccccc1NC(=O)Oc1ccc2c(c1)[C@]1(C)CC[N@@H+](C)[C@@H]1N2C
REMARK SMILES IDX 10 1 9 2 11 3 12 5 13 6 22 7 23 8 21 9 25 10 19 11 26 12
REMARK SMILES IDX 17 13 16 14 18 15 15 16 14 17 24 18 20 20 27 21 8 22 7 23
REMARK SMILES IDX 3 24 6 25 4 26 5 27 2 28 1 29
REMARK H PARENT 9 4 23 19
ROOT
ATOM      1  C   UNL     1       2.220  -0.361  -0.257  1.00  0.00     0.417 C 
ATOM      2  N   UNL     1       3.525  -0.459   0.149  1.00  0.00    -0.291 N 
ATOM      3  O   UNL     1       1.767   0.292  -1.186  1.00  0.00    -0.224 OA
ATOM      4  H   UNL     1       3.651  -1.064   0.946  1.00  0.00     0.173 HD
ENDROOT
BRANCH   1   5
ATOM      5  O   UNL     1       1.446  -1.151   0.595  1.00  0.00    -0.410 OA
BRANCH   5   6
ATOM      6  C   UNL     1       0.068  -1.176   0.331  1.00  0.00     0.133 A 
ATOM      7  C   UNL     1      -4.168   0.775   2.134  1.00  0.00     0.265 C 
ATOM      8  N   UNL     1      -5.031   0.063   1.134  1.00  0.00    -0.317 N 
ATOM      9  C   UNL     1      -3.336   1.732   1.304  1.00  0.00     0.081 C 
ATOM     10  C   UNL     1      -4.366   0.141  -0.198  1.00  0.00     0.296 C 
ATOM     11  C   UNL     1      -3.077   0.970   0.009  1.00  0.00     0.072 C 
ATOM     12  N   UNL     1      -4.048  -1.269  -0.399  1.00  0.00    -0.325 N 
ATOM     13  C   UNL     1      -2.054  -0.121   0.117  1.00  0.00    -0.007 A 
ATOM     14  C   UNL     1      -2.647  -1.355  -0.174  1.00  0.00     0.045 A 
ATOM     15  C   UNL     1      -0.698  -0.011   0.386  1.00  0.00     0.054 A 
ATOM     16  C   UNL     1      -1.883  -2.514  -0.189  1.00  0.00     0.030 A 
ATOM     17  C   UNL     1      -0.512  -2.423   0.069  1.00  0.00     0.049 A 
ATOM     18  C   UNL     1      -6.465   0.442   1.139  1.00  0.00     0.334 C 
ATOM     19  H   UNL     1      -4.955  -0.949   1.303  1.00  0.00     0.349 HD
ATOM     20  C   UNL     1      -2.777   1.894  -1.169  1.00  0.00     0.025 C 
ATOM     21  C   UNL     1      -4.428  -1.839  -1.696  1.00  0.00     0.150 C 
ENDBRANCH   5   6
ENDBRANCH   1   5
BRANCH   2  22
ATOM     22  C   UNL     1       4.671   0.164  -0.391  1.00  0.00     0.047 A 
ATOM     23  C   UNL     1       4.597   1.024  -1.495  1.00  0.00     0.026 A 
ATOM     24  C   UNL     1       5.932  -0.083   0.199  1.00  0.00    -0.025 A 
ATOM     25  C   UNL     1       5.742   1.640  -2.007  1.00  0.00     0.002 A 
ATOM     26  C   UNL     1       7.073   0.554  -0.327  1.00  0.00     0.006 A 
ATOM     27  C   UNL     1       6.979   1.407  -1.423  1.00  0.00     0.000 A 
BRANCH  24  28
ATOM     28  C   UNL     1       6.133  -0.988   1.396  1.00  0.00     0.034 C 
ATOM     29  C   UNL     1       5.821  -0.283   2.708  1.00  0.00     0.009 C 
ENDBRANCH  24  28
ENDBRANCH   2  22
TORSDOF 4
