MODEL 1
REMARK VINA RESULT:   -12.222      0.000      0.000
REMARK INTER + INTRA:         -18.708
REMARK INTER:                 -18.652
REMARK INTRA:                  -0.056
REMARK UNBOUND:                -0.056
REMARK SMILES CNC(=O)Oc1cccc(C[N@H+](C)CCCOc2ccc3c(=O)c4ccccc4oc3c2)c1
REMARK SMILES IDX 12 1 13 2 11 4 10 5 9 6 33 7 8 8 6 9 7 10 5 11 3 12 2 13
REMARK SMILES IDX 4 14 1 15 14 17 15 18 16 19 17 20 18 21 19 22 32 23 20 24
REMARK SMILES IDX 31 25 21 26 30 27 22 28 29 29 24 30 28 31 25 32 27 33 26 34
REMARK SMILES IDX 23 35
REMARK H PARENT 12 3 2 16
ROOT
ATOM      1  N   UNL     1     -10.663 -46.129  29.416  1.00  0.00    -0.334 N 
ATOM      2  C   UNL     1     -10.142 -44.855  28.796  1.00  0.00     0.333 C 
ATOM      3  H   UNL     1     -10.522 -46.861  28.709  1.00  0.00     0.348 HD
ENDROOT
BRANCH   1   4
ATOM      4  C   UNL     1      -9.855 -46.530  30.633  1.00  0.00     0.298 C 
BRANCH   4   5
ATOM      5  C   UNL     1      -9.372 -45.353  31.434  1.00  0.00     0.010 A 
ATOM      6  C   UNL     1      -7.997 -45.096  31.575  1.00  0.00     0.010 A 
ATOM      7  C   UNL     1     -10.292 -44.491  32.051  1.00  0.00     0.056 A 
ATOM      8  C   UNL     1      -7.553 -44.001  32.320  1.00  0.00     0.004 A 
ATOM      9  C   UNL     1      -9.835 -43.421  32.821  1.00  0.00     0.133 A 
ATOM     10  C   UNL     1      -8.473 -43.158  32.941  1.00  0.00     0.047 A 
BRANCH   9  11
ATOM     11  O   UNL     1     -10.707 -42.521  33.461  1.00  0.00    -0.410 OA
BRANCH  11  12
ATOM     12  C   UNL     1     -11.991 -42.347  32.955  1.00  0.00     0.412 C 
ATOM     13  N   UNL     1     -12.870 -42.201  33.990  1.00  0.00    -0.324 N 
ATOM     14  O   UNL     1     -12.291 -42.315  31.770  1.00  0.00    -0.224 OA
ATOM     15  C   UNL     1     -14.270 -41.944  33.788  1.00  0.00     0.146 C 
ATOM     16  H   UNL     1     -12.483 -42.181  34.925  1.00  0.00     0.166 HD
ENDBRANCH  11  12
ENDBRANCH   9  11
ENDBRANCH   4   5
ENDBRANCH   1   4
BRANCH   1  17
ATOM     17  C   UNL     1     -12.151 -46.032  29.696  1.00  0.00     0.265 C 
BRANCH  17  18
ATOM     18  C   UNL     1     -12.945 -46.036  28.391  1.00  0.00     0.103 C 
BRANCH  18  19
ATOM     19  C   UNL     1     -13.609 -44.681  28.146  1.00  0.00     0.235 C 
BRANCH  19  20
ATOM     20  O   UNL     1     -13.289 -44.270  26.819  1.00  0.00    -0.493 OA
BRANCH  20  21
ATOM     21  C   UNL     1     -14.319 -43.802  26.049  1.00  0.00     0.123 A 
ATOM     22  C   UNL     1     -14.328 -43.720  24.654  1.00  0.00     0.047 A 
ATOM     23  C   UNL     1     -15.443 -43.381  26.770  1.00  0.00     0.094 A 
ATOM     24  C   UNL     1     -15.453 -43.223  23.989  1.00  0.00     0.020 A 
ATOM     25  C   UNL     1     -16.568 -42.883  26.109  1.00  0.00     0.142 A 
ATOM     26  C   UNL     1     -16.568 -42.808  24.721  1.00  0.00     0.066 A 
ATOM     27  O   UNL     1     -17.622 -42.495  26.897  1.00  0.00    -0.456 OA
ATOM     28  C   UNL     1     -17.761 -42.285  24.041  1.00  0.00     0.200 A 
ATOM     29  C   UNL     1     -18.744 -41.995  26.280  1.00  0.00     0.138 A 
ATOM     30  C   UNL     1     -18.879 -41.865  24.898  1.00  0.00     0.065 A 
ATOM     31  C   UNL     1     -19.792 -41.603  27.114  1.00  0.00     0.048 A 
ATOM     32  C   UNL     1     -20.053 -41.349  24.342  1.00  0.00     0.016 A 
ATOM     33  C   UNL     1     -20.967 -41.086  26.564  1.00  0.00     0.004 A 
ATOM     34  C   UNL     1     -21.097 -40.958  25.179  1.00  0.00     0.001 A 
ATOM     35  O   UNL     1     -17.814 -42.206  22.821  1.00  0.00    -0.288 OA
ENDBRANCH  20  21
ENDBRANCH  19  20
ENDBRANCH  18  19
ENDBRANCH  17  18
ENDBRANCH   1  17
TORSDOF 9
ENDMDL
MODEL 2
REMARK VINA RESULT:   -12.101      1.369      1.800
REMARK INTER + INTRA:         -18.524
REMARK INTER:                 -17.875
REMARK INTRA:                  -0.649
REMARK UNBOUND:                -0.056
REMARK SMILES CNC(=O)Oc1cccc(C[N@H+](C)CCCOc2ccc3c(=O)c4ccccc4oc3c2)c1
REMARK SMILES IDX 12 1 13 2 11 4 10 5 9 6 33 7 8 8 6 9 7 10 5 11 3 12 2 13
REMARK SMILES IDX 4 14 1 15 14 17 15 18 16 19 17 20 18 21 19 22 32 23 20 24
REMARK SMILES IDX 31 25 21 26 30 27 22 28 29 29 24 30 28 31 25 32 27 33 26 34
REMARK SMILES IDX 23 35
REMARK H PARENT 12 3 2 16
ROOT
ATOM      1  N   UNL     1     -12.621 -45.452  31.055  1.00  0.00    -0.334 N 
ATOM      2  C   UNL     1     -13.600 -45.934  32.097  1.00  0.00     0.333 C 
ATOM      3  H   UNL     1     -12.197 -44.601  31.443  1.00  0.00     0.348 HD
ENDROOT
BRANCH   1   4
ATOM      4  C   UNL     1     -11.498 -46.445  30.839  1.00  0.00     0.298 C 
BRANCH   4   5
ATOM      5  C   UNL     1     -10.149 -45.901  31.219  1.00  0.00     0.010 A 
ATOM      6  C   UNL     1      -8.992 -46.686  31.079  1.00  0.00     0.010 A 
ATOM      7  C   UNL     1     -10.028 -44.595  31.719  1.00  0.00     0.056 A 
ATOM      8  C   UNL     1      -7.740 -46.176  31.434  1.00  0.00     0.004 A 
ATOM      9  C   UNL     1      -8.778 -44.109  32.102  1.00  0.00     0.133 A 
ATOM     10  C   UNL     1      -7.632 -44.883  31.942  1.00  0.00     0.047 A 
BRANCH   9  11
ATOM     11  O   UNL     1      -8.592 -42.809  32.607  1.00  0.00    -0.410 OA
BRANCH  11  12
ATOM     12  C   UNL     1      -9.214 -42.451  33.799  1.00  0.00     0.412 C 
ATOM     13  N   UNL     1     -10.501 -42.076  33.543  1.00  0.00    -0.324 N 
ATOM     14  O   UNL     1      -8.697 -42.477  34.908  1.00  0.00    -0.224 OA
ATOM     15  C   UNL     1     -11.423 -41.706  34.584  1.00  0.00     0.146 C 
ATOM     16  H   UNL     1     -10.827 -42.162  32.590  1.00  0.00     0.166 HD
ENDBRANCH  11  12
ENDBRANCH   9  11
ENDBRANCH   4   5
ENDBRANCH   1   4
BRANCH   1  17
ATOM     17  C   UNL     1     -13.333 -45.073  29.770  1.00  0.00     0.265 C 
BRANCH  17  18
ATOM     18  C   UNL     1     -12.454 -45.375  28.558  1.00  0.00     0.103 C 
BRANCH  18  19
ATOM     19  C   UNL     1     -13.261 -45.311  27.261  1.00  0.00     0.235 C 
BRANCH  19  20
ATOM     20  O   UNL     1     -13.282 -43.953  26.825  1.00  0.00    -0.493 OA
BRANCH  20  21
ATOM     21  C   UNL     1     -14.340 -43.565  26.049  1.00  0.00     0.123 A 
ATOM     22  C   UNL     1     -14.373 -43.560  24.653  1.00  0.00     0.047 A 
ATOM     23  C   UNL     1     -15.467 -43.147  26.766  1.00  0.00     0.094 A 
ATOM     24  C   UNL     1     -15.527 -43.142  23.981  1.00  0.00     0.020 A 
ATOM     25  C   UNL     1     -16.621 -42.728  26.099  1.00  0.00     0.142 A 
ATOM     26  C   UNL     1     -16.645 -42.729  24.709  1.00  0.00     0.066 A 
ATOM     27  O   UNL     1     -17.676 -42.336  26.883  1.00  0.00    -0.456 OA
ATOM     28  C   UNL     1     -17.868 -42.288  24.023  1.00  0.00     0.200 A 
ATOM     29  C   UNL     1     -18.825 -41.912  26.260  1.00  0.00     0.138 A 
ATOM     30  C   UNL     1     -18.987 -41.864  24.876  1.00  0.00     0.065 A 
ATOM     31  C   UNL     1     -19.874 -41.514  27.090  1.00  0.00     0.048 A 
ATOM     32  C   UNL     1     -20.188 -41.422  24.313  1.00  0.00     0.016 A 
ATOM     33  C   UNL     1     -21.077 -41.071  26.533  1.00  0.00     0.004 A 
ATOM     34  C   UNL     1     -21.233 -41.025  25.146  1.00  0.00     0.001 A 
ATOM     35  O   UNL     1     -17.943 -42.279  22.802  1.00  0.00    -0.288 OA
ENDBRANCH  20  21
ENDBRANCH  19  20
ENDBRANCH  18  19
ENDBRANCH  17  18
ENDBRANCH   1  17
TORSDOF 9
ENDMDL
MODEL 3
REMARK VINA RESULT:   -12.011      2.068      3.078
REMARK INTER + INTRA:         -18.386
REMARK INTER:                 -17.841
REMARK INTRA:                  -0.545
REMARK UNBOUND:                -0.056
REMARK SMILES CNC(=O)Oc1cccc(C[N@H+](C)CCCOc2ccc3c(=O)c4ccccc4oc3c2)c1
REMARK SMILES IDX 12 1 13 2 11 4 10 5 9 6 33 7 8 8 6 9 7 10 5 11 3 12 2 13
REMARK SMILES IDX 4 14 1 15 14 17 15 18 16 19 17 20 18 21 19 22 32 23 20 24
REMARK SMILES IDX 31 25 21 26 30 27 22 28 29 29 24 30 28 31 25 32 27 33 26 34
REMARK SMILES IDX 23 35
REMARK H PARENT 12 3 2 16
ROOT
ATOM      1  N   UNL     1     -12.275 -45.150  30.760  1.00  0.00    -0.334 N 
ATOM      2  C   UNL     1     -13.252 -44.619  31.780  1.00  0.00     0.333 C 
ATOM      3  H   UNL     1     -11.856 -44.323  30.318  1.00  0.00     0.348 HD
ENDROOT
BRANCH   1   4
ATOM      4  C   UNL     1     -11.146 -45.919  31.415  1.00  0.00     0.298 C 
BRANCH   4   5
ATOM      5  C   UNL     1      -9.794 -45.311  31.161  1.00  0.00     0.010 A 
ATOM      6  C   UNL     1      -8.625 -45.946  31.613  1.00  0.00     0.010 A 
ATOM      7  C   UNL     1      -9.683 -44.098  30.465  1.00  0.00     0.056 A 
ATOM      8  C   UNL     1      -7.371 -45.377  31.375  1.00  0.00     0.004 A 
ATOM      9  C   UNL     1      -8.429 -43.522  30.264  1.00  0.00     0.133 A 
ATOM     10  C   UNL     1      -7.271 -44.165  30.696  1.00  0.00     0.047 A 
BRANCH   9  11
ATOM     11  O   UNL     1      -8.253 -42.310  29.572  1.00  0.00    -0.410 OA
BRANCH  11  12
ATOM     12  C   UNL     1      -8.458 -42.280  28.197  1.00  0.00     0.412 C 
ATOM     13  N   UNL     1      -7.521 -41.474  27.616  1.00  0.00    -0.324 N 
ATOM     14  O   UNL     1      -9.332 -42.888  27.594  1.00  0.00    -0.224 OA
ATOM     15  C   UNL     1      -7.434 -41.288  26.193  1.00  0.00     0.146 C 
ATOM     16  H   UNL     1      -6.812 -41.082  28.220  1.00  0.00     0.166 HD
ENDBRANCH  11  12
ENDBRANCH   9  11
ENDBRANCH   4   5
ENDBRANCH   1   4
BRANCH   1  17
ATOM     17  C   UNL     1     -12.988 -45.944  29.681  1.00  0.00     0.265 C 
BRANCH  17  18
ATOM     18  C   UNL     1     -13.836 -45.023  28.807  1.00  0.00     0.103 C 
BRANCH  18  19
ATOM     19  C   UNL     1     -13.441 -45.143  27.335  1.00  0.00     0.235 C 
BRANCH  19  20
ATOM     20  O   UNL     1     -13.424 -43.831  26.777  1.00  0.00    -0.493 OA
BRANCH  20  21
ATOM     21  C   UNL     1     -14.495 -43.468  26.007  1.00  0.00     0.123 A 
ATOM     22  C   UNL     1     -14.547 -43.493  24.612  1.00  0.00     0.047 A 
ATOM     23  C   UNL     1     -15.617 -43.045  26.730  1.00  0.00     0.094 A 
ATOM     24  C   UNL     1     -15.712 -43.099  23.947  1.00  0.00     0.020 A 
ATOM     25  C   UNL     1     -16.783 -42.650  26.069  1.00  0.00     0.142 A 
ATOM     26  C   UNL     1     -16.825 -42.680  24.680  1.00  0.00     0.066 A 
ATOM     27  O   UNL     1     -17.832 -42.251  26.859  1.00  0.00    -0.456 OA
ATOM     28  C   UNL     1     -18.060 -42.264  24.001  1.00  0.00     0.200 A 
ATOM     29  C   UNL     1     -18.992 -41.851  26.242  1.00  0.00     0.138 A 
ATOM     30  C   UNL     1     -19.172 -41.832  24.859  1.00  0.00     0.065 A 
ATOM     31  C   UNL     1     -20.034 -41.444  27.077  1.00  0.00     0.048 A 
ATOM     32  C   UNL     1     -20.384 -41.413  24.303  1.00  0.00     0.016 A 
ATOM     33  C   UNL     1     -21.248 -41.024  26.527  1.00  0.00     0.004 A 
ATOM     34  C   UNL     1     -21.422 -41.008  25.142  1.00  0.00     0.001 A 
ATOM     35  O   UNL     1     -18.151 -42.281  22.781  1.00  0.00    -0.288 OA
ENDBRANCH  20  21
ENDBRANCH  19  20
ENDBRANCH  18  19
ENDBRANCH  17  18
ENDBRANCH   1  17
TORSDOF 9
ENDMDL
MODEL 4
REMARK VINA RESULT:   -11.902      2.781      5.450
REMARK INTER + INTRA:         -18.220
REMARK INTER:                 -16.875
REMARK INTRA:                  -1.346
REMARK UNBOUND:                -0.056
REMARK SMILES CNC(=O)Oc1cccc(C[N@H+](C)CCCOc2ccc3c(=O)c4ccccc4oc3c2)c1
REMARK SMILES IDX 12 1 13 2 11 4 10 5 9 6 33 7 8 8 6 9 7 10 5 11 3 12 2 13
REMARK SMILES IDX 4 14 1 15 14 17 15 18 16 19 17 20 18 21 19 22 32 23 20 24
REMARK SMILES IDX 31 25 21 26 30 27 22 28 29 29 24 30 28 31 25 32 27 33 26 34
REMARK SMILES IDX 23 35
REMARK H PARENT 12 3 2 16
ROOT
ATOM      1  N   UNL     1     -10.458 -42.467  33.287  1.00  0.00    -0.334 N 
ATOM      2  C   UNL     1     -10.476 -41.954  34.706  1.00  0.00     0.333 C 
ATOM      3  H   UNL     1     -10.515 -41.633  32.689  1.00  0.00     0.348 HD
ENDROOT
BRANCH   1   4
ATOM      4  C   UNL     1      -9.151 -43.158  32.958  1.00  0.00     0.298 C 
BRANCH   4   5
ATOM      5  C   UNL     1      -9.244 -44.049  31.751  1.00  0.00     0.010 A 
ATOM      6  C   UNL     1      -8.951 -45.420  31.846  1.00  0.00     0.010 A 
ATOM      7  C   UNL     1      -9.629 -43.521  30.509  1.00  0.00     0.056 A 
ATOM      8  C   UNL     1      -9.038 -46.245  30.722  1.00  0.00     0.004 A 
ATOM      9  C   UNL     1      -9.679 -44.347  29.386  1.00  0.00     0.133 A 
ATOM     10  C   UNL     1      -9.407 -45.709  29.490  1.00  0.00     0.047 A 
BRANCH   9  11
ATOM     11  O   UNL     1     -10.059 -43.878  28.115  1.00  0.00    -0.410 OA
BRANCH  11  12
ATOM     12  C   UNL     1      -9.659 -42.607  27.716  1.00  0.00     0.412 C 
ATOM     13  N   UNL     1      -8.414 -42.679  27.159  1.00  0.00    -0.324 N 
ATOM     14  O   UNL     1     -10.318 -41.583  27.830  1.00  0.00    -0.224 OA
ATOM     15  C   UNL     1      -7.750 -41.535  26.594  1.00  0.00     0.146 C 
ATOM     16  H   UNL     1      -8.003 -43.598  27.063  1.00  0.00     0.166 HD
ENDBRANCH  11  12
ENDBRANCH   9  11
ENDBRANCH   4   5
ENDBRANCH   1   4
BRANCH   1  17
ATOM     17  C   UNL     1     -11.674 -43.329  33.002  1.00  0.00     0.265 C 
BRANCH  17  18
ATOM     18  C   UNL     1     -12.955 -42.503  33.106  1.00  0.00     0.103 C 
BRANCH  18  19
ATOM     19  C   UNL     1     -14.191 -43.372  32.873  1.00  0.00     0.235 C 
BRANCH  19  20
ATOM     20  O   UNL     1     -13.747 -44.694  32.573  1.00  0.00    -0.493 OA
BRANCH  20  21
ATOM     21  C   UNL     1     -13.599 -45.015  31.251  1.00  0.00     0.123 A 
ATOM     22  C   UNL     1     -12.819 -46.057  30.743  1.00  0.00     0.047 A 
ATOM     23  C   UNL     1     -14.314 -44.197  30.368  1.00  0.00     0.094 A 
ATOM     24  C   UNL     1     -12.760 -46.279  29.363  1.00  0.00     0.020 A 
ATOM     25  C   UNL     1     -14.257 -44.415  28.989  1.00  0.00     0.142 A 
ATOM     26  C   UNL     1     -13.481 -45.457  28.494  1.00  0.00     0.066 A 
ATOM     27  O   UNL     1     -14.991 -43.565  28.201  1.00  0.00    -0.456 OA
ATOM     28  C   UNL     1     -13.434 -45.674  27.041  1.00  0.00     0.200 A 
ATOM     29  C   UNL     1     -14.953 -43.748  26.840  1.00  0.00     0.138 A 
ATOM     30  C   UNL     1     -14.219 -44.751  26.210  1.00  0.00     0.065 A 
ATOM     31  C   UNL     1     -15.706 -42.859  26.071  1.00  0.00     0.048 A 
ATOM     32  C   UNL     1     -14.230 -44.876  24.817  1.00  0.00     0.016 A 
ATOM     33  C   UNL     1     -15.721 -42.979  24.679  1.00  0.00     0.004 A 
ATOM     34  C   UNL     1     -14.983 -43.986  24.053  1.00  0.00     0.001 A 
ATOM     35  O   UNL     1     -12.772 -46.582  26.556  1.00  0.00    -0.288 OA
ENDBRANCH  20  21
ENDBRANCH  19  20
ENDBRANCH  18  19
ENDBRANCH  17  18
ENDBRANCH   1  17
TORSDOF 9
ENDMDL
MODEL 5
REMARK VINA RESULT:   -11.461      1.325      2.042
REMARK INTER + INTRA:         -17.546
REMARK INTER:                 -17.426
REMARK INTRA:                  -0.120
REMARK UNBOUND:                -0.056
REMARK SMILES CNC(=O)Oc1cccc(C[N@H+](C)CCCOc2ccc3c(=O)c4ccccc4oc3c2)c1
REMARK SMILES IDX 12 1 13 2 11 4 10 5 9 6 33 7 8 8 6 9 7 10 5 11 3 12 2 13
REMARK SMILES IDX 4 14 1 15 14 17 15 18 16 19 17 20 18 21 19 22 32 23 20 24
REMARK SMILES IDX 31 25 21 26 30 27 22 28 29 29 24 30 28 31 25 32 27 33 26 34
REMARK SMILES IDX 23 35
REMARK H PARENT 12 3 2 16
ROOT
ATOM      1  N   UNL     1     -10.209 -45.708  28.991  1.00  0.00    -0.334 N 
ATOM      2  C   UNL     1     -10.295 -44.275  28.526  1.00  0.00     0.333 C 
ATOM      3  H   UNL     1      -9.328 -46.073  28.607  1.00  0.00     0.348 HD
ENDROOT
BRANCH   1   4
ATOM      4  C   UNL     1     -10.105 -45.802  30.499  1.00  0.00     0.298 C 
BRANCH   4   5
ATOM      5  C   UNL     1     -11.356 -45.356  31.205  1.00  0.00     0.010 A 
ATOM      6  C   UNL     1     -12.469 -46.209  31.300  1.00  0.00     0.010 A 
ATOM      7  C   UNL     1     -11.427 -44.079  31.781  1.00  0.00     0.056 A 
ATOM      8  C   UNL     1     -13.629 -45.790  31.957  1.00  0.00     0.004 A 
ATOM      9  C   UNL     1     -12.602 -43.659  32.403  1.00  0.00     0.133 A 
ATOM     10  C   UNL     1     -13.696 -44.515  32.513  1.00  0.00     0.047 A 
BRANCH   9  11
ATOM     11  O   UNL     1     -12.734 -42.392  33.000  1.00  0.00    -0.410 OA
BRANCH  11  12
ATOM     12  C   UNL     1     -14.004 -41.925  33.322  1.00  0.00     0.412 C 
ATOM     13  N   UNL     1     -14.004 -41.463  34.608  1.00  0.00    -0.324 N 
ATOM     14  O   UNL     1     -14.971 -41.915  32.573  1.00  0.00    -0.224 OA
ATOM     15  C   UNL     1     -15.160 -40.859  35.214  1.00  0.00     0.146 C 
ATOM     16  H   UNL     1     -13.120 -41.467  35.099  1.00  0.00     0.166 HD
ENDBRANCH  11  12
ENDBRANCH   9  11
ENDBRANCH   4   5
ENDBRANCH   1   4
BRANCH   1  17
ATOM     17  C   UNL     1     -11.345 -46.537  28.421  1.00  0.00     0.265 C 
BRANCH  17  18
ATOM     18  C   UNL     1     -12.127 -45.736  27.382  1.00  0.00     0.103 C 
BRANCH  18  19
ATOM     19  C   UNL     1     -13.468 -45.265  27.946  1.00  0.00     0.235 C 
BRANCH  19  20
ATOM     20  O   UNL     1     -13.604 -43.877  27.651  1.00  0.00    -0.493 OA
BRANCH  20  21
ATOM     21  C   UNL     1     -14.548 -43.527  26.725  1.00  0.00     0.123 A 
ATOM     22  C   UNL     1     -14.398 -43.592  25.338  1.00  0.00     0.047 A 
ATOM     23  C   UNL     1     -15.757 -43.072  27.265  1.00  0.00     0.094 A 
ATOM     24  C   UNL     1     -15.450 -43.207  24.500  1.00  0.00     0.020 A 
ATOM     25  C   UNL     1     -16.809 -42.685  26.432  1.00  0.00     0.142 A 
ATOM     26  C   UNL     1     -16.651 -42.757  25.053  1.00  0.00     0.066 A 
ATOM     27  O   UNL     1     -17.955 -42.253  27.051  1.00  0.00    -0.456 OA
ATOM     28  C   UNL     1     -17.770 -42.349  24.191  1.00  0.00     0.200 A 
ATOM     29  C   UNL     1     -19.009 -41.860  26.261  1.00  0.00     0.138 A 
ATOM     30  C   UNL     1     -18.988 -41.881  24.867  1.00  0.00     0.065 A 
ATOM     31  C   UNL     1     -20.155 -41.419  26.925  1.00  0.00     0.048 A 
ATOM     32  C   UNL     1     -20.101 -41.467  24.130  1.00  0.00     0.016 A 
ATOM     33  C   UNL     1     -21.271 -41.003  26.194  1.00  0.00     0.004 A 
ATOM     34  C   UNL     1     -21.243 -41.027  24.798  1.00  0.00     0.001 A 
ATOM     35  O   UNL     1     -17.683 -42.402  22.972  1.00  0.00    -0.288 OA
ENDBRANCH  20  21
ENDBRANCH  19  20
ENDBRANCH  18  19
ENDBRANCH  17  18
ENDBRANCH   1  17
TORSDOF 9
ENDMDL
MODEL 6
REMARK VINA RESULT:   -11.295      2.149      2.680
REMARK INTER + INTRA:         -17.294
REMARK INTER:                 -16.589
REMARK INTRA:                  -0.705
REMARK UNBOUND:                -0.056
REMARK SMILES CNC(=O)Oc1cccc(C[N@H+](C)CCCOc2ccc3c(=O)c4ccccc4oc3c2)c1
REMARK SMILES IDX 12 1 13 2 11 4 10 5 9 6 33 7 8 8 6 9 7 10 5 11 3 12 2 13
REMARK SMILES IDX 4 14 1 15 14 17 15 18 16 19 17 20 18 21 19 22 32 23 20 24
REMARK SMILES IDX 31 25 21 26 30 27 22 28 29 29 24 30 28 31 25 32 27 33 26 34
REMARK SMILES IDX 23 35
REMARK H PARENT 12 3 2 16
ROOT
ATOM      1  N   UNL     1      -9.198 -42.870  27.951  1.00  0.00    -0.334 N 
ATOM      2  C   UNL     1      -8.191 -42.158  27.082  1.00  0.00     0.333 C 
ATOM      3  H   UNL     1      -9.210 -43.844  27.624  1.00  0.00     0.348 HD
ENDROOT
BRANCH   1   4
ATOM      4  C   UNL     1      -8.766 -42.897  29.403  1.00  0.00     0.298 C 
BRANCH   4   5
ATOM      5  C   UNL     1      -9.107 -44.187  30.095  1.00  0.00     0.010 A 
ATOM      6  C   UNL     1      -8.096 -45.008  30.624  1.00  0.00     0.010 A 
ATOM      7  C   UNL     1     -10.445 -44.589  30.224  1.00  0.00     0.056 A 
ATOM      8  C   UNL     1      -8.417 -46.206  31.266  1.00  0.00     0.004 A 
ATOM      9  C   UNL     1     -10.752 -45.804  30.836  1.00  0.00     0.133 A 
ATOM     10  C   UNL     1      -9.748 -46.604  31.377  1.00  0.00     0.047 A 
BRANCH   9  11
ATOM     11  O   UNL     1     -12.073 -46.261  30.997  1.00  0.00    -0.410 OA
BRANCH  11  12
ATOM     12  C   UNL     1     -13.036 -45.885  30.067  1.00  0.00     0.412 C 
ATOM     13  N   UNL     1     -13.833 -44.916  30.606  1.00  0.00    -0.324 N 
ATOM     14  O   UNL     1     -13.151 -46.339  28.937  1.00  0.00    -0.224 OA
ATOM     15  C   UNL     1     -14.888 -44.279  29.865  1.00  0.00     0.146 C 
ATOM     16  H   UNL     1     -13.591 -44.580  31.528  1.00  0.00     0.166 HD
ENDBRANCH  11  12
ENDBRANCH   9  11
ENDBRANCH   4   5
ENDBRANCH   1   4
BRANCH   1  17
ATOM     17  C   UNL     1     -10.590 -42.297  27.757  1.00  0.00     0.265 C 
BRANCH  17  18
ATOM     18  C   UNL     1     -11.590 -43.408  27.442  1.00  0.00     0.103 C 
BRANCH  18  19
ATOM     19  C   UNL     1     -12.925 -42.831  26.972  1.00  0.00     0.235 C 
BRANCH  19  20
ATOM     20  O   UNL     1     -13.635 -43.866  26.295  1.00  0.00    -0.493 OA
BRANCH  20  21
ATOM     21  C   UNL     1     -14.755 -43.500  25.600  1.00  0.00     0.123 A 
ATOM     22  C   UNL     1     -14.912 -43.551  24.213  1.00  0.00     0.047 A 
ATOM     23  C   UNL     1     -15.812 -43.041  26.395  1.00  0.00     0.094 A 
ATOM     24  C   UNL     1     -16.117 -43.148  23.628  1.00  0.00     0.020 A 
ATOM     25  C   UNL     1     -17.017 -42.636  25.815  1.00  0.00     0.142 A 
ATOM     26  C   UNL     1     -17.164 -42.694  24.434  1.00  0.00     0.066 A 
ATOM     27  O   UNL     1     -17.996 -42.202  26.672  1.00  0.00    -0.456 OA
ATOM     28  C   UNL     1     -18.439 -42.269  23.840  1.00  0.00     0.200 A 
ATOM     29  C   UNL     1     -19.193 -41.792  26.135  1.00  0.00     0.138 A 
ATOM     30  C   UNL     1     -19.476 -41.798  24.770  1.00  0.00     0.065 A 
ATOM     31  C   UNL     1     -20.162 -41.348  27.037  1.00  0.00     0.048 A 
ATOM     32  C   UNL     1     -20.719 -41.367  24.296  1.00  0.00     0.016 A 
ATOM     33  C   UNL     1     -21.406 -40.916  26.570  1.00  0.00     0.004 A 
ATOM     34  C   UNL     1     -21.684 -40.925  25.201  1.00  0.00     0.001 A 
ATOM     35  O   UNL     1     -18.621 -42.308  22.631  1.00  0.00    -0.288 OA
ENDBRANCH  20  21
ENDBRANCH  19  20
ENDBRANCH  18  19
ENDBRANCH  17  18
ENDBRANCH   1  17
TORSDOF 9
ENDMDL
MODEL 7
REMARK VINA RESULT:   -11.138      3.355      5.888
REMARK INTER + INTRA:         -17.055
REMARK INTER:                 -16.350
REMARK INTRA:                  -0.704
REMARK UNBOUND:                -0.056
REMARK SMILES CNC(=O)Oc1cccc(C[N@H+](C)CCCOc2ccc3c(=O)c4ccccc4oc3c2)c1
REMARK SMILES IDX 12 1 13 2 11 4 10 5 9 6 33 7 8 8 6 9 7 10 5 11 3 12 2 13
REMARK SMILES IDX 4 14 1 15 14 17 15 18 16 19 17 20 18 21 19 22 32 23 20 24
REMARK SMILES IDX 31 25 21 26 30 27 22 28 29 29 24 30 28 31 25 32 27 33 26 34
REMARK SMILES IDX 23 35
REMARK H PARENT 12 3 2 16
ROOT
ATOM      1  N   UNL     1     -14.565 -43.187  26.844  1.00  0.00    -0.334 N 
ATOM      2  C   UNL     1     -16.008 -42.788  27.036  1.00  0.00     0.333 C 
ATOM      3  H   UNL     1     -14.032 -42.647  27.537  1.00  0.00     0.348 HD
ENDROOT
BRANCH   1   4
ATOM      4  C   UNL     1     -14.343 -44.652  27.161  1.00  0.00     0.298 C 
BRANCH   4   5
ATOM      5  C   UNL     1     -12.971 -44.935  27.706  1.00  0.00     0.010 A 
ATOM      6  C   UNL     1     -12.412 -46.222  27.613  1.00  0.00     0.010 A 
ATOM      7  C   UNL     1     -12.226 -43.913  28.314  1.00  0.00     0.056 A 
ATOM      8  C   UNL     1     -11.137 -46.480  28.121  1.00  0.00     0.004 A 
ATOM      9  C   UNL     1     -10.968 -44.191  28.849  1.00  0.00     0.133 A 
ATOM     10  C   UNL     1     -10.411 -45.463  28.737  1.00  0.00     0.047 A 
BRANCH   9  11
ATOM     11  O   UNL     1     -10.173 -43.209  29.469  1.00  0.00    -0.410 OA
BRANCH  11  12
ATOM     12  C   UNL     1      -8.926 -42.910  28.930  1.00  0.00     0.412 C 
ATOM     13  N   UNL     1      -9.089 -42.335  27.702  1.00  0.00    -0.324 N 
ATOM     14  O   UNL     1      -7.848 -43.116  29.471  1.00  0.00    -0.224 OA
ATOM     15  C   UNL     1      -7.983 -41.857  26.917  1.00  0.00     0.146 C 
ATOM     16  H   UNL     1     -10.037 -42.160  27.397  1.00  0.00     0.166 HD
ENDBRANCH  11  12
ENDBRANCH   9  11
ENDBRANCH   4   5
ENDBRANCH   1   4
BRANCH   1  17
ATOM     17  C   UNL     1     -14.067 -42.796  25.465  1.00  0.00     0.265 C 
BRANCH  17  18
ATOM     18  C   UNL     1     -15.141 -43.058  24.411  1.00  0.00     0.103 C 
BRANCH  18  19
ATOM     19  C   UNL     1     -15.485 -41.781  23.644  1.00  0.00     0.235 C 
BRANCH  19  20
ATOM     20  O   UNL     1     -16.439 -42.117  22.640  1.00  0.00    -0.493 OA
BRANCH  20  21
ATOM     21  C   UNL     1     -17.708 -41.629  22.800  1.00  0.00     0.123 A 
ATOM     22  C   UNL     1     -18.559 -41.895  23.875  1.00  0.00     0.047 A 
ATOM     23  C   UNL     1     -18.145 -40.791  21.767  1.00  0.00     0.094 A 
ATOM     24  C   UNL     1     -19.835 -41.324  23.916  1.00  0.00     0.020 A 
ATOM     25  C   UNL     1     -19.420 -40.220  21.804  1.00  0.00     0.142 A 
ATOM     26  C   UNL     1     -20.258 -40.488  22.880  1.00  0.00     0.066 A 
ATOM     27  O   UNL     1     -19.762 -39.412  20.749  1.00  0.00    -0.456 OA
ATOM     28  C   UNL     1     -21.594 -39.876  22.905  1.00  0.00     0.200 A 
ATOM     29  C   UNL     1     -21.010 -38.837  20.751  1.00  0.00     0.138 A 
ATOM     30  C   UNL     1     -21.949 -39.020  21.765  1.00  0.00     0.065 A 
ATOM     31  C   UNL     1     -21.326 -38.029  19.658  1.00  0.00     0.048 A 
ATOM     32  C   UNL     1     -23.201 -38.401  21.699  1.00  0.00     0.016 A 
ATOM     33  C   UNL     1     -22.575 -37.407  19.586  1.00  0.00     0.004 A 
ATOM     34  C   UNL     1     -23.512 -37.594  20.605  1.00  0.00     0.001 A 
ATOM     35  O   UNL     1     -22.365 -40.074  23.834  1.00  0.00    -0.288 OA
ENDBRANCH  20  21
ENDBRANCH  19  20
ENDBRANCH  18  19
ENDBRANCH  17  18
ENDBRANCH   1  17
TORSDOF 9
ENDMDL
MODEL 8
REMARK VINA RESULT:   -11.029      2.299      3.443
REMARK INTER + INTRA:         -16.887
REMARK INTER:                 -15.953
REMARK INTRA:                  -0.934
REMARK UNBOUND:                -0.056
REMARK SMILES CNC(=O)Oc1cccc(C[N@H+](C)CCCOc2ccc3c(=O)c4ccccc4oc3c2)c1
REMARK SMILES IDX 12 1 13 2 11 4 10 5 9 6 33 7 8 8 6 9 7 10 5 11 3 12 2 13
REMARK SMILES IDX 4 14 1 15 14 17 15 18 16 19 17 20 18 21 19 22 32 23 20 24
REMARK SMILES IDX 31 25 21 26 30 27 22 28 29 29 24 30 28 31 25 32 27 33 26 34
REMARK SMILES IDX 23 35
REMARK H PARENT 12 3 2 16
ROOT
ATOM      1  N   UNL     1     -13.408 -44.301  29.520  1.00  0.00    -0.334 N 
ATOM      2  C   UNL     1     -13.777 -44.843  30.879  1.00  0.00     0.333 C 
ATOM      3  H   UNL     1     -13.154 -43.317  29.672  1.00  0.00     0.348 HD
ENDROOT
BRANCH   1   4
ATOM      4  C   UNL     1     -12.183 -44.991  28.955  1.00  0.00     0.298 C 
BRANCH   4   5
ATOM      5  C   UNL     1     -10.993 -44.079  28.842  1.00  0.00     0.010 A 
ATOM      6  C   UNL     1     -11.057 -42.907  28.068  1.00  0.00     0.010 A 
ATOM      7  C   UNL     1      -9.799 -44.386  29.513  1.00  0.00     0.056 A 
ATOM      8  C   UNL     1      -9.949 -42.063  27.966  1.00  0.00     0.004 A 
ATOM      9  C   UNL     1      -8.689 -43.554  29.375  1.00  0.00     0.133 A 
ATOM     10  C   UNL     1      -8.763 -42.383  28.623  1.00  0.00     0.047 A 
BRANCH   9  11
ATOM     11  O   UNL     1      -7.466 -43.807  30.023  1.00  0.00    -0.410 OA
BRANCH  11  12
ATOM     12  C   UNL     1      -7.474 -44.155  31.370  1.00  0.00     0.412 C 
ATOM     13  N   UNL     1      -7.669 -43.034  32.125  1.00  0.00    -0.324 N 
ATOM     14  O   UNL     1      -7.340 -45.286  31.814  1.00  0.00    -0.224 OA
ATOM     15  C   UNL     1      -7.786 -43.077  33.558  1.00  0.00     0.146 C 
ATOM     16  H   UNL     1      -7.832 -42.167  31.632  1.00  0.00     0.166 HD
ENDBRANCH  11  12
ENDBRANCH   9  11
ENDBRANCH   4   5
ENDBRANCH   1   4
BRANCH   1  17
ATOM     17  C   UNL     1     -14.596 -44.334  28.577  1.00  0.00     0.265 C 
BRANCH  17  18
ATOM     18  C   UNL     1     -14.132 -44.510  27.132  1.00  0.00     0.103 C 
BRANCH  18  19
ATOM     19  C   UNL     1     -14.361 -43.234  26.321  1.00  0.00     0.235 C 
BRANCH  19  20
ATOM     20  O   UNL     1     -14.762 -43.617  25.008  1.00  0.00    -0.493 OA
BRANCH  20  21
ATOM     21  C   UNL     1     -15.928 -43.081  24.533  1.00  0.00     0.123 A 
ATOM     22  C   UNL     1     -16.237 -42.849  23.191  1.00  0.00     0.047 A 
ATOM     23  C   UNL     1     -16.865 -42.755  25.521  1.00  0.00     0.094 A 
ATOM     24  C   UNL     1     -17.474 -42.298  22.841  1.00  0.00     0.020 A 
ATOM     25  C   UNL     1     -18.102 -42.203  25.176  1.00  0.00     0.142 A 
ATOM     26  C   UNL     1     -18.401 -41.979  23.837  1.00  0.00     0.066 A 
ATOM     27  O   UNL     1     -18.956 -41.915  26.210  1.00  0.00    -0.456 OA
ATOM     28  C   UNL     1     -19.707 -41.401  23.491  1.00  0.00     0.200 A 
ATOM     29  C   UNL     1     -20.179 -41.366  25.907  1.00  0.00     0.138 A 
ATOM     30  C   UNL     1     -20.608 -41.090  24.609  1.00  0.00     0.065 A 
ATOM     31  C   UNL     1     -21.018 -41.080  26.985  1.00  0.00     0.048 A 
ATOM     32  C   UNL     1     -21.869 -40.532  24.378  1.00  0.00     0.016 A 
ATOM     33  C   UNL     1     -22.279 -40.521  26.760  1.00  0.00     0.004 A 
ATOM     34  C   UNL     1     -22.704 -40.247  25.459  1.00  0.00     0.001 A 
ATOM     35  O   UNL     1     -20.021 -41.192  22.327  1.00  0.00    -0.288 OA
ENDBRANCH  20  21
ENDBRANCH  19  20
ENDBRANCH  18  19
ENDBRANCH  17  18
ENDBRANCH   1  17
TORSDOF 9
ENDMDL
MODEL 9
REMARK VINA RESULT:   -10.912      3.329     10.727
REMARK INTER + INTRA:         -16.709
REMARK INTER:                 -16.039
REMARK INTRA:                  -0.671
REMARK UNBOUND:                -0.056
REMARK SMILES CNC(=O)Oc1cccc(C[N@H+](C)CCCOc2ccc3c(=O)c4ccccc4oc3c2)c1
REMARK SMILES IDX 12 1 13 2 11 4 10 5 9 6 33 7 8 8 6 9 7 10 5 11 3 12 2 13
REMARK SMILES IDX 4 14 1 15 14 17 15 18 16 19 17 20 18 21 19 22 32 23 20 24
REMARK SMILES IDX 31 25 21 26 30 27 22 28 29 29 24 30 28 31 25 32 27 33 26 34
REMARK SMILES IDX 23 35
REMARK H PARENT 12 3 2 16
ROOT
ATOM      1  N   UNL     1     -15.567 -42.229  24.528  1.00  0.00    -0.334 N 
ATOM      2  C   UNL     1     -15.383 -41.509  23.214  1.00  0.00     0.333 C 
ATOM      3  H   UNL     1     -15.766 -41.498  25.221  1.00  0.00     0.348 HD
ENDROOT
BRANCH   1   4
ATOM      4  C   UNL     1     -16.769 -43.149  24.499  1.00  0.00     0.298 C 
BRANCH   4   5
ATOM      5  C   UNL     1     -18.048 -42.460  24.889  1.00  0.00     0.010 A 
ATOM      6  C   UNL     1     -18.383 -42.280  26.242  1.00  0.00     0.010 A 
ATOM      7  C   UNL     1     -18.924 -41.984  23.902  1.00  0.00     0.056 A 
ATOM      8  C   UNL     1     -19.572 -41.639  26.599  1.00  0.00     0.004 A 
ATOM      9  C   UNL     1     -20.125 -41.377  24.271  1.00  0.00     0.133 A 
ATOM     10  C   UNL     1     -20.443 -41.183  25.613  1.00  0.00     0.047 A 
BRANCH   9  11
ATOM     11  O   UNL     1     -21.043 -40.877  23.329  1.00  0.00    -0.410 OA
BRANCH  11  12
ATOM     12  C   UNL     1     -20.594 -40.003  22.345  1.00  0.00     0.412 C 
ATOM     13  N   UNL     1     -20.298 -40.709  21.214  1.00  0.00    -0.324 N 
ATOM     14  O   UNL     1     -20.490 -38.790  22.462  1.00  0.00    -0.224 OA
ATOM     15  C   UNL     1     -19.864 -40.077  19.997  1.00  0.00     0.146 C 
ATOM     16  H   UNL     1     -20.491 -41.702  21.225  1.00  0.00     0.166 HD
ENDBRANCH  11  12
ENDBRANCH   9  11
ENDBRANCH   4   5
ENDBRANCH   1   4
BRANCH   1  17
ATOM     17  C   UNL     1     -14.290 -42.934  24.949  1.00  0.00     0.265 C 
BRANCH  17  18
ATOM     18  C   UNL     1     -14.596 -44.334  25.475  1.00  0.00     0.103 C 
BRANCH  18  19
ATOM     19  C   UNL     1     -14.349 -44.423  26.981  1.00  0.00     0.235 C 
BRANCH  19  20
ATOM     20  O   UNL     1     -13.628 -45.627  27.236  1.00  0.00    -0.493 OA
BRANCH  20  21
ATOM     21  C   UNL     1     -12.541 -45.536  28.061  1.00  0.00     0.123 A 
ATOM     22  C   UNL     1     -11.347 -46.249  27.925  1.00  0.00     0.047 A 
ATOM     23  C   UNL     1     -12.685 -44.633  29.121  1.00  0.00     0.094 A 
ATOM     24  C   UNL     1     -10.308 -46.057  28.841  1.00  0.00     0.020 A 
ATOM     25  C   UNL     1     -11.650 -44.439  30.038  1.00  0.00     0.142 A 
ATOM     26  C   UNL     1     -10.465 -45.151  29.892  1.00  0.00     0.066 A 
ATOM     27  O   UNL     1     -11.881 -43.533  31.043  1.00  0.00    -0.456 OA
ATOM     28  C   UNL     1      -9.385 -44.932  30.864  1.00  0.00     0.200 A 
ATOM     29  C   UNL     1     -10.885 -43.321  31.967  1.00  0.00     0.138 A 
ATOM     30  C   UNL     1      -9.649 -43.966  31.940  1.00  0.00     0.065 A 
ATOM     31  C   UNL     1     -11.160 -42.400  32.979  1.00  0.00     0.048 A 
ATOM     32  C   UNL     1      -8.684 -43.697  32.914  1.00  0.00     0.016 A 
ATOM     33  C   UNL     1     -10.198 -42.128  33.955  1.00  0.00     0.004 A 
ATOM     34  C   UNL     1      -8.962 -42.776  33.923  1.00  0.00     0.001 A 
ATOM     35  O   UNL     1      -8.320 -45.528  30.775  1.00  0.00    -0.288 OA
ENDBRANCH  20  21
ENDBRANCH  19  20
ENDBRANCH  18  19
ENDBRANCH  17  18
ENDBRANCH   1  17
TORSDOF 9
ENDMDL
