MODEL 1
REMARK VINA RESULT:   -12.794      0.000      0.000
REMARK INTER + INTRA:         -18.458
REMARK INTER:                 -17.656
REMARK INTRA:                  -0.802
REMARK UNBOUND:                -0.802
REMARK SMILES O=C(CC[C@H]1CC[N@@H+](Cc2ccc(O)cc2)CC1)c1cc2c3c(ccn3C(=O)CC2)c1
REMARK SMILES IDX 7 1 8 2 17 3 6 4 5 5 18 6 9 8 10 9 11 10 16 11 12 12 15 13
REMARK SMILES IDX 13 14 14 15 4 17 3 18 2 19 1 20 19 21 20 22 31 23 21 24
REMARK SMILES IDX 23 25 22 26 30 27 24 28 26 29 29 30 25 31 27 32 28 33
REMARK H PARENT 8 7 14 16
ROOT
ATOM      1  C   UNL     1     -11.552 -43.726  29.476  1.00  0.00     0.262 C 
ATOM      2  N   UNL     1     -11.513 -45.013  30.268  1.00  0.00    -0.331 N 
ATOM      3  C   UNL     1     -12.678 -45.914  29.937  1.00  0.00     0.262 C 
ATOM      4  C   UNL     1     -11.536 -44.051  27.987  1.00  0.00     0.065 C 
ATOM      5  C   UNL     1     -12.692 -44.965  27.558  1.00  0.00     0.000 C 
ATOM      6  C   UNL     1     -12.682 -46.224  28.444  1.00  0.00     0.065 C 
ATOM      7  H   UNL     1     -10.656 -45.513  30.007  1.00  0.00     0.348 HD
ENDROOT
BRANCH   2   8
ATOM      8  C   UNL     1     -11.400 -44.727  31.752  1.00  0.00     0.299 C 
BRANCH   8   9
ATOM      9  C   UNL     1     -10.008 -44.335  32.172  1.00  0.00     0.006 A 
ATOM     10  C   UNL     1      -8.894 -45.067  31.730  1.00  0.00     0.013 A 
ATOM     11  C   UNL     1      -9.805 -43.219  33.001  1.00  0.00     0.013 A 
ATOM     12  C   UNL     1      -7.601 -44.686  32.102  1.00  0.00     0.046 A 
ATOM     13  C   UNL     1      -8.513 -42.841  33.366  1.00  0.00     0.046 A 
ATOM     14  C   UNL     1      -7.423 -43.573  32.915  1.00  0.00     0.115 A 
BRANCH  14  15
ATOM     15  O   UNL     1      -6.185 -43.161  33.301  1.00  0.00    -0.508 OA
ATOM     16  H   UNL     1      -5.643 -42.973  32.515  1.00  0.00     0.293 HD
ENDBRANCH  14  15
ENDBRANCH   8   9
ENDBRANCH   2   8
BRANCH   5  17
ATOM     17  C   UNL     1     -14.089 -44.297  27.567  1.00  0.00     0.012 C 
BRANCH  17  18
ATOM     18  C   UNL     1     -14.257 -43.140  26.568  1.00  0.00     0.081 C 
BRANCH  18  19
ATOM     19  C   UNL     1     -15.107 -43.495  25.355  1.00  0.00     0.162 C 
ATOM     20  O   UNL     1     -14.698 -44.269  24.489  1.00  0.00    -0.294 OA
BRANCH  19  21
ATOM     21  C   UNL     1     -16.474 -42.902  25.229  1.00  0.00     0.019 A 
ATOM     22  C   UNL     1     -17.038 -42.591  23.979  1.00  0.00     0.017 A 
ATOM     23  C   UNL     1     -17.199 -42.673  26.421  1.00  0.00     0.022 A 
ATOM     24  C   UNL     1     -18.315 -42.025  23.892  1.00  0.00    -0.022 A 
ATOM     25  C   UNL     1     -18.492 -42.125  26.344  1.00  0.00     0.001 A 
ATOM     26  C   UNL     1     -18.985 -41.809  25.093  1.00  0.00     0.059 A 
ATOM     27  C   UNL     1     -19.061 -41.737  22.625  1.00  0.00     0.047 C 
ATOM     28  C   UNL     1     -19.521 -41.801  27.269  1.00  0.00     0.029 A 
ATOM     29  N   UNL     1     -20.247 -41.274  25.221  1.00  0.00    -0.287 N 
ATOM     30  C   UNL     1     -20.144 -40.665  22.850  1.00  0.00     0.106 C 
ATOM     31  C   UNL     1     -20.595 -41.308  26.554  1.00  0.00     0.095 A 
ATOM     32  C   UNL     1     -20.974 -40.798  24.123  1.00  0.00     0.231 C 
ATOM     33  O   UNL     1     -22.129 -40.425  24.270  1.00  0.00    -0.274 OA
ENDBRANCH  19  21
ENDBRANCH  18  19
ENDBRANCH  17  18
ENDBRANCH   5  17
TORSDOF 7
ENDMDL
MODEL 2
REMARK VINA RESULT:   -12.698      0.341      1.992
REMARK INTER + INTRA:         -18.326
REMARK INTER:                 -17.529
REMARK INTRA:                  -0.796
REMARK UNBOUND:                -0.802
REMARK SMILES O=C(CC[C@H]1CC[N@@H+](Cc2ccc(O)cc2)CC1)c1cc2c3c(ccn3C(=O)CC2)c1
REMARK SMILES IDX 7 1 8 2 17 3 6 4 5 5 18 6 9 8 10 9 11 10 16 11 12 12 15 13
REMARK SMILES IDX 13 14 14 15 4 17 3 18 2 19 1 20 19 21 20 22 31 23 21 24
REMARK SMILES IDX 23 25 22 26 30 27 24 28 26 29 29 30 25 31 27 32 28 33
REMARK H PARENT 8 7 14 16
ROOT
ATOM      1  C   UNL     1     -11.583 -43.765  29.436  1.00  0.00     0.262 C 
ATOM      2  N   UNL     1     -11.570 -45.037  30.253  1.00  0.00    -0.331 N 
ATOM      3  C   UNL     1     -12.755 -45.918  29.944  1.00  0.00     0.262 C 
ATOM      4  C   UNL     1     -11.579 -44.120  27.953  1.00  0.00     0.065 C 
ATOM      5  C   UNL     1     -12.757 -45.016  27.547  1.00  0.00     0.000 C 
ATOM      6  C   UNL     1     -12.772 -46.257  28.457  1.00  0.00     0.065 C 
ATOM      7  H   UNL     1     -10.724 -45.561  29.999  1.00  0.00     0.348 HD
ENDROOT
BRANCH   2   8
ATOM      8  C   UNL     1     -11.444 -44.724  31.731  1.00  0.00     0.299 C 
BRANCH   8   9
ATOM      9  C   UNL     1     -10.058 -44.290  32.126  1.00  0.00     0.006 A 
ATOM     10  C   UNL     1      -9.868 -43.192  32.980  1.00  0.00     0.013 A 
ATOM     11  C   UNL     1      -8.934 -44.992  31.659  1.00  0.00     0.013 A 
ATOM     12  C   UNL     1      -8.580 -42.807  33.366  1.00  0.00     0.046 A 
ATOM     13  C   UNL     1      -7.652 -44.606  32.050  1.00  0.00     0.046 A 
ATOM     14  C   UNL     1      -7.484 -43.521  32.899  1.00  0.00     0.115 A 
BRANCH  14  15
ATOM     15  O   UNL     1      -6.212 -43.187  33.249  1.00  0.00    -0.508 OA
ATOM     16  H   UNL     1      -5.582 -43.758  32.776  1.00  0.00     0.293 HD
ENDBRANCH  14  15
ENDBRANCH   8   9
ENDBRANCH   2   8
BRANCH   5  17
ATOM     17  C   UNL     1     -14.139 -44.316  27.547  1.00  0.00     0.012 C 
BRANCH  17  18
ATOM     18  C   UNL     1     -14.273 -43.155  26.547  1.00  0.00     0.081 C 
BRANCH  18  19
ATOM     19  C   UNL     1     -15.100 -43.499  25.315  1.00  0.00     0.162 C 
ATOM     20  O   UNL     1     -14.677 -44.270  24.453  1.00  0.00    -0.294 OA
BRANCH  19  21
ATOM     21  C   UNL     1     -16.461 -42.897  25.164  1.00  0.00     0.019 A 
ATOM     22  C   UNL     1     -17.284 -42.630  26.272  1.00  0.00     0.017 A 
ATOM     23  C   UNL     1     -16.895 -42.586  23.855  1.00  0.00     0.022 A 
ATOM     24  C   UNL     1     -18.559 -42.078  26.100  1.00  0.00    -0.022 A 
ATOM     25  C   UNL     1     -18.165 -42.011  23.672  1.00  0.00     0.001 A 
ATOM     26  C   UNL     1     -18.945 -41.800  24.792  1.00  0.00     0.059 A 
ATOM     27  C   UNL     1     -19.489 -41.662  27.198  1.00  0.00     0.047 C 
ATOM     28  C   UNL     1     -18.919 -41.530  22.567  1.00  0.00     0.029 A 
ATOM     29  N   UNL     1     -20.149 -41.250  24.413  1.00  0.00    -0.287 N 
ATOM     30  C   UNL     1     -20.946 -41.613  26.701  1.00  0.00     0.106 C 
ATOM     31  C   UNL     1     -20.118 -41.043  23.051  1.00  0.00     0.095 A 
ATOM     32  C   UNL     1     -21.174 -40.984  25.330  1.00  0.00     0.231 C 
ATOM     33  O   UNL     1     -22.185 -40.402  24.965  1.00  0.00    -0.274 OA
ENDBRANCH  19  21
ENDBRANCH  18  19
ENDBRANCH  17  18
ENDBRANCH   5  17
TORSDOF 7
ENDMDL
MODEL 3
REMARK VINA RESULT:   -11.054      2.494     11.343
REMARK INTER + INTRA:         -16.056
REMARK INTER:                 -15.610
REMARK INTRA:                  -0.446
REMARK UNBOUND:                -0.802
REMARK SMILES O=C(CC[C@H]1CC[N@@H+](Cc2ccc(O)cc2)CC1)c1cc2c3c(ccn3C(=O)CC2)c1
REMARK SMILES IDX 7 1 8 2 17 3 6 4 5 5 18 6 9 8 10 9 11 10 16 11 12 12 15 13
REMARK SMILES IDX 13 14 14 15 4 17 3 18 2 19 1 20 19 21 20 22 31 23 21 24
REMARK SMILES IDX 23 25 22 26 30 27 24 28 26 29 29 30 25 31 27 32 28 33
REMARK H PARENT 8 7 14 16
ROOT
ATOM      1  C   UNL     1     -20.539 -40.942  25.480  1.00  0.00     0.262 C 
ATOM      2  N   UNL     1     -21.425 -41.846  24.653  1.00  0.00    -0.331 N 
ATOM      3  C   UNL     1     -20.644 -42.964  24.007  1.00  0.00     0.262 C 
ATOM      4  C   UNL     1     -19.848 -41.768  26.560  1.00  0.00     0.065 C 
ATOM      5  C   UNL     1     -19.025 -42.932  25.992  1.00  0.00     0.000 C 
ATOM      6  C   UNL     1     -19.929 -43.780  25.080  1.00  0.00     0.065 C 
ATOM      7  H   UNL     1     -22.109 -42.276  25.285  1.00  0.00     0.348 HD
ENDROOT
BRANCH   2   8
ATOM      8  C   UNL     1     -22.226 -41.039  23.650  1.00  0.00     0.299 C 
BRANCH   8   9
ATOM      9  C   UNL     1     -21.428 -40.647  22.436  1.00  0.00     0.006 A 
ATOM     10  C   UNL     1     -21.502 -41.404  21.255  1.00  0.00     0.013 A 
ATOM     11  C   UNL     1     -20.610 -39.505  22.462  1.00  0.00     0.013 A 
ATOM     12  C   UNL     1     -20.779 -41.022  20.121  1.00  0.00     0.046 A 
ATOM     13  C   UNL     1     -19.894 -39.126  21.327  1.00  0.00     0.046 A 
ATOM     14  C   UNL     1     -19.984 -39.884  20.167  1.00  0.00     0.115 A 
BRANCH  14  15
ATOM     15  O   UNL     1     -19.265 -39.471  19.089  1.00  0.00    -0.508 OA
ATOM     16  H   UNL     1     -18.626 -38.791  19.363  1.00  0.00     0.293 HD
ENDBRANCH  14  15
ENDBRANCH   8   9
ENDBRANCH   2   8
BRANCH   5  17
ATOM     17  C   UNL     1     -17.732 -42.514  25.249  1.00  0.00     0.012 C 
BRANCH  17  18
ATOM     18  C   UNL     1     -16.460 -42.527  26.113  1.00  0.00     0.081 C 
BRANCH  18  19
ATOM     19  C   UNL     1     -15.317 -43.334  25.511  1.00  0.00     0.162 C 
ATOM     20  O   UNL     1     -15.349 -43.717  24.341  1.00  0.00    -0.294 OA
BRANCH  19  21
ATOM     21  C   UNL     1     -14.125 -43.648  26.359  1.00  0.00     0.019 A 
ATOM     22  C   UNL     1     -13.119 -42.698  26.610  1.00  0.00     0.017 A 
ATOM     23  C   UNL     1     -14.047 -44.942  26.922  1.00  0.00     0.022 A 
ATOM     24  C   UNL     1     -12.008 -43.024  27.397  1.00  0.00    -0.022 A 
ATOM     25  C   UNL     1     -12.947 -45.274  27.732  1.00  0.00     0.001 A 
ATOM     26  C   UNL     1     -11.972 -44.313  27.919  1.00  0.00     0.059 A 
ATOM     27  C   UNL     1     -10.923 -42.080  27.813  1.00  0.00     0.047 C 
ATOM     28  C   UNL     1     -12.540 -46.406  28.489  1.00  0.00     0.029 A 
ATOM     29  N   UNL     1     -10.976 -44.824  28.721  1.00  0.00    -0.287 N 
ATOM     30  C   UNL     1      -9.638 -42.842  28.187  1.00  0.00     0.106 C 
ATOM     31  C   UNL     1     -11.344 -46.094  29.108  1.00  0.00     0.095 A 
ATOM     32  C   UNL     1      -9.819 -44.099  29.033  1.00  0.00     0.231 C 
ATOM     33  O   UNL     1      -9.010 -44.552  29.829  1.00  0.00    -0.274 OA
ENDBRANCH  19  21
ENDBRANCH  18  19
ENDBRANCH  17  18
ENDBRANCH   5  17
TORSDOF 7
ENDMDL
MODEL 4
REMARK VINA RESULT:   -10.896      2.590     11.378
REMARK INTER + INTRA:         -15.839
REMARK INTER:                 -15.374
REMARK INTRA:                  -0.464
REMARK UNBOUND:                -0.802
REMARK SMILES O=C(CC[C@H]1CC[N@@H+](Cc2ccc(O)cc2)CC1)c1cc2c3c(ccn3C(=O)CC2)c1
REMARK SMILES IDX 7 1 8 2 17 3 6 4 5 5 18 6 9 8 10 9 11 10 16 11 12 12 15 13
REMARK SMILES IDX 13 14 14 15 4 17 3 18 2 19 1 20 19 21 20 22 31 23 21 24
REMARK SMILES IDX 23 25 22 26 30 27 24 28 26 29 29 30 25 31 27 32 28 33
REMARK H PARENT 8 7 14 16
ROOT
ATOM      1  C   UNL     1     -20.778 -40.925  25.626  1.00  0.00     0.262 C 
ATOM      2  N   UNL     1     -21.627 -41.858  24.793  1.00  0.00    -0.331 N 
ATOM      3  C   UNL     1     -20.813 -42.976  24.190  1.00  0.00     0.262 C 
ATOM      4  C   UNL     1     -20.102 -41.719  26.738  1.00  0.00     0.065 C 
ATOM      5  C   UNL     1     -19.247 -42.880  26.214  1.00  0.00     0.000 C 
ATOM      6  C   UNL     1     -20.114 -43.760  25.296  1.00  0.00     0.065 C 
ATOM      7  H   UNL     1     -22.321 -42.287  25.416  1.00  0.00     0.348 HD
ENDROOT
BRANCH   2   8
ATOM      8  C   UNL     1     -22.415 -41.084  23.755  1.00  0.00     0.299 C 
BRANCH   8   9
ATOM      9  C   UNL     1     -21.595 -40.713  22.548  1.00  0.00     0.006 A 
ATOM     10  C   UNL     1     -21.712 -41.438  21.352  1.00  0.00     0.013 A 
ATOM     11  C   UNL     1     -20.711 -39.621  22.599  1.00  0.00     0.013 A 
ATOM     12  C   UNL     1     -20.968 -41.075  20.225  1.00  0.00     0.046 A 
ATOM     13  C   UNL     1     -19.974 -39.261  21.472  1.00  0.00     0.046 A 
ATOM     14  C   UNL     1     -20.107 -39.987  20.295  1.00  0.00     0.115 A 
BRANCH  14  15
ATOM     15  O   UNL     1     -19.365 -39.593  19.226  1.00  0.00    -0.508 OA
ATOM     16  H   UNL     1     -18.600 -40.184  19.123  1.00  0.00     0.293 HD
ENDBRANCH  14  15
ENDBRANCH   8   9
ENDBRANCH   2   8
BRANCH   5  17
ATOM     17  C   UNL     1     -17.941 -42.456  25.497  1.00  0.00     0.012 C 
BRANCH  17  18
ATOM     18  C   UNL     1     -16.677 -42.514  26.371  1.00  0.00     0.081 C 
BRANCH  18  19
ATOM     19  C   UNL     1     -15.468 -43.108  25.662  1.00  0.00     0.162 C 
ATOM     20  O   UNL     1     -15.445 -43.248  24.439  1.00  0.00    -0.294 OA
BRANCH  19  21
ATOM     21  C   UNL     1     -14.277 -43.511  26.473  1.00  0.00     0.019 A 
ATOM     22  C   UNL     1     -14.209 -44.751  27.131  1.00  0.00     0.017 A 
ATOM     23  C   UNL     1     -13.199 -42.599  26.547  1.00  0.00     0.022 A 
ATOM     24  C   UNL     1     -13.087 -45.096  27.893  1.00  0.00    -0.022 A 
ATOM     25  C   UNL     1     -12.057 -42.944  27.292  1.00  0.00     0.001 A 
ATOM     26  C   UNL     1     -12.057 -44.162  27.944  1.00  0.00     0.059 A 
ATOM     27  C   UNL     1     -12.853 -46.417  28.560  1.00  0.00     0.047 C 
ATOM     28  C   UNL     1     -10.796 -42.348  27.564  1.00  0.00     0.029 A 
ATOM     29  N   UNL     1     -10.871 -44.313  28.628  1.00  0.00    -0.287 N 
ATOM     30  C   UNL     1     -11.840 -46.285  29.712  1.00  0.00     0.106 C 
ATOM     31  C   UNL     1     -10.078 -43.219  28.360  1.00  0.00     0.095 A 
ATOM     32  C   UNL     1     -10.609 -45.426  29.437  1.00  0.00     0.231 C 
ATOM     33  O   UNL     1      -9.506 -45.567  29.943  1.00  0.00    -0.274 OA
ENDBRANCH  19  21
ENDBRANCH  18  19
ENDBRANCH  17  18
ENDBRANCH   5  17
TORSDOF 7
ENDMDL
MODEL 5
REMARK VINA RESULT:   -10.497      3.080     11.012
REMARK INTER + INTRA:         -15.288
REMARK INTER:                 -14.575
REMARK INTRA:                  -0.713
REMARK UNBOUND:                -0.802
REMARK SMILES O=C(CC[C@H]1CC[N@@H+](Cc2ccc(O)cc2)CC1)c1cc2c3c(ccn3C(=O)CC2)c1
REMARK SMILES IDX 7 1 8 2 17 3 6 4 5 5 18 6 9 8 10 9 11 10 16 11 12 12 15 13
REMARK SMILES IDX 13 14 14 15 4 17 3 18 2 19 1 20 19 21 20 22 31 23 21 24
REMARK SMILES IDX 23 25 22 26 30 27 24 28 26 29 29 30 25 31 27 32 28 33
REMARK H PARENT 8 7 14 16
ROOT
ATOM      1  C   UNL     1     -20.667 -43.279  24.901  1.00  0.00     0.262 C 
ATOM      2  N   UNL     1     -21.026 -43.417  26.363  1.00  0.00    -0.331 N 
ATOM      3  C   UNL     1     -19.804 -43.398  27.248  1.00  0.00     0.262 C 
ATOM      4  C   UNL     1     -19.908 -41.974  24.691  1.00  0.00     0.065 C 
ATOM      5  C   UNL     1     -18.643 -41.868  25.554  1.00  0.00     0.000 C 
ATOM      6  C   UNL     1     -19.026 -42.106  27.026  1.00  0.00     0.065 C 
ATOM      7  H   UNL     1     -21.602 -42.608  26.620  1.00  0.00     0.348 HD
ENDROOT
BRANCH   2   8
ATOM      8  C   UNL     1     -21.892 -44.641  26.589  1.00  0.00     0.299 C 
BRANCH   8   9
ATOM      9  C   UNL     1     -23.013 -44.397  27.564  1.00  0.00     0.006 A 
ATOM     10  C   UNL     1     -23.614 -43.132  27.663  1.00  0.00     0.013 A 
ATOM     11  C   UNL     1     -23.487 -45.442  28.375  1.00  0.00     0.013 A 
ATOM     12  C   UNL     1     -24.672 -42.916  28.551  1.00  0.00     0.046 A 
ATOM     13  C   UNL     1     -24.546 -45.222  29.257  1.00  0.00     0.046 A 
ATOM     14  C   UNL     1     -25.130 -43.965  29.338  1.00  0.00     0.115 A 
BRANCH  14  15
ATOM     15  O   UNL     1     -26.159 -43.806  30.214  1.00  0.00    -0.508 OA
ATOM     16  H   UNL     1     -25.816 -43.800  31.124  1.00  0.00     0.293 HD
ENDBRANCH  14  15
ENDBRANCH   8   9
ENDBRANCH   2   8
BRANCH   5  17
ATOM     17  C   UNL     1     -17.484 -42.804  25.129  1.00  0.00     0.012 C 
BRANCH  17  18
ATOM     18  C   UNL     1     -16.206 -42.671  25.973  1.00  0.00     0.081 C 
BRANCH  18  19
ATOM     19  C   UNL     1     -15.034 -43.488  25.445  1.00  0.00     0.162 C 
ATOM     20  O   UNL     1     -15.018 -43.916  24.291  1.00  0.00    -0.294 OA
BRANCH  19  21
ATOM     21  C   UNL     1     -13.873 -43.758  26.349  1.00  0.00     0.019 A 
ATOM     22  C   UNL     1     -12.938 -42.760  26.678  1.00  0.00     0.017 A 
ATOM     23  C   UNL     1     -13.749 -45.061  26.882  1.00  0.00     0.022 A 
ATOM     24  C   UNL     1     -11.854 -43.044  27.515  1.00  0.00    -0.022 A 
ATOM     25  C   UNL     1     -12.676 -45.352  27.742  1.00  0.00     0.001 A 
ATOM     26  C   UNL     1     -11.769 -44.343  28.006  1.00  0.00     0.059 A 
ATOM     27  C   UNL     1     -10.848 -42.051  28.014  1.00  0.00     0.047 C 
ATOM     28  C   UNL     1     -12.243 -46.480  28.491  1.00  0.00     0.029 A 
ATOM     29  N   UNL     1     -10.789 -44.820  28.848  1.00  0.00    -0.287 N 
ATOM     30  C   UNL     1      -9.543 -42.750  28.438  1.00  0.00     0.106 C 
ATOM     31  C   UNL     1     -11.102 -46.119  29.182  1.00  0.00     0.095 A 
ATOM     32  C   UNL     1      -9.694 -44.039  29.241  1.00  0.00     0.231 C 
ATOM     33  O   UNL     1      -8.903 -44.468  30.068  1.00  0.00    -0.274 OA
ENDBRANCH  19  21
ENDBRANCH  18  19
ENDBRANCH  17  18
ENDBRANCH   5  17
TORSDOF 7
ENDMDL
MODEL 6
REMARK VINA RESULT:   -10.400      2.836      4.613
REMARK INTER + INTRA:         -15.154
REMARK INTER:                 -14.641
REMARK INTRA:                  -0.513
REMARK UNBOUND:                -0.802
REMARK SMILES O=C(CC[C@H]1CC[N@@H+](Cc2ccc(O)cc2)CC1)c1cc2c3c(ccn3C(=O)CC2)c1
REMARK SMILES IDX 7 1 8 2 17 3 6 4 5 5 18 6 9 8 10 9 11 10 16 11 12 12 15 13
REMARK SMILES IDX 13 14 14 15 4 17 3 18 2 19 1 20 19 21 20 22 31 23 21 24
REMARK SMILES IDX 23 25 22 26 30 27 24 28 26 29 29 30 25 31 27 32 28 33
REMARK H PARENT 8 7 14 16
ROOT
ATOM      1  C   UNL     1     -14.829 -44.026  27.341  1.00  0.00     0.262 C 
ATOM      2  N   UNL     1     -13.787 -44.656  26.445  1.00  0.00    -0.331 N 
ATOM      3  C   UNL     1     -14.193 -44.615  24.992  1.00  0.00     0.262 C 
ATOM      4  C   UNL     1     -15.050 -42.579  26.915  1.00  0.00     0.065 C 
ATOM      5  C   UNL     1     -15.470 -42.442  25.446  1.00  0.00     0.000 C 
ATOM      6  C   UNL     1     -14.440 -43.172  24.566  1.00  0.00     0.065 C 
ATOM      7  H   UNL     1     -12.924 -44.107  26.537  1.00  0.00     0.348 HD
ENDROOT
BRANCH   2   8
ATOM      8  C   UNL     1     -13.447 -46.055  26.917  1.00  0.00     0.299 C 
BRANCH   8   9
ATOM      9  C   UNL     1     -12.587 -46.069  28.152  1.00  0.00     0.006 A 
ATOM     10  C   UNL     1     -13.165 -45.978  29.429  1.00  0.00     0.013 A 
ATOM     11  C   UNL     1     -11.191 -46.192  28.044  1.00  0.00     0.013 A 
ATOM     12  C   UNL     1     -12.365 -46.016  30.575  1.00  0.00     0.046 A 
ATOM     13  C   UNL     1     -10.398 -46.233  29.190  1.00  0.00     0.046 A 
ATOM     14  C   UNL     1     -10.988 -46.147  30.445  1.00  0.00     0.115 A 
BRANCH  14  15
ATOM     15  O   UNL     1     -10.168 -46.193  31.529  1.00  0.00    -0.508 OA
ATOM     16  H   UNL     1     -10.222 -45.352  32.016  1.00  0.00     0.293 HD
ENDBRANCH  14  15
ENDBRANCH   8   9
ENDBRANCH   2   8
BRANCH   5  17
ATOM     17  C   UNL     1     -16.906 -42.929  25.131  1.00  0.00     0.012 C 
BRANCH  17  18
ATOM     18  C   UNL     1     -18.011 -42.256  25.962  1.00  0.00     0.081 C 
BRANCH  18  19
ATOM     19  C   UNL     1     -19.420 -42.551  25.463  1.00  0.00     0.162 C 
ATOM     20  O   UNL     1     -20.070 -43.500  25.901  1.00  0.00    -0.294 OA
BRANCH  19  21
ATOM     21  C   UNL     1     -20.027 -41.653  24.432  1.00  0.00     0.019 A 
ATOM     22  C   UNL     1     -19.400 -41.404  23.198  1.00  0.00     0.017 A 
ATOM     23  C   UNL     1     -21.276 -41.064  24.734  1.00  0.00     0.022 A 
ATOM     24  C   UNL     1     -19.986 -40.549  22.258  1.00  0.00    -0.022 A 
ATOM     25  C   UNL     1     -21.885 -40.220  23.788  1.00  0.00     0.001 A 
ATOM     26  C   UNL     1     -21.210 -39.986  22.605  1.00  0.00     0.059 A 
ATOM     27  C   UNL     1     -19.469 -40.279  20.878  1.00  0.00     0.047 C 
ATOM     28  C   UNL     1     -23.108 -39.502  23.696  1.00  0.00     0.029 A 
ATOM     29  N   UNL     1     -21.950 -39.130  21.820  1.00  0.00    -0.287 N 
ATOM     30  C   UNL     1     -20.010 -38.943  20.335  1.00  0.00     0.106 C 
ATOM     31  C   UNL     1     -23.136 -38.867  22.469  1.00  0.00     0.095 A 
ATOM     32  C   UNL     1     -21.488 -38.659  20.584  1.00  0.00     0.231 C 
ATOM     33  O   UNL     1     -22.220 -37.984  19.875  1.00  0.00    -0.274 OA
ENDBRANCH  19  21
ENDBRANCH  18  19
ENDBRANCH  17  18
ENDBRANCH   5  17
TORSDOF 7
ENDMDL
MODEL 7
REMARK VINA RESULT:   -10.255      2.312      2.954
REMARK INTER + INTRA:         -14.954
REMARK INTER:                 -14.692
REMARK INTRA:                  -0.262
REMARK UNBOUND:                -0.802
REMARK SMILES O=C(CC[C@H]1CC[N@@H+](Cc2ccc(O)cc2)CC1)c1cc2c3c(ccn3C(=O)CC2)c1
REMARK SMILES IDX 7 1 8 2 17 3 6 4 5 5 18 6 9 8 10 9 11 10 16 11 12 12 15 13
REMARK SMILES IDX 13 14 14 15 4 17 3 18 2 19 1 20 19 21 20 22 31 23 21 24
REMARK SMILES IDX 23 25 22 26 30 27 24 28 26 29 29 30 25 31 27 32 28 33
REMARK H PARENT 8 7 14 16
ROOT
ATOM      1  C   UNL     1     -11.420 -45.775  29.294  1.00  0.00     0.262 C 
ATOM      2  N   UNL     1     -12.372 -45.337  30.384  1.00  0.00    -0.331 N 
ATOM      3  C   UNL     1     -13.404 -44.362  29.873  1.00  0.00     0.262 C 
ATOM      4  C   UNL     1     -12.213 -46.420  28.163  1.00  0.00     0.065 C 
ATOM      5  C   UNL     1     -13.288 -45.494  27.579  1.00  0.00     0.000 C 
ATOM      6  C   UNL     1     -14.185 -44.991  28.724  1.00  0.00     0.065 C 
ATOM      7  H   UNL     1     -12.874 -46.170  30.711  1.00  0.00     0.348 HD
ENDROOT
BRANCH   2   8
ATOM      8  C   UNL     1     -11.609 -44.807  31.581  1.00  0.00     0.299 C 
BRANCH   8   9
ATOM      9  C   UNL     1     -12.448 -43.932  32.474  1.00  0.00     0.006 A 
ATOM     10  C   UNL     1     -11.882 -42.826  33.129  1.00  0.00     0.013 A 
ATOM     11  C   UNL     1     -13.815 -44.202  32.651  1.00  0.00     0.013 A 
ATOM     12  C   UNL     1     -12.670 -42.000  33.937  1.00  0.00     0.046 A 
ATOM     13  C   UNL     1     -14.597 -43.373  33.455  1.00  0.00     0.046 A 
ATOM     14  C   UNL     1     -14.021 -42.280  34.090  1.00  0.00     0.115 A 
BRANCH  14  15
ATOM     15  O   UNL     1     -14.829 -41.505  34.863  1.00  0.00    -0.508 OA
ATOM     16  H   UNL     1     -15.508 -41.086  34.309  1.00  0.00     0.293 HD
ENDBRANCH  14  15
ENDBRANCH   8   9
ENDBRANCH   2   8
BRANCH   5  17
ATOM     17  C   UNL     1     -12.744 -44.307  26.745  1.00  0.00     0.012 C 
BRANCH  17  18
ATOM     18  C   UNL     1     -13.694 -43.103  26.642  1.00  0.00     0.081 C 
BRANCH  18  19
ATOM     19  C   UNL     1     -14.431 -43.014  25.313  1.00  0.00     0.162 C 
ATOM     20  O   UNL     1     -13.852 -43.211  24.243  1.00  0.00    -0.294 OA
BRANCH  19  21
ATOM     21  C   UNL     1     -15.893 -42.698  25.313  1.00  0.00     0.019 A 
ATOM     22  C   UNL     1     -16.610 -42.488  24.121  1.00  0.00     0.017 A 
ATOM     23  C   UNL     1     -16.546 -42.631  26.565  1.00  0.00     0.022 A 
ATOM     24  C   UNL     1     -17.975 -42.181  24.152  1.00  0.00    -0.022 A 
ATOM     25  C   UNL     1     -17.923 -42.346  26.607  1.00  0.00     0.001 A 
ATOM     26  C   UNL     1     -18.571 -42.116  25.408  1.00  0.00     0.059 A 
ATOM     27  C   UNL     1     -18.866 -42.029  22.957  1.00  0.00     0.047 C 
ATOM     28  C   UNL     1     -18.914 -42.240  27.620  1.00  0.00     0.029 A 
ATOM     29  N   UNL     1     -19.897 -41.840  25.652  1.00  0.00    -0.287 N 
ATOM     30  C   UNL     1     -20.113 -41.192  23.299  1.00  0.00     0.106 C 
ATOM     31  C   UNL     1     -20.119 -41.959  27.007  1.00  0.00     0.095 A 
ATOM     32  C   UNL     1     -20.792 -41.502  24.630  1.00  0.00     0.231 C 
ATOM     33  O   UNL     1     -21.981 -41.364  24.879  1.00  0.00    -0.274 OA
ENDBRANCH  19  21
ENDBRANCH  18  19
ENDBRANCH  17  18
ENDBRANCH   5  17
TORSDOF 7
ENDMDL
MODEL 8
REMARK VINA RESULT:   -10.143      2.399     12.004
REMARK INTER + INTRA:         -14.800
REMARK INTER:                 -14.140
REMARK INTRA:                  -0.660
REMARK UNBOUND:                -0.802
REMARK SMILES O=C(CC[C@H]1CC[N@@H+](Cc2ccc(O)cc2)CC1)c1cc2c3c(ccn3C(=O)CC2)c1
REMARK SMILES IDX 7 1 8 2 17 3 6 4 5 5 18 6 9 8 10 9 11 10 16 11 12 12 15 13
REMARK SMILES IDX 13 14 14 15 4 17 3 18 2 19 1 20 19 21 20 22 31 23 21 24
REMARK SMILES IDX 23 25 22 26 30 27 24 28 26 29 29 30 25 31 27 32 28 33
REMARK H PARENT 8 7 14 16
ROOT
ATOM      1  C   UNL     1     -18.713 -42.057  23.816  1.00  0.00     0.262 C 
ATOM      2  N   UNL     1     -18.754 -41.139  22.617  1.00  0.00    -0.331 N 
ATOM      3  C   UNL     1     -17.413 -40.500  22.350  1.00  0.00     0.262 C 
ATOM      4  C   UNL     1     -17.671 -43.145  23.582  1.00  0.00     0.065 C 
ATOM      5  C   UNL     1     -16.270 -42.584  23.303  1.00  0.00     0.000 C 
ATOM      6  C   UNL     1     -16.360 -41.582  22.138  1.00  0.00     0.065 C 
ATOM      7  H   UNL     1     -18.991 -41.708  21.796  1.00  0.00     0.348 HD
ENDROOT
BRANCH   2   8
ATOM      8  C   UNL     1     -19.868 -40.120  22.759  1.00  0.00     0.299 C 
BRANCH   8   9
ATOM      9  C   UNL     1     -20.566 -39.825  21.459  1.00  0.00     0.006 A 
ATOM     10  C   UNL     1     -20.464 -38.557  20.862  1.00  0.00     0.013 A 
ATOM     11  C   UNL     1     -21.317 -40.822  20.814  1.00  0.00     0.013 A 
ATOM     12  C   UNL     1     -21.093 -38.294  19.642  1.00  0.00     0.046 A 
ATOM     13  C   UNL     1     -21.940 -40.555  19.594  1.00  0.00     0.046 A 
ATOM     14  C   UNL     1     -21.823 -39.297  19.018  1.00  0.00     0.115 A 
BRANCH  14  15
ATOM     15  O   UNL     1     -22.450 -39.091  17.828  1.00  0.00    -0.508 OA
ATOM     16  H   UNL     1     -21.790 -38.906  17.138  1.00  0.00     0.293 HD
ENDBRANCH  14  15
ENDBRANCH   8   9
ENDBRANCH   2   8
BRANCH   5  17
ATOM     17  C   UNL     1     -15.569 -41.943  24.526  1.00  0.00     0.012 C 
BRANCH  17  18
ATOM     18  C   UNL     1     -15.587 -42.802  25.802  1.00  0.00     0.081 C 
BRANCH  18  19
ATOM     19  C   UNL     1     -14.567 -43.932  25.796  1.00  0.00     0.162 C 
ATOM     20  O   UNL     1     -14.513 -44.744  24.872  1.00  0.00    -0.294 OA
BRANCH  19  21
ATOM     21  C   UNL     1     -13.598 -44.041  26.931  1.00  0.00     0.019 A 
ATOM     22  C   UNL     1     -13.709 -45.043  27.911  1.00  0.00     0.017 A 
ATOM     23  C   UNL     1     -12.543 -43.101  26.982  1.00  0.00     0.022 A 
ATOM     24  C   UNL     1     -12.796 -45.114  28.969  1.00  0.00    -0.022 A 
ATOM     25  C   UNL     1     -11.607 -43.176  28.029  1.00  0.00     0.001 A 
ATOM     26  C   UNL     1     -11.782 -44.161  28.981  1.00  0.00     0.059 A 
ATOM     27  C   UNL     1     -12.750 -46.184  30.017  1.00  0.00     0.047 C 
ATOM     28  C   UNL     1     -10.425 -42.476  28.394  1.00  0.00     0.029 A 
ATOM     29  N   UNL     1     -10.784 -44.065  29.926  1.00  0.00    -0.287 N 
ATOM     30  C   UNL     1     -12.019 -45.692  31.280  1.00  0.00     0.106 C 
ATOM     31  C   UNL     1      -9.925 -43.058  29.543  1.00  0.00     0.095 A 
ATOM     32  C   UNL     1     -10.738 -44.894  31.053  1.00  0.00     0.231 C 
ATOM     33  O   UNL     1      -9.780 -44.843  31.811  1.00  0.00    -0.274 OA
ENDBRANCH  19  21
ENDBRANCH  18  19
ENDBRANCH  17  18
ENDBRANCH   5  17
TORSDOF 7
ENDMDL
MODEL 9
REMARK VINA RESULT:    -9.980      2.828      5.182
REMARK INTER + INTRA:         -14.574
REMARK INTER:                 -14.045
REMARK INTRA:                  -0.529
REMARK UNBOUND:                -0.802
REMARK SMILES O=C(CC[C@H]1CC[N@@H+](Cc2ccc(O)cc2)CC1)c1cc2c3c(ccn3C(=O)CC2)c1
REMARK SMILES IDX 7 1 8 2 17 3 6 4 5 5 18 6 9 8 10 9 11 10 16 11 12 12 15 13
REMARK SMILES IDX 13 14 14 15 4 17 3 18 2 19 1 20 19 21 20 22 31 23 21 24
REMARK SMILES IDX 23 25 22 26 30 27 24 28 26 29 29 30 25 31 27 32 28 33
REMARK H PARENT 8 7 14 16
ROOT
ATOM      1  C   UNL     1     -14.929 -43.636  27.150  1.00  0.00     0.262 C 
ATOM      2  N   UNL     1     -13.924 -44.281  26.223  1.00  0.00    -0.331 N 
ATOM      3  C   UNL     1     -14.473 -44.452  24.827  1.00  0.00     0.262 C 
ATOM      4  C   UNL     1     -15.328 -42.275  26.591  1.00  0.00     0.065 C 
ATOM      5  C   UNL     1     -15.903 -42.354  25.170  1.00  0.00     0.000 C 
ATOM      6  C   UNL     1     -14.898 -43.097  24.271  1.00  0.00     0.065 C 
ATOM      7  H   UNL     1     -13.114 -43.654  26.157  1.00  0.00     0.348 HD
ENDROOT
BRANCH   2   8
ATOM      8  C   UNL     1     -13.408 -45.579  26.810  1.00  0.00     0.299 C 
BRANCH   8   9
ATOM      9  C   UNL     1     -12.199 -45.390  27.687  1.00  0.00     0.006 A 
ATOM     10  C   UNL     1     -11.819 -44.108  28.117  1.00  0.00     0.013 A 
ATOM     11  C   UNL     1     -11.444 -46.499  28.103  1.00  0.00     0.013 A 
ATOM     12  C   UNL     1     -10.711 -43.938  28.952  1.00  0.00     0.046 A 
ATOM     13  C   UNL     1     -10.341 -46.325  28.940  1.00  0.00     0.046 A 
ATOM     14  C   UNL     1      -9.984 -45.050  29.358  1.00  0.00     0.115 A 
BRANCH  14  15
ATOM     15  O   UNL     1      -8.900 -44.937  30.173  1.00  0.00    -0.508 OA
ATOM     16  H   UNL     1      -8.830 -44.023  30.499  1.00  0.00     0.293 HD
ENDBRANCH  14  15
ENDBRANCH   8   9
ENDBRANCH   2   8
BRANCH   5  17
ATOM     17  C   UNL     1     -17.309 -42.994  25.069  1.00  0.00     0.012 C 
BRANCH  17  18
ATOM     18  C   UNL     1     -18.479 -42.008  25.223  1.00  0.00     0.081 C 
BRANCH  18  19
ATOM     19  C   UNL     1     -19.714 -42.389  24.419  1.00  0.00     0.162 C 
ATOM     20  O   UNL     1     -20.258 -43.485  24.559  1.00  0.00    -0.294 OA
BRANCH  19  21
ATOM     21  C   UNL     1     -20.285 -41.400  23.453  1.00  0.00     0.019 A 
ATOM     22  C   UNL     1     -21.492 -40.725  23.705  1.00  0.00     0.017 A 
ATOM     23  C   UNL     1     -19.556 -41.149  22.268  1.00  0.00     0.022 A 
ATOM     24  C   UNL     1     -22.009 -39.814  22.777  1.00  0.00    -0.022 A 
ATOM     25  C   UNL     1     -20.055 -40.219  21.339  1.00  0.00     0.001 A 
ATOM     26  C   UNL     1     -21.261 -39.609  21.622  1.00  0.00     0.059 A 
ATOM     27  C   UNL     1     -23.229 -38.966  22.969  1.00  0.00     0.047 C 
ATOM     28  C   UNL     1     -19.616 -39.675  20.101  1.00  0.00     0.029 A 
ATOM     29  N   UNL     1     -21.591 -38.751  20.596  1.00  0.00    -0.287 N 
ATOM     30  C   UNL     1     -23.806 -38.510  21.615  1.00  0.00     0.106 C 
ATOM     31  C   UNL     1     -20.560 -38.758  19.682  1.00  0.00     0.095 A 
ATOM     32  C   UNL     1     -22.796 -38.038  20.574  1.00  0.00     0.231 C 
ATOM     33  O   UNL     1     -23.001 -37.212  19.696  1.00  0.00    -0.274 OA
ENDBRANCH  19  21
ENDBRANCH  18  19
ENDBRANCH  17  18
ENDBRANCH   5  17
TORSDOF 7
ENDMDL
