MODEL 1
REMARK VINA RESULT:   -10.308      0.000      0.000
REMARK INTER + INTRA:         -16.704
REMARK INTER:                 -13.923
REMARK INTRA:                  -2.780
REMARK UNBOUND:                -2.780
REMARK SMILES O=C(NCCCNc1c2c(nc3ccccc13)CCCC2)c1ccc(F)cc1
REMARK SMILES IDX 5 1 6 2 7 3 8 5 9 6 17 7 10 8 21 9 16 10 12 11 11 12 18 13
REMARK SMILES IDX 20 14 15 15 13 16 19 17 14 18 4 19 3 20 2 21 1 23 22 24
REMARK SMILES IDX 23 25 28 26 24 27 27 28 25 29 26 30
REMARK H PARENT 7 4 3 22
ROOT
ATOM      1  C   UNL     1     -13.739 -43.552  32.968  1.00  0.00     0.042 C 
ENDROOT
BRANCH   1   2
ATOM      2  C   UNL     1     -14.447 -43.618  31.616  1.00  0.00     0.115 C 
BRANCH   2   3
ATOM      3  N   UNL     1     -14.393 -44.986  31.080  1.00  0.00    -0.384 N 
ATOM      4  H   UNL     1     -13.980 -45.621  31.758  1.00  0.00     0.160 HD
BRANCH   3   5
ATOM      5  C   UNL     1     -13.634 -45.039  29.873  1.00  0.00     0.049 A 
ATOM      6  C   UNL     1     -14.186 -44.643  28.645  1.00  0.00    -0.003 A 
ATOM      7  C   UNL     1     -12.328 -45.600  29.895  1.00  0.00     0.024 A 
ATOM      8  C   UNL     1     -13.411 -44.822  27.496  1.00  0.00     0.046 A 
ATOM      9  C   UNL     1     -15.578 -44.102  28.450  1.00  0.00     0.039 C 
ATOM     10  C   UNL     1     -11.683 -46.024  31.082  1.00  0.00     0.012 A 
ATOM     11  C   UNL     1     -11.639 -45.725  28.670  1.00  0.00     0.073 A 
ATOM     12  N   UNL     1     -12.168 -45.349  27.497  1.00  0.00    -0.252 NA
ATOM     13  C   UNL     1     -14.005 -44.451  26.162  1.00  0.00     0.056 C 
ATOM     14  C   UNL     1     -15.598 -42.923  27.470  1.00  0.00     0.005 C 
ATOM     15  C   UNL     1     -10.400 -46.565  31.058  1.00  0.00     0.001 A 
ATOM     16  C   UNL     1     -10.360 -46.267  28.671  1.00  0.00     0.029 A 
ATOM     17  C   UNL     1     -14.693 -43.092  26.242  1.00  0.00     0.007 C 
ATOM     18  C   UNL     1      -9.734 -46.688  29.847  1.00  0.00     0.002 A 
ENDBRANCH   3   5
ENDBRANCH   2   3
ENDBRANCH   1   2
BRANCH   1  19
ATOM     19  C   UNL     1     -12.660 -42.474  33.013  1.00  0.00     0.118 C 
BRANCH  19  20
ATOM     20  N   UNL     1     -11.987 -42.334  31.735  1.00  0.00    -0.352 N 
ATOM     21  C   UNL     1     -10.708 -42.816  31.546  1.00  0.00     0.251 C 
ATOM     22  H   UNL     1     -12.557 -42.114  30.929  1.00  0.00     0.163 HD
ATOM     23  O   UNL     1     -10.048 -43.343  32.435  1.00  0.00    -0.269 OA
BRANCH  21  24
ATOM     24  C   UNL     1     -10.153 -42.705  30.169  1.00  0.00     0.040 A 
ATOM     25  C   UNL     1      -8.827 -43.056  29.871  1.00  0.00     0.017 A 
ATOM     26  C   UNL     1     -11.001 -42.261  29.143  1.00  0.00     0.017 A 
ATOM     27  C   UNL     1      -8.353 -42.939  28.561  1.00  0.00     0.040 A 
ATOM     28  C   UNL     1     -10.523 -42.145  27.837  1.00  0.00     0.040 A 
ATOM     29  C   UNL     1      -9.203 -42.481  27.559  1.00  0.00     0.123 A 
ATOM     30  F   UNL     1      -8.744 -42.371  26.306  1.00  0.00    -0.207 F 
ENDBRANCH  21  24
ENDBRANCH  19  20
ENDBRANCH   1  19
TORSDOF 6
ENDMDL
MODEL 2
REMARK VINA RESULT:   -10.157      2.895      5.906
REMARK INTER + INTRA:         -16.500
REMARK INTER:                 -15.932
REMARK INTRA:                  -0.567
REMARK UNBOUND:                -2.780
REMARK SMILES O=C(NCCCNc1c2c(nc3ccccc13)CCCC2)c1ccc(F)cc1
REMARK SMILES IDX 5 1 6 2 7 3 8 5 9 6 17 7 10 8 21 9 16 10 12 11 11 12 18 13
REMARK SMILES IDX 20 14 15 15 13 16 19 17 14 18 4 19 3 20 2 21 1 23 22 24
REMARK SMILES IDX 23 25 28 26 24 27 27 28 25 29 26 30
REMARK H PARENT 7 4 3 22
ROOT
ATOM      1  C   UNL     1     -11.962 -45.928  28.424  1.00  0.00     0.042 C 
ENDROOT
BRANCH   1   2
ATOM      2  C   UNL     1     -10.747 -46.267  29.286  1.00  0.00     0.115 C 
BRANCH   2   3
ATOM      3  N   UNL     1     -11.159 -46.486  30.681  1.00  0.00    -0.384 N 
ATOM      4  H   UNL     1     -12.142 -46.743  30.729  1.00  0.00     0.160 HD
BRANCH   3   5
ATOM      5  C   UNL     1     -10.947 -45.317  31.472  1.00  0.00     0.049 A 
ATOM      6  C   UNL     1     -12.014 -44.489  31.852  1.00  0.00    -0.003 A 
ATOM      7  C   UNL     1      -9.618 -44.925  31.794  1.00  0.00     0.024 A 
ATOM      8  C   UNL     1     -11.710 -43.310  32.537  1.00  0.00     0.046 A 
ATOM      9  C   UNL     1     -13.464 -44.729  31.522  1.00  0.00     0.039 C 
ATOM     10  C   UNL     1      -8.478 -45.693  31.459  1.00  0.00     0.012 A 
ATOM     11  C   UNL     1      -9.437 -43.714  32.495  1.00  0.00     0.073 A 
ATOM     12  N   UNL     1     -10.456 -42.922  32.856  1.00  0.00    -0.252 NA
ATOM     13  C   UNL     1     -12.837 -42.381  32.910  1.00  0.00     0.056 C 
ATOM     14  C   UNL     1     -14.377 -44.424  32.715  1.00  0.00     0.005 C 
ATOM     15  C   UNL     1      -7.194 -45.273  31.798  1.00  0.00     0.001 A 
ATOM     16  C   UNL     1      -8.146 -43.316  32.823  1.00  0.00     0.029 A 
ATOM     17  C   UNL     1     -14.000 -43.166  33.508  1.00  0.00     0.007 C 
ATOM     18  C   UNL     1      -7.026 -44.078  32.483  1.00  0.00     0.002 A 
ENDBRANCH   3   5
ENDBRANCH   2   3
ENDBRANCH   1   2
BRANCH   1  19
ATOM     19  C   UNL     1     -12.091 -44.432  28.155  1.00  0.00     0.118 C 
BRANCH  19  20
ATOM     20  N   UNL     1     -13.005 -44.159  27.061  1.00  0.00    -0.352 N 
ATOM     21  C   UNL     1     -14.345 -43.927  27.293  1.00  0.00     0.251 C 
ATOM     22  H   UNL     1     -12.603 -43.893  26.173  1.00  0.00     0.163 HD
ATOM     23  O   UNL     1     -14.855 -43.978  28.407  1.00  0.00    -0.269 OA
BRANCH  21  24
ATOM     24  C   UNL     1     -15.171 -43.562  26.109  1.00  0.00     0.040 A 
ATOM     25  C   UNL     1     -14.786 -43.897  24.802  1.00  0.00     0.017 A 
ATOM     26  C   UNL     1     -16.382 -42.887  26.325  1.00  0.00     0.017 A 
ATOM     27  C   UNL     1     -15.598 -43.536  23.723  1.00  0.00     0.040 A 
ATOM     28  C   UNL     1     -17.189 -42.528  25.244  1.00  0.00     0.040 A 
ATOM     29  C   UNL     1     -16.788 -42.852  23.954  1.00  0.00     0.123 A 
ATOM     30  F   UNL     1     -17.562 -42.510  22.916  1.00  0.00    -0.207 F 
ENDBRANCH  21  24
ENDBRANCH  19  20
ENDBRANCH   1  19
TORSDOF 6
ENDMDL
MODEL 3
REMARK VINA RESULT:   -10.105      2.833      6.612
REMARK INTER + INTRA:         -16.429
REMARK INTER:                 -15.725
REMARK INTRA:                  -0.704
REMARK UNBOUND:                -2.780
REMARK SMILES O=C(NCCCNc1c2c(nc3ccccc13)CCCC2)c1ccc(F)cc1
REMARK SMILES IDX 5 1 6 2 7 3 8 5 9 6 17 7 10 8 21 9 16 10 12 11 11 12 18 13
REMARK SMILES IDX 20 14 15 15 13 16 19 17 14 18 4 19 3 20 2 21 1 23 22 24
REMARK SMILES IDX 23 25 28 26 24 27 27 28 25 29 26 30
REMARK H PARENT 7 4 3 22
ROOT
ATOM      1  C   UNL     1     -12.047 -45.876  28.656  1.00  0.00     0.042 C 
ENDROOT
BRANCH   1   2
ATOM      2  C   UNL     1     -10.899 -46.174  29.618  1.00  0.00     0.115 C 
BRANCH   2   3
ATOM      3  N   UNL     1     -11.393 -46.211  31.003  1.00  0.00    -0.384 N 
ATOM      4  H   UNL     1     -12.397 -46.375  31.022  1.00  0.00     0.160 HD
BRANCH   3   5
ATOM      5  C   UNL     1     -11.111 -44.990  31.686  1.00  0.00     0.049 A 
ATOM      6  C   UNL     1      -9.805 -44.656  32.074  1.00  0.00    -0.003 A 
ATOM      7  C   UNL     1     -12.186 -44.144  32.073  1.00  0.00     0.024 A 
ATOM      8  C   UNL     1      -9.629 -43.493  32.828  1.00  0.00     0.046 A 
ATOM      9  C   UNL     1      -8.577 -45.485  31.805  1.00  0.00     0.039 C 
ATOM     10  C   UNL     1     -13.536 -44.392  31.726  1.00  0.00     0.012 A 
ATOM     11  C   UNL     1     -11.883 -42.992  32.829  1.00  0.00     0.073 A 
ATOM     12  N   UNL     1     -10.635 -42.674  33.202  1.00  0.00    -0.252 NA
ATOM     13  C   UNL     1      -8.241 -43.143  33.298  1.00  0.00     0.056 C 
ATOM     14  C   UNL     1      -7.386 -44.618  31.381  1.00  0.00     0.005 C 
ATOM     15  C   UNL     1     -14.558 -43.533  32.123  1.00  0.00     0.001 A 
ATOM     16  C   UNL     1     -12.918 -42.149  33.213  1.00  0.00     0.029 A 
ATOM     17  C   UNL     1      -7.234 -43.307  32.164  1.00  0.00     0.007 C 
ATOM     18  C   UNL     1     -14.249 -42.406  32.871  1.00  0.00     0.002 A 
ENDBRANCH   3   5
ENDBRANCH   2   3
ENDBRANCH   1   2
BRANCH   1  19
ATOM     19  C   UNL     1     -12.174 -44.389  28.338  1.00  0.00     0.118 C 
BRANCH  19  20
ATOM     20  N   UNL     1     -13.036 -44.155  27.195  1.00  0.00    -0.352 N 
ATOM     21  C   UNL     1     -14.384 -43.906  27.357  1.00  0.00     0.251 C 
ATOM     22  H   UNL     1     -12.593 -43.927  26.315  1.00  0.00     0.163 HD
ATOM     23  O   UNL     1     -14.943 -43.909  28.449  1.00  0.00    -0.269 OA
BRANCH  21  24
ATOM     24  C   UNL     1     -15.154 -43.584  26.124  1.00  0.00     0.040 A 
ATOM     25  C   UNL     1     -16.337 -42.830  26.161  1.00  0.00     0.017 A 
ATOM     26  C   UNL     1     -14.654 -44.033  24.891  1.00  0.00     0.017 A 
ATOM     27  C   UNL     1     -17.021 -42.550  24.975  1.00  0.00     0.040 A 
ATOM     28  C   UNL     1     -15.342 -43.751  23.710  1.00  0.00     0.040 A 
ATOM     29  C   UNL     1     -16.520 -43.017  23.763  1.00  0.00     0.123 A 
ATOM     30  F   UNL     1     -17.180 -42.745  22.630  1.00  0.00    -0.207 F 
ENDBRANCH  21  24
ENDBRANCH  19  20
ENDBRANCH   1  19
TORSDOF 6
ENDMDL
MODEL 4
REMARK VINA RESULT:    -9.731      5.708      9.132
REMARK INTER + INTRA:         -15.924
REMARK INTER:                 -15.246
REMARK INTRA:                  -0.679
REMARK UNBOUND:                -2.780
REMARK SMILES O=C(NCCCNc1c2c(nc3ccccc13)CCCC2)c1ccc(F)cc1
REMARK SMILES IDX 5 1 6 2 7 3 8 5 9 6 17 7 10 8 21 9 16 10 12 11 11 12 18 13
REMARK SMILES IDX 20 14 15 15 13 16 19 17 14 18 4 19 3 20 2 21 1 23 22 24
REMARK SMILES IDX 23 25 28 26 24 27 27 28 25 29 26 30
REMARK H PARENT 7 4 3 22
ROOT
ATOM      1  C   UNL     1     -15.711 -42.738  23.546  1.00  0.00     0.042 C 
ENDROOT
BRANCH   1   2
ATOM      2  C   UNL     1     -16.584 -41.717  22.821  1.00  0.00     0.115 C 
BRANCH   2   3
ATOM      3  N   UNL     1     -17.876 -42.318  22.459  1.00  0.00    -0.384 N 
ATOM      4  H   UNL     1     -17.973 -42.383  21.449  1.00  0.00     0.160 HD
BRANCH   3   5
ATOM      5  C   UNL     1     -18.965 -41.556  22.980  1.00  0.00     0.049 A 
ATOM      6  C   UNL     1     -19.464 -41.784  24.271  1.00  0.00    -0.003 A 
ATOM      7  C   UNL     1     -19.624 -40.618  22.139  1.00  0.00     0.024 A 
ATOM      8  C   UNL     1     -20.596 -41.066  24.666  1.00  0.00     0.046 A 
ATOM      9  C   UNL     1     -18.923 -42.793  25.249  1.00  0.00     0.039 C 
ATOM     10  C   UNL     1     -19.194 -40.315  20.824  1.00  0.00     0.012 A 
ATOM     11  C   UNL     1     -20.756 -39.949  22.651  1.00  0.00     0.073 A 
ATOM     12  N   UNL     1     -21.234 -40.169  23.884  1.00  0.00    -0.252 NA
ATOM     13  C   UNL     1     -21.179 -41.333  26.030  1.00  0.00     0.056 C 
ATOM     14  C   UNL     1     -18.863 -42.230  26.674  1.00  0.00     0.005 C 
ATOM     15  C   UNL     1     -19.868 -39.385  20.036  1.00  0.00     0.001 A 
ATOM     16  C   UNL     1     -21.411 -39.025  21.847  1.00  0.00     0.029 A 
ATOM     17  C   UNL     1     -20.076 -41.384  27.082  1.00  0.00     0.007 C 
ATOM     18  C   UNL     1     -20.983 -38.737  20.548  1.00  0.00     0.002 A 
ENDBRANCH   3   5
ENDBRANCH   2   3
ENDBRANCH   1   2
BRANCH   1  19
ATOM     19  C   UNL     1     -15.347 -42.299  24.961  1.00  0.00     0.118 C 
BRANCH  19  20
ATOM     20  N   UNL     1     -14.298 -43.126  25.528  1.00  0.00    -0.352 N 
ATOM     21  C   UNL     1     -14.355 -43.551  26.839  1.00  0.00     0.251 C 
ATOM     22  H   UNL     1     -13.670 -43.588  24.884  1.00  0.00     0.163 HD
ATOM     23  O   UNL     1     -15.251 -43.231  27.613  1.00  0.00    -0.269 OA
BRANCH  21  24
ATOM     24  C   UNL     1     -13.276 -44.475  27.286  1.00  0.00     0.040 A 
ATOM     25  C   UNL     1     -13.271 -45.835  26.942  1.00  0.00     0.017 A 
ATOM     26  C   UNL     1     -12.223 -43.948  28.051  1.00  0.00     0.017 A 
ATOM     27  C   UNL     1     -12.233 -46.661  27.382  1.00  0.00     0.040 A 
ATOM     28  C   UNL     1     -11.190 -44.778  28.489  1.00  0.00     0.040 A 
ATOM     29  C   UNL     1     -11.207 -46.126  28.154  1.00  0.00     0.123 A 
ATOM     30  F   UNL     1     -10.214 -46.923  28.572  1.00  0.00    -0.207 F 
ENDBRANCH  21  24
ENDBRANCH  19  20
ENDBRANCH   1  19
TORSDOF 6
ENDMDL
MODEL 5
REMARK VINA RESULT:    -8.909      5.801      8.750
REMARK INTER + INTRA:         -14.814
REMARK INTER:                 -14.275
REMARK INTRA:                  -0.540
REMARK UNBOUND:                -2.780
REMARK SMILES O=C(NCCCNc1c2c(nc3ccccc13)CCCC2)c1ccc(F)cc1
REMARK SMILES IDX 5 1 6 2 7 3 8 5 9 6 17 7 10 8 21 9 16 10 12 11 11 12 18 13
REMARK SMILES IDX 20 14 15 15 13 16 19 17 14 18 4 19 3 20 2 21 1 23 22 24
REMARK SMILES IDX 23 25 28 26 24 27 27 28 25 29 26 30
REMARK H PARENT 7 4 3 22
ROOT
ATOM      1  C   UNL     1     -15.926 -42.982  23.563  1.00  0.00     0.042 C 
ENDROOT
BRANCH   1   2
ATOM      2  C   UNL     1     -16.808 -41.962  22.845  1.00  0.00     0.115 C 
BRANCH   2   3
ATOM      3  N   UNL     1     -18.100 -42.567  22.490  1.00  0.00    -0.384 N 
ATOM      4  H   UNL     1     -18.172 -42.698  21.484  1.00  0.00     0.160 HD
BRANCH   3   5
ATOM      5  C   UNL     1     -19.189 -41.756  22.930  1.00  0.00     0.049 A 
ATOM      6  C   UNL     1     -19.754 -40.779  22.097  1.00  0.00    -0.003 A 
ATOM      7  C   UNL     1     -19.642 -41.866  24.274  1.00  0.00     0.024 A 
ATOM      8  C   UNL     1     -20.747 -39.958  22.639  1.00  0.00     0.046 A 
ATOM      9  C   UNL     1     -19.332 -40.491  20.680  1.00  0.00     0.039 C 
ATOM     10  C   UNL     1     -19.138 -42.822  25.188  1.00  0.00     0.012 A 
ATOM     11  C   UNL     1     -20.655 -40.984  24.705  1.00  0.00     0.073 A 
ATOM     12  N   UNL     1     -21.194 -40.050  23.909  1.00  0.00    -0.252 NA
ATOM     13  C   UNL     1     -21.331 -38.869  21.776  1.00  0.00     0.056 C 
ATOM     14  C   UNL     1     -20.538 -40.250  19.765  1.00  0.00     0.005 C 
ATOM     15  C   UNL     1     -19.615 -42.897  26.495  1.00  0.00     0.001 A 
ATOM     16  C   UNL     1     -21.115 -41.079  26.013  1.00  0.00     0.029 A 
ATOM     17  C   UNL     1     -21.658 -39.406  20.386  1.00  0.00     0.007 C 
ATOM     18  C   UNL     1     -20.608 -42.022  26.911  1.00  0.00     0.002 A 
ENDBRANCH   3   5
ENDBRANCH   2   3
ENDBRANCH   1   2
BRANCH   1  19
ATOM     19  C   UNL     1     -15.552 -42.542  24.976  1.00  0.00     0.118 C 
BRANCH  19  20
ATOM     20  N   UNL     1     -14.464 -43.335  25.515  1.00  0.00    -0.352 N 
ATOM     21  C   UNL     1     -14.421 -43.672  26.852  1.00  0.00     0.251 C 
ATOM     22  H   UNL     1     -13.887 -43.844  24.858  1.00  0.00     0.163 HD
ATOM     23  O   UNL     1     -15.255 -43.295  27.669  1.00  0.00    -0.269 OA
BRANCH  21  24
ATOM     24  C   UNL     1     -13.312 -44.570  27.277  1.00  0.00     0.040 A 
ATOM     25  C   UNL     1     -13.268 -45.924  26.910  1.00  0.00     0.017 A 
ATOM     26  C   UNL     1     -12.271 -44.025  28.045  1.00  0.00     0.017 A 
ATOM     27  C   UNL     1     -12.203 -46.725  27.329  1.00  0.00     0.040 A 
ATOM     28  C   UNL     1     -11.210 -44.830  28.462  1.00  0.00     0.040 A 
ATOM     29  C   UNL     1     -11.188 -46.172  28.104  1.00  0.00     0.123 A 
ATOM     30  F   UNL     1     -10.170 -46.946  28.502  1.00  0.00    -0.207 F 
ENDBRANCH  21  24
ENDBRANCH  19  20
ENDBRANCH   1  19
TORSDOF 6
ENDMDL
MODEL 6
REMARK VINA RESULT:    -8.527      3.016      5.885
REMARK INTER + INTRA:         -14.298
REMARK INTER:                 -13.919
REMARK INTRA:                  -0.378
REMARK UNBOUND:                -2.780
REMARK SMILES O=C(NCCCNc1c2c(nc3ccccc13)CCCC2)c1ccc(F)cc1
REMARK SMILES IDX 5 1 6 2 7 3 8 5 9 6 17 7 10 8 21 9 16 10 12 11 11 12 18 13
REMARK SMILES IDX 20 14 15 15 13 16 19 17 14 18 4 19 3 20 2 21 1 23 22 24
REMARK SMILES IDX 23 25 28 26 24 27 27 28 25 29 26 30
REMARK H PARENT 7 4 3 22
ROOT
ATOM      1  C   UNL     1     -10.539 -45.638  28.450  1.00  0.00     0.042 C 
ENDROOT
BRANCH   1   2
ATOM      2  C   UNL     1      -9.994 -46.409  29.651  1.00  0.00     0.115 C 
BRANCH   2   3
ATOM      3  N   UNL     1     -10.968 -46.388  30.753  1.00  0.00    -0.384 N 
ATOM      4  H   UNL     1     -11.918 -46.431  30.393  1.00  0.00     0.160 HD
BRANCH   3   5
ATOM      5  C   UNL     1     -10.825 -45.210  31.546  1.00  0.00     0.049 A 
ATOM      6  C   UNL     1     -11.932 -44.414  31.876  1.00  0.00    -0.003 A 
ATOM      7  C   UNL     1      -9.524 -44.777  31.922  1.00  0.00     0.024 A 
ATOM      8  C   UNL     1     -11.692 -43.224  32.568  1.00  0.00     0.046 A 
ATOM      9  C   UNL     1     -13.358 -44.699  31.487  1.00  0.00     0.039 C 
ATOM     10  C   UNL     1      -8.347 -45.512  31.639  1.00  0.00     0.012 A 
ATOM     11  C   UNL     1      -9.408 -43.559  32.624  1.00  0.00     0.073 A 
ATOM     12  N   UNL     1     -10.466 -42.797  32.937  1.00  0.00    -0.252 NA
ATOM     13  C   UNL     1     -12.862 -42.329  32.888  1.00  0.00     0.056 C 
ATOM     14  C   UNL     1     -14.330 -44.418  32.638  1.00  0.00     0.005 C 
ATOM     15  C   UNL     1      -7.092 -45.052  32.031  1.00  0.00     0.001 A 
ATOM     16  C   UNL     1      -8.146 -43.120  33.005  1.00  0.00     0.029 A 
ATOM     17  C   UNL     1     -14.025 -43.146  33.441  1.00  0.00     0.007 C 
ATOM     18  C   UNL     1      -6.990 -43.850  32.716  1.00  0.00     0.002 A 
ENDBRANCH   3   5
ENDBRANCH   2   3
ENDBRANCH   1   2
BRANCH   1  19
ATOM     19  C   UNL     1     -11.861 -46.206  27.940  1.00  0.00     0.118 C 
BRANCH  19  20
ATOM     20  N   UNL     1     -12.959 -45.280  28.147  1.00  0.00    -0.352 N 
ATOM     21  C   UNL     1     -13.804 -44.934  27.113  1.00  0.00     0.251 C 
ATOM     22  H   UNL     1     -13.243 -45.099  29.100  1.00  0.00     0.163 HD
ATOM     23  O   UNL     1     -13.664 -45.338  25.964  1.00  0.00    -0.269 OA
BRANCH  21  24
ATOM     24  C   UNL     1     -14.954 -44.054  27.460  1.00  0.00     0.040 A 
ATOM     25  C   UNL     1     -15.395 -43.893  28.783  1.00  0.00     0.017 A 
ATOM     26  C   UNL     1     -15.588 -43.348  26.426  1.00  0.00     0.017 A 
ATOM     27  C   UNL     1     -16.476 -43.052  29.059  1.00  0.00     0.040 A 
ATOM     28  C   UNL     1     -16.668 -42.510  26.707  1.00  0.00     0.040 A 
ATOM     29  C   UNL     1     -17.104 -42.373  28.019  1.00  0.00     0.123 A 
ATOM     30  F   UNL     1     -18.140 -41.568  28.290  1.00  0.00    -0.207 F 
ENDBRANCH  21  24
ENDBRANCH  19  20
ENDBRANCH   1  19
TORSDOF 6
ENDMDL
MODEL 7
REMARK VINA RESULT:    -7.880      2.572      4.330
REMARK INTER + INTRA:         -13.424
REMARK INTER:                 -12.057
REMARK INTRA:                  -1.367
REMARK UNBOUND:                -2.780
REMARK SMILES O=C(NCCCNc1c2c(nc3ccccc13)CCCC2)c1ccc(F)cc1
REMARK SMILES IDX 5 1 6 2 7 3 8 5 9 6 17 7 10 8 21 9 16 10 12 11 11 12 18 13
REMARK SMILES IDX 20 14 15 15 13 16 19 17 14 18 4 19 3 20 2 21 1 23 22 24
REMARK SMILES IDX 23 25 28 26 24 27 27 28 25 29 26 30
REMARK H PARENT 7 4 3 22
ROOT
ATOM      1  C   UNL     1      -9.104 -42.358  27.481  1.00  0.00     0.042 C 
ENDROOT
BRANCH   1   2
ATOM      2  C   UNL     1     -10.621 -42.391  27.660  1.00  0.00     0.115 C 
BRANCH   2   3
ATOM      3  N   UNL     1     -11.161 -43.674  27.185  1.00  0.00    -0.384 N 
ATOM      4  H   UNL     1     -11.235 -43.679  26.171  1.00  0.00     0.160 HD
BRANCH   3   5
ATOM      5  C   UNL     1     -12.448 -43.931  27.745  1.00  0.00     0.049 A 
ATOM      6  C   UNL     1     -13.611 -43.381  27.184  1.00  0.00    -0.003 A 
ATOM      7  C   UNL     1     -12.546 -44.672  28.954  1.00  0.00     0.024 A 
ATOM      8  C   UNL     1     -14.819 -43.598  27.853  1.00  0.00     0.046 A 
ATOM      9  C   UNL     1     -13.660 -42.515  25.954  1.00  0.00     0.039 C 
ATOM     10  C   UNL     1     -11.433 -45.270  29.593  1.00  0.00     0.012 A 
ATOM     11  C   UNL     1     -13.824 -44.829  29.533  1.00  0.00     0.073 A 
ATOM     12  N   UNL     1     -14.934 -44.302  28.999  1.00  0.00    -0.252 NA
ATOM     13  C   UNL     1     -16.072 -42.973  27.296  1.00  0.00     0.056 C 
ATOM     14  C   UNL     1     -14.841 -42.880  25.047  1.00  0.00     0.005 C 
ATOM     15  C   UNL     1     -11.576 -45.992  30.776  1.00  0.00     0.001 A 
ATOM     16  C   UNL     1     -13.941 -45.554  30.713  1.00  0.00     0.029 A 
ATOM     17  C   UNL     1     -16.150 -43.185  25.787  1.00  0.00     0.007 C 
ATOM     18  C   UNL     1     -12.836 -46.135  31.339  1.00  0.00     0.002 A 
ENDBRANCH   3   5
ENDBRANCH   2   3
ENDBRANCH   1   2
BRANCH   1  19
ATOM     19  C   UNL     1      -8.369 -43.144  28.564  1.00  0.00     0.118 C 
BRANCH  19  20
ATOM     20  N   UNL     1      -8.855 -42.813  29.890  1.00  0.00    -0.352 N 
ATOM     21  C   UNL     1      -8.648 -43.663  30.958  1.00  0.00     0.251 C 
ATOM     22  H   UNL     1      -9.114 -41.852  30.066  1.00  0.00     0.163 HD
ATOM     23  O   UNL     1      -8.093 -44.751  30.854  1.00  0.00    -0.269 OA
BRANCH  21  24
ATOM     24  C   UNL     1      -9.103 -43.179  32.290  1.00  0.00     0.040 A 
ATOM     25  C   UNL     1      -8.199 -42.883  33.322  1.00  0.00     0.017 A 
ATOM     26  C   UNL     1     -10.478 -42.993  32.497  1.00  0.00     0.017 A 
ATOM     27  C   UNL     1      -8.674 -42.427  34.555  1.00  0.00     0.040 A 
ATOM     28  C   UNL     1     -10.948 -42.538  33.730  1.00  0.00     0.040 A 
ATOM     29  C   UNL     1     -10.043 -42.263  34.748  1.00  0.00     0.123 A 
ATOM     30  F   UNL     1     -10.492 -41.826  35.931  1.00  0.00    -0.207 F 
ENDBRANCH  21  24
ENDBRANCH  19  20
ENDBRANCH   1  19
TORSDOF 6
ENDMDL
MODEL 8
REMARK VINA RESULT:    -7.614      7.490     11.114
REMARK INTER + INTRA:         -13.065
REMARK INTER:                 -11.281
REMARK INTRA:                  -1.784
REMARK UNBOUND:                -2.780
REMARK SMILES O=C(NCCCNc1c2c(nc3ccccc13)CCCC2)c1ccc(F)cc1
REMARK SMILES IDX 5 1 6 2 7 3 8 5 9 6 17 7 10 8 21 9 16 10 12 11 11 12 18 13
REMARK SMILES IDX 20 14 15 15 13 16 19 17 14 18 4 19 3 20 2 21 1 23 22 24
REMARK SMILES IDX 23 25 28 26 24 27 27 28 25 29 26 30
REMARK H PARENT 7 4 3 22
ROOT
ATOM      1  C   UNL     1     -21.105 -41.520  21.890  1.00  0.00     0.042 C 
ENDROOT
BRANCH   1   2
ATOM      2  C   UNL     1     -21.609 -40.815  23.148  1.00  0.00     0.115 C 
BRANCH   2   3
ATOM      3  N   UNL     1     -22.895 -41.390  23.571  1.00  0.00    -0.384 N 
ATOM      4  H   UNL     1     -23.661 -40.760  23.346  1.00  0.00     0.160 HD
BRANCH   3   5
ATOM      5  C   UNL     1     -22.907 -41.650  24.974  1.00  0.00     0.049 A 
ATOM      6  C   UNL     1     -22.586 -42.917  25.484  1.00  0.00    -0.003 A 
ATOM      7  C   UNL     1     -23.354 -40.638  25.867  1.00  0.00     0.024 A 
ATOM      8  C   UNL     1     -22.722 -43.117  26.861  1.00  0.00     0.046 A 
ATOM      9  C   UNL     1     -22.170 -44.108  24.662  1.00  0.00     0.039 C 
ATOM     10  C   UNL     1     -23.696 -39.329  25.451  1.00  0.00     0.012 A 
ATOM     11  C   UNL     1     -23.445 -40.957  27.239  1.00  0.00     0.073 A 
ATOM     12  N   UNL     1     -23.140 -42.168  27.725  1.00  0.00    -0.252 NA
ATOM     13  C   UNL     1     -22.431 -44.485  27.422  1.00  0.00     0.056 C 
ATOM     14  C   UNL     1     -21.018 -44.879  25.317  1.00  0.00     0.005 C 
ATOM     15  C   UNL     1     -24.125 -38.366  26.361  1.00  0.00     0.001 A 
ATOM     16  C   UNL     1     -23.875 -39.980  28.128  1.00  0.00     0.029 A 
ATOM     17  C   UNL     1     -21.134 -45.038  26.838  1.00  0.00     0.007 C 
ATOM     18  C   UNL     1     -24.216 -38.692  27.707  1.00  0.00     0.002 A 
ENDBRANCH   3   5
ENDBRANCH   2   3
ENDBRANCH   1   2
BRANCH   1  19
ATOM     19  C   UNL     1     -19.689 -42.066  22.051  1.00  0.00     0.118 C 
BRANCH  19  20
ATOM     20  N   UNL     1     -19.303 -42.154  23.447  1.00  0.00    -0.352 N 
ATOM     21  C   UNL     1     -18.052 -42.607  23.814  1.00  0.00     0.251 C 
ATOM     22  H   UNL     1     -19.862 -41.644  24.119  1.00  0.00     0.163 HD
ATOM     23  O   UNL     1     -17.215 -43.000  23.009  1.00  0.00    -0.269 OA
BRANCH  21  24
ATOM     24  C   UNL     1     -17.729 -42.563  25.267  1.00  0.00     0.040 A 
ATOM     25  C   UNL     1     -16.430 -42.786  25.748  1.00  0.00     0.017 A 
ATOM     26  C   UNL     1     -18.761 -42.262  26.169  1.00  0.00     0.017 A 
ATOM     27  C   UNL     1     -16.175 -42.730  27.120  1.00  0.00     0.040 A 
ATOM     28  C   UNL     1     -18.502 -42.209  27.540  1.00  0.00     0.040 A 
ATOM     29  C   UNL     1     -17.214 -42.447  28.002  1.00  0.00     0.123 A 
ATOM     30  F   UNL     1     -16.964 -42.394  29.317  1.00  0.00    -0.207 F 
ENDBRANCH  21  24
ENDBRANCH  19  20
ENDBRANCH   1  19
TORSDOF 6
ENDMDL
MODEL 9
REMARK VINA RESULT:    -7.515      7.450     10.721
REMARK INTER + INTRA:         -12.932
REMARK INTER:                 -11.083
REMARK INTRA:                  -1.849
REMARK UNBOUND:                -2.780
REMARK SMILES O=C(NCCCNc1c2c(nc3ccccc13)CCCC2)c1ccc(F)cc1
REMARK SMILES IDX 5 1 6 2 7 3 8 5 9 6 17 7 10 8 21 9 16 10 12 11 11 12 18 13
REMARK SMILES IDX 20 14 15 15 13 16 19 17 14 18 4 19 3 20 2 21 1 23 22 24
REMARK SMILES IDX 23 25 28 26 24 27 27 28 25 29 26 30
REMARK H PARENT 7 4 3 22
ROOT
ATOM      1  C   UNL     1     -20.946 -41.524  21.791  1.00  0.00     0.042 C 
ENDROOT
BRANCH   1   2
ATOM      2  C   UNL     1     -21.536 -40.898  23.054  1.00  0.00     0.115 C 
BRANCH   2   3
ATOM      3  N   UNL     1     -22.759 -41.612  23.451  1.00  0.00    -0.384 N 
ATOM      4  H   UNL     1     -23.586 -41.104  23.149  1.00  0.00     0.160 HD
BRANCH   3   5
ATOM      5  C   UNL     1     -22.816 -41.789  24.866  1.00  0.00     0.049 A 
ATOM      6  C   UNL     1     -23.324 -40.788  25.708  1.00  0.00    -0.003 A 
ATOM      7  C   UNL     1     -22.253 -42.960  25.445  1.00  0.00     0.024 A 
ATOM      8  C   UNL     1     -23.250 -40.999  27.087  1.00  0.00     0.046 A 
ATOM      9  C   UNL     1     -23.883 -39.466  25.251  1.00  0.00     0.039 C 
ATOM     10  C   UNL     1     -21.722 -44.027  24.682  1.00  0.00     0.012 A 
ATOM     11  C   UNL     1     -22.240 -43.062  26.853  1.00  0.00     0.073 A 
ATOM     12  N   UNL     1     -22.723 -42.104  27.656  1.00  0.00    -0.252 NA
ATOM     13  C   UNL     1     -23.742 -39.914  28.010  1.00  0.00     0.056 C 
ATOM     14  C   UNL     1     -25.146 -39.082  26.029  1.00  0.00     0.005 C 
ATOM     15  C   UNL     1     -21.183 -45.158  25.291  1.00  0.00     0.001 A 
ATOM     16  C   UNL     1     -21.699 -44.200  27.438  1.00  0.00     0.029 A 
ATOM     17  C   UNL     1     -25.089 -39.379  27.534  1.00  0.00     0.007 C 
ATOM     18  C   UNL     1     -21.171 -45.246  26.676  1.00  0.00     0.002 A 
ENDBRANCH   3   5
ENDBRANCH   2   3
ENDBRANCH   1   2
BRANCH   1  19
ATOM     19  C   UNL     1     -19.513 -42.007  21.991  1.00  0.00     0.118 C 
BRANCH  19  20
ATOM     20  N   UNL     1     -19.170 -42.106  23.397  1.00  0.00    -0.352 N 
ATOM     21  C   UNL     1     -17.949 -42.606  23.800  1.00  0.00     0.251 C 
ATOM     22  H   UNL     1     -19.728 -41.574  24.052  1.00  0.00     0.163 HD
ATOM     23  O   UNL     1     -17.105 -43.032  23.020  1.00  0.00    -0.269 OA
BRANCH  21  24
ATOM     24  C   UNL     1     -17.666 -42.571  25.262  1.00  0.00     0.040 A 
ATOM     25  C   UNL     1     -16.376 -42.774  25.775  1.00  0.00     0.017 A 
ATOM     26  C   UNL     1     -18.727 -42.298  26.139  1.00  0.00     0.017 A 
ATOM     27  C   UNL     1     -16.159 -42.727  27.155  1.00  0.00     0.040 A 
ATOM     28  C   UNL     1     -18.506 -42.254  27.517  1.00  0.00     0.040 A 
ATOM     29  C   UNL     1     -17.226 -42.472  28.011  1.00  0.00     0.123 A 
ATOM     30  F   UNL     1     -17.013 -42.428  29.333  1.00  0.00    -0.207 F 
ENDBRANCH  21  24
ENDBRANCH  19  20
ENDBRANCH   1  19
TORSDOF 6
ENDMDL
