MODEL 1
REMARK VINA RESULT:   -11.310      0.000      0.000
REMARK INTER + INTRA:         -17.684
REMARK INTER:                 -16.930
REMARK INTRA:                  -0.754
REMARK UNBOUND:                -0.754
REMARK SMILES COc1cc2c(cc1OC)SC(=C(O)CCc1cc[n+](Cc3ccc(F)cc3)cc1)C2
REMARK SMILES IDX 15 1 13 2 14 3 12 5 31 6 11 7 5 8 6 9 4 10 7 11 3 12 8 13
REMARK SMILES IDX 2 14 1 15 9 16 10 17 16 18 17 19 18 20 30 21 19 22 29 23
REMARK SMILES IDX 20 24 21 25 22 26 23 27 28 28 24 29 27 30 25 31 26 32
REMARK H PARENT 14 4
ROOT
ATOM      1  C   UNL     1     -14.290 -43.593  26.580  1.00  0.00     0.080 C 
ENDROOT
BRANCH   1   2
ATOM      2  C   UNL     1     -14.786 -43.133  25.222  1.00  0.00     0.103 C 
BRANCH   2   3
ATOM      3  O   UNL     1     -13.764 -43.039  24.288  1.00  0.00    -0.511 OA
ATOM      4  H   UNL     1     -13.994 -42.366  23.625  1.00  0.00     0.293 HD
ENDBRANCH   2   3
BRANCH   2   5
ATOM      5  C   UNL     1     -16.062 -42.806  24.925  1.00  0.00     0.032 C 
ATOM      6  C   UNL     1     -17.158 -42.563  25.950  1.00  0.00     0.083 C 
ATOM      7  S   UNL     1     -16.618 -42.538  23.276  1.00  0.00    -0.090 SA
ATOM      8  C   UNL     1     -18.370 -42.070  25.213  1.00  0.00    -0.025 A 
ATOM      9  C   UNL     1     -18.222 -42.018  23.828  1.00  0.00     0.020 A 
ATOM     10  C   UNL     1     -19.569 -41.691  25.809  1.00  0.00     0.055 A 
ATOM     11  C   UNL     1     -19.257 -41.585  23.010  1.00  0.00     0.066 A 
ATOM     12  C   UNL     1     -20.626 -41.253  25.002  1.00  0.00     0.161 A 
ATOM     13  C   UNL     1     -20.468 -41.198  23.595  1.00  0.00     0.161 A 
BRANCH  12  14
ATOM     14  O   UNL     1     -21.848 -40.847  25.482  1.00  0.00    -0.493 OA
ATOM     15  C   UNL     1     -21.988 -40.684  26.885  1.00  0.00     0.278 C 
ENDBRANCH  12  14
BRANCH  13  16
ATOM     16  O   UNL     1     -21.557 -40.748  22.889  1.00  0.00    -0.493 OA
ATOM     17  C   UNL     1     -21.464 -39.474  22.265  1.00  0.00     0.278 C 
ENDBRANCH  13  16
ENDBRANCH   2   5
ENDBRANCH   1   2
BRANCH   1  18
ATOM     18  C   UNL     1     -13.807 -45.049  26.609  1.00  0.00     0.044 C 
BRANCH  18  19
ATOM     19  C   UNL     1     -13.027 -45.411  27.854  1.00  0.00    -0.036 A 
ATOM     20  C   UNL     1     -13.527 -45.105  29.119  1.00  0.00     0.074 A 
ATOM     21  C   UNL     1     -11.808 -46.079  27.761  1.00  0.00     0.074 A 
ATOM     22  C   UNL     1     -12.806 -45.468  30.249  1.00  0.00     0.308 A 
ATOM     23  C   UNL     1     -11.121 -46.425  28.919  1.00  0.00     0.308 A 
ATOM     24  N   UNL     1     -11.621 -46.113  30.137  1.00  0.00    -0.201 N 
BRANCH  24  25
ATOM     25  C   UNL     1     -10.880 -46.501  31.363  1.00  0.00     0.393 C 
BRANCH  25  26
ATOM     26  C   UNL     1      -9.770 -45.526  31.665  1.00  0.00     0.017 A 
ATOM     27  C   UNL     1      -8.424 -45.879  31.458  1.00  0.00     0.013 A 
ATOM     28  C   UNL     1     -10.067 -44.249  32.174  1.00  0.00     0.013 A 
ATOM     29  C   UNL     1      -7.403 -44.967  31.738  1.00  0.00     0.040 A 
ATOM     30  C   UNL     1      -9.043 -43.343  32.453  1.00  0.00     0.040 A 
ATOM     31  C   UNL     1      -7.722 -43.708  32.231  1.00  0.00     0.123 A 
ATOM     32  F   UNL     1      -6.742 -42.837  32.497  1.00  0.00    -0.207 F 
ENDBRANCH  25  26
ENDBRANCH  24  25
ENDBRANCH  18  19
ENDBRANCH   1  18
TORSDOF 9
ENDMDL
MODEL 2
REMARK VINA RESULT:   -11.144      1.231      1.638
REMARK INTER + INTRA:         -17.435
REMARK INTER:                 -16.750
REMARK INTRA:                  -0.685
REMARK UNBOUND:                -0.754
REMARK SMILES COc1cc2c(cc1OC)SC(=C(O)CCc1cc[n+](Cc3ccc(F)cc3)cc1)C2
REMARK SMILES IDX 15 1 13 2 14 3 12 5 31 6 11 7 5 8 6 9 4 10 7 11 3 12 8 13
REMARK SMILES IDX 2 14 1 15 9 16 10 17 16 18 17 19 18 20 30 21 19 22 29 23
REMARK SMILES IDX 20 24 21 25 22 26 23 27 28 28 24 29 27 30 25 31 26 32
REMARK H PARENT 14 4
ROOT
ATOM      1  C   UNL     1     -14.048 -43.577  26.460  1.00  0.00     0.080 C 
ENDROOT
BRANCH   1   2
ATOM      2  C   UNL     1     -15.459 -43.125  26.784  1.00  0.00     0.103 C 
BRANCH   2   3
ATOM      3  O   UNL     1     -15.701 -43.079  28.149  1.00  0.00    -0.511 OA
ATOM      4  H   UNL     1     -15.866 -42.158  28.416  1.00  0.00     0.293 HD
ENDBRANCH   2   3
BRANCH   2   5
ATOM      5  C   UNL     1     -16.412 -42.827  25.875  1.00  0.00     0.032 C 
ATOM      6  C   UNL     1     -17.841 -42.432  26.213  1.00  0.00     0.083 C 
ATOM      7  S   UNL     1     -16.099 -42.783  24.143  1.00  0.00    -0.090 SA
ATOM      8  C   UNL     1     -18.518 -42.032  24.934  1.00  0.00    -0.025 A 
ATOM      9  C   UNL     1     -17.728 -42.172  23.793  1.00  0.00     0.020 A 
ATOM     10  C   UNL     1     -19.824 -41.560  24.833  1.00  0.00     0.055 A 
ATOM     11  C   UNL     1     -18.216 -41.845  22.536  1.00  0.00     0.066 A 
ATOM     12  C   UNL     1     -20.335 -41.225  23.573  1.00  0.00     0.161 A 
ATOM     13  C   UNL     1     -19.526 -41.366  22.419  1.00  0.00     0.161 A 
BRANCH  12  14
ATOM     14  O   UNL     1     -21.603 -40.743  23.358  1.00  0.00    -0.493 OA
ATOM     15  C   UNL     1     -22.699 -41.573  23.715  1.00  0.00     0.278 C 
ENDBRANCH  12  14
BRANCH  13  16
ATOM     16  O   UNL     1     -20.113 -41.006  21.230  1.00  0.00    -0.493 OA
ATOM     17  C   UNL     1     -19.506 -39.962  20.480  1.00  0.00     0.278 C 
ENDBRANCH  13  16
ENDBRANCH   2   5
ENDBRANCH   1   2
BRANCH   1  18
ATOM     18  C   UNL     1     -13.820 -45.085  26.623  1.00  0.00     0.044 C 
BRANCH  18  19
ATOM     19  C   UNL     1     -13.011 -45.454  27.846  1.00  0.00    -0.036 A 
ATOM     20  C   UNL     1     -13.485 -45.167  29.125  1.00  0.00     0.074 A 
ATOM     21  C   UNL     1     -11.788 -46.111  27.720  1.00  0.00     0.074 A 
ATOM     22  C   UNL     1     -12.738 -45.536  30.236  1.00  0.00     0.308 A 
ATOM     23  C   UNL     1     -11.074 -46.463  28.859  1.00  0.00     0.308 A 
ATOM     24  N   UNL     1     -11.550 -46.169  30.091  1.00  0.00    -0.201 N 
BRANCH  24  25
ATOM     25  C   UNL     1     -10.779 -46.565  31.296  1.00  0.00     0.393 C 
BRANCH  25  26
ATOM     26  C   UNL     1      -9.684 -45.572  31.597  1.00  0.00     0.017 A 
ATOM     27  C   UNL     1      -9.985 -44.304  32.125  1.00  0.00     0.013 A 
ATOM     28  C   UNL     1      -8.340 -45.900  31.340  1.00  0.00     0.013 A 
ATOM     29  C   UNL     1      -8.962 -43.393  32.403  1.00  0.00     0.040 A 
ATOM     30  C   UNL     1      -7.323 -44.987  31.620  1.00  0.00     0.040 A 
ATOM     31  C   UNL     1      -7.642 -43.743  32.150  1.00  0.00     0.123 A 
ATOM     32  F   UNL     1      -6.665 -42.869  32.418  1.00  0.00    -0.207 F 
ENDBRANCH  25  26
ENDBRANCH  24  25
ENDBRANCH  18  19
ENDBRANCH   1  18
TORSDOF 9
ENDMDL
MODEL 3
REMARK VINA RESULT:   -10.953      1.401      2.077
REMARK INTER + INTRA:         -17.149
REMARK INTER:                 -16.381
REMARK INTRA:                  -0.768
REMARK UNBOUND:                -0.754
REMARK SMILES COc1cc2c(cc1OC)SC(=C(O)CCc1cc[n+](Cc3ccc(F)cc3)cc1)C2
REMARK SMILES IDX 15 1 13 2 14 3 12 5 31 6 11 7 5 8 6 9 4 10 7 11 3 12 8 13
REMARK SMILES IDX 2 14 1 15 9 16 10 17 16 18 17 19 18 20 30 21 19 22 29 23
REMARK SMILES IDX 20 24 21 25 22 26 23 27 28 28 24 29 27 30 25 31 26 32
REMARK H PARENT 14 4
ROOT
ATOM      1  C   UNL     1     -14.206 -42.896  25.619  1.00  0.00     0.080 C 
ENDROOT
BRANCH   1   2
ATOM      2  C   UNL     1     -15.215 -42.370  24.617  1.00  0.00     0.103 C 
BRANCH   2   3
ATOM      3  O   UNL     1     -14.611 -41.741  23.538  1.00  0.00    -0.511 OA
ATOM      4  H   UNL     1     -15.292 -41.305  22.996  1.00  0.00     0.293 HD
ENDBRANCH   2   3
BRANCH   2   5
ATOM      5  C   UNL     1     -16.557 -42.451  24.742  1.00  0.00     0.032 C 
ATOM      6  C   UNL     1     -17.304 -42.523  26.063  1.00  0.00     0.083 C 
ATOM      7  S   UNL     1     -17.648 -42.406  23.360  1.00  0.00    -0.090 SA
ATOM      8  C   UNL     1     -18.773 -42.439  25.762  1.00  0.00    -0.025 A 
ATOM      9  C   UNL     1     -19.082 -42.380  24.404  1.00  0.00     0.020 A 
ATOM     10  C   UNL     1     -19.786 -42.424  26.717  1.00  0.00     0.055 A 
ATOM     11  C   UNL     1     -20.397 -42.301  23.968  1.00  0.00     0.066 A 
ATOM     12  C   UNL     1     -21.120 -42.346  26.298  1.00  0.00     0.161 A 
ATOM     13  C   UNL     1     -21.427 -42.282  24.916  1.00  0.00     0.161 A 
BRANCH  12  14
ATOM     14  O   UNL     1     -22.196 -42.316  27.151  1.00  0.00    -0.493 OA
ATOM     15  C   UNL     1     -22.832 -43.547  27.462  1.00  0.00     0.278 C 
ENDBRANCH  12  14
BRANCH  13  16
ATOM     16  O   UNL     1     -22.762 -42.200  24.604  1.00  0.00    -0.493 OA
ATOM     17  C   UNL     1     -23.250 -43.027  23.557  1.00  0.00     0.278 C 
ENDBRANCH  13  16
ENDBRANCH   2   5
ENDBRANCH   1   2
BRANCH   1  18
ATOM     18  C   UNL     1     -14.218 -44.422  25.777  1.00  0.00     0.044 C 
BRANCH  18  19
ATOM     19  C   UNL     1     -13.819 -44.899  27.156  1.00  0.00    -0.036 A 
ATOM     20  C   UNL     1     -12.854 -45.893  27.312  1.00  0.00     0.074 A 
ATOM     21  C   UNL     1     -14.388 -44.336  28.297  1.00  0.00     0.074 A 
ATOM     22  C   UNL     1     -12.484 -46.299  28.588  1.00  0.00     0.308 A 
ATOM     23  C   UNL     1     -13.987 -44.772  29.554  1.00  0.00     0.308 A 
ATOM     24  N   UNL     1     -13.053 -45.742  29.683  1.00  0.00    -0.201 N 
BRANCH  24  25
ATOM     25  C   UNL     1     -12.628 -46.185  31.034  1.00  0.00     0.393 C 
BRANCH  25  26
ATOM     26  C   UNL     1     -11.238 -45.699  31.359  1.00  0.00     0.017 A 
ATOM     27  C   UNL     1     -11.027 -44.402  31.863  1.00  0.00     0.013 A 
ATOM     28  C   UNL     1     -10.127 -46.535  31.150  1.00  0.00     0.013 A 
ATOM     29  C   UNL     1      -9.735 -43.963  32.163  1.00  0.00     0.040 A 
ATOM     30  C   UNL     1      -8.839 -46.090  31.451  1.00  0.00     0.040 A 
ATOM     31  C   UNL     1      -8.654 -44.811  31.957  1.00  0.00     0.123 A 
ATOM     32  F   UNL     1      -7.419 -44.386  32.247  1.00  0.00    -0.207 F 
ENDBRANCH  25  26
ENDBRANCH  24  25
ENDBRANCH  18  19
ENDBRANCH   1  18
TORSDOF 9
ENDMDL
MODEL 4
REMARK VINA RESULT:   -10.851      1.042      2.067
REMARK INTER + INTRA:         -16.997
REMARK INTER:                 -16.227
REMARK INTRA:                  -0.770
REMARK UNBOUND:                -0.754
REMARK SMILES COc1cc2c(cc1OC)SC(=C(O)CCc1cc[n+](Cc3ccc(F)cc3)cc1)C2
REMARK SMILES IDX 15 1 13 2 14 3 12 5 31 6 11 7 5 8 6 9 4 10 7 11 3 12 8 13
REMARK SMILES IDX 2 14 1 15 9 16 10 17 16 18 17 19 18 20 30 21 19 22 29 23
REMARK SMILES IDX 20 24 21 25 22 26 23 27 28 28 24 29 27 30 25 31 26 32
REMARK H PARENT 14 4
ROOT
ATOM      1  C   UNL     1     -14.020 -43.512  26.341  1.00  0.00     0.080 C 
ENDROOT
BRANCH   1   2
ATOM      2  C   UNL     1     -14.962 -43.171  25.203  1.00  0.00     0.103 C 
BRANCH   2   3
ATOM      3  O   UNL     1     -14.341 -43.231  23.964  1.00  0.00    -0.511 OA
ATOM      4  H   UNL     1     -13.376 -43.250  24.088  1.00  0.00     0.293 HD
ENDBRANCH   2   3
BRANCH   2   5
ATOM      5  C   UNL     1     -16.256 -42.809  25.341  1.00  0.00     0.032 C 
ATOM      6  C   UNL     1     -17.257 -42.710  24.201  1.00  0.00     0.083 C 
ATOM      7  S   UNL     1     -16.991 -42.469  26.905  1.00  0.00    -0.090 SA
ATOM      8  C   UNL     1     -18.606 -42.437  24.800  1.00  0.00    -0.025 A 
ATOM      9  C   UNL     1     -18.603 -42.286  26.186  1.00  0.00     0.020 A 
ATOM     10  C   UNL     1     -19.793 -42.326  24.082  1.00  0.00     0.055 A 
ATOM     11  C   UNL     1     -19.773 -42.026  26.885  1.00  0.00     0.066 A 
ATOM     12  C   UNL     1     -20.986 -42.064  24.768  1.00  0.00     0.161 A 
ATOM     13  C   UNL     1     -20.976 -41.916  26.177  1.00  0.00     0.161 A 
BRANCH  12  14
ATOM     14  O   UNL     1     -22.213 -41.944  24.163  1.00  0.00    -0.493 OA
ATOM     15  C   UNL     1     -22.480 -40.757  23.431  1.00  0.00     0.278 C 
ENDBRANCH  12  14
BRANCH  13  16
ATOM     16  O   UNL     1     -22.195 -41.668  26.760  1.00  0.00    -0.493 OA
ATOM     17  C   UNL     1     -22.433 -40.363  27.270  1.00  0.00     0.278 C 
ENDBRANCH  13  16
ENDBRANCH   2   5
ENDBRANCH   1   2
BRANCH   1  18
ATOM     18  C   UNL     1     -13.786 -45.017  26.530  1.00  0.00     0.044 C 
BRANCH  18  19
ATOM     19  C   UNL     1     -13.044 -45.366  27.801  1.00  0.00    -0.036 A 
ATOM     20  C   UNL     1     -13.552 -44.995  29.045  1.00  0.00     0.074 A 
ATOM     21  C   UNL     1     -11.853 -46.088  27.755  1.00  0.00     0.074 A 
ATOM     22  C   UNL     1     -12.868 -45.347  30.201  1.00  0.00     0.308 A 
ATOM     23  C   UNL     1     -11.202 -46.420  28.937  1.00  0.00     0.308 A 
ATOM     24  N   UNL     1     -11.709 -46.045  30.134  1.00  0.00    -0.201 N 
BRANCH  24  25
ATOM     25  C   UNL     1     -11.006 -46.420  31.386  1.00  0.00     0.393 C 
BRANCH  25  26
ATOM     26  C   UNL     1      -9.866 -45.476  31.680  1.00  0.00     0.017 A 
ATOM     27  C   UNL     1     -10.109 -44.190  32.194  1.00  0.00     0.013 A 
ATOM     28  C   UNL     1      -8.540 -45.869  31.430  1.00  0.00     0.013 A 
ATOM     29  C   UNL     1      -9.046 -43.325  32.465  1.00  0.00     0.040 A 
ATOM     30  C   UNL     1      -7.482 -45.001  31.702  1.00  0.00     0.040 A 
ATOM     31  C   UNL     1      -7.743 -43.739  32.219  1.00  0.00     0.123 A 
ATOM     32  F   UNL     1      -6.727 -42.909  32.481  1.00  0.00    -0.207 F 
ENDBRANCH  25  26
ENDBRANCH  24  25
ENDBRANCH  18  19
ENDBRANCH   1  18
TORSDOF 9
ENDMDL
MODEL 5
REMARK VINA RESULT:   -10.841      1.218      2.289
REMARK INTER + INTRA:         -16.982
REMARK INTER:                 -16.420
REMARK INTRA:                  -0.561
REMARK UNBOUND:                -0.754
REMARK SMILES COc1cc2c(cc1OC)SC(=C(O)CCc1cc[n+](Cc3ccc(F)cc3)cc1)C2
REMARK SMILES IDX 15 1 13 2 14 3 12 5 31 6 11 7 5 8 6 9 4 10 7 11 3 12 8 13
REMARK SMILES IDX 2 14 1 15 9 16 10 17 16 18 17 19 18 20 30 21 19 22 29 23
REMARK SMILES IDX 20 24 21 25 22 26 23 27 28 28 24 29 27 30 25 31 26 32
REMARK H PARENT 14 4
ROOT
ATOM      1  C   UNL     1     -15.006 -43.553  25.960  1.00  0.00     0.080 C 
ENDROOT
BRANCH   1   2
ATOM      2  C   UNL     1     -15.658 -43.314  24.611  1.00  0.00     0.103 C 
BRANCH   2   3
ATOM      3  O   UNL     1     -14.902 -43.816  23.561  1.00  0.00    -0.511 OA
ATOM      4  H   UNL     1     -14.721 -44.760  23.718  1.00  0.00     0.293 HD
ENDBRANCH   2   3
BRANCH   2   5
ATOM      5  C   UNL     1     -16.822 -42.660  24.409  1.00  0.00     0.032 C 
ATOM      6  C   UNL     1     -17.296 -42.123  23.068  1.00  0.00     0.083 C 
ATOM      7  S   UNL     1     -18.005 -42.402  25.688  1.00  0.00    -0.090 SA
ATOM      8  C   UNL     1     -18.696 -41.615  23.250  1.00  0.00    -0.025 A 
ATOM      9  C   UNL     1     -19.177 -41.697  24.557  1.00  0.00     0.020 A 
ATOM     10  C   UNL     1     -19.494 -41.088  22.238  1.00  0.00     0.055 A 
ATOM     11  C   UNL     1     -20.454 -41.264  24.882  1.00  0.00     0.066 A 
ATOM     12  C   UNL     1     -20.786 -40.643  22.546  1.00  0.00     0.161 A 
ATOM     13  C   UNL     1     -21.269 -40.734  23.875  1.00  0.00     0.161 A 
BRANCH  12  14
ATOM     14  O   UNL     1     -21.660 -40.116  21.628  1.00  0.00    -0.493 OA
ATOM     15  C   UNL     1     -21.404 -38.806  21.143  1.00  0.00     0.278 C 
ENDBRANCH  12  14
BRANCH  13  16
ATOM     16  O   UNL     1     -22.550 -40.281  24.077  1.00  0.00    -0.493 OA
ATOM     17  C   UNL     1     -23.369 -40.992  24.996  1.00  0.00     0.278 C 
ENDBRANCH  13  16
ENDBRANCH   2   5
ENDBRANCH   1   2
BRANCH   1  18
ATOM     18  C   UNL     1     -14.073 -44.770  25.998  1.00  0.00     0.044 C 
BRANCH  18  19
ATOM     19  C   UNL     1     -13.567 -45.110  27.382  1.00  0.00    -0.036 A 
ATOM     20  C   UNL     1     -14.196 -44.597  28.515  1.00  0.00     0.074 A 
ATOM     21  C   UNL     1     -12.479 -45.964  27.552  1.00  0.00     0.074 A 
ATOM     22  C   UNL     1     -13.730 -44.942  29.777  1.00  0.00     0.308 A 
ATOM     23  C   UNL     1     -12.047 -46.284  28.834  1.00  0.00     0.308 A 
ATOM     24  N   UNL     1     -12.668 -45.770  29.920  1.00  0.00    -0.201 N 
BRANCH  24  25
ATOM     25  C   UNL     1     -12.201 -46.133  31.281  1.00  0.00     0.393 C 
BRANCH  25  26
ATOM     26  C   UNL     1     -10.765 -45.723  31.496  1.00  0.00     0.017 A 
ATOM     27  C   UNL     1     -10.446 -44.438  31.973  1.00  0.00     0.013 A 
ATOM     28  C   UNL     1      -9.722 -46.620  31.210  1.00  0.00     0.013 A 
ATOM     29  C   UNL     1      -9.113 -44.070  32.172  1.00  0.00     0.040 A 
ATOM     30  C   UNL     1      -8.392 -46.246  31.410  1.00  0.00     0.040 A 
ATOM     31  C   UNL     1      -8.100 -44.977  31.891  1.00  0.00     0.123 A 
ATOM     32  F   UNL     1      -6.824 -44.621  32.083  1.00  0.00    -0.207 F 
ENDBRANCH  25  26
ENDBRANCH  24  25
ENDBRANCH  18  19
ENDBRANCH   1  18
TORSDOF 9
ENDMDL
MODEL 6
REMARK VINA RESULT:   -10.000      1.865      2.907
REMARK INTER + INTRA:         -15.723
REMARK INTER:                 -14.976
REMARK INTRA:                  -0.746
REMARK UNBOUND:                -0.754
REMARK SMILES COc1cc2c(cc1OC)SC(=C(O)CCc1cc[n+](Cc3ccc(F)cc3)cc1)C2
REMARK SMILES IDX 15 1 13 2 14 3 12 5 31 6 11 7 5 8 6 9 4 10 7 11 3 12 8 13
REMARK SMILES IDX 2 14 1 15 9 16 10 17 16 18 17 19 18 20 30 21 19 22 29 23
REMARK SMILES IDX 20 24 21 25 22 26 23 27 28 28 24 29 27 30 25 31 26 32
REMARK H PARENT 14 4
ROOT
ATOM      1  C   UNL     1     -15.282 -43.188  25.802  1.00  0.00     0.080 C 
ENDROOT
BRANCH   1   2
ATOM      2  C   UNL     1     -15.878 -43.159  24.408  1.00  0.00     0.103 C 
BRANCH   2   3
ATOM      3  O   UNL     1     -15.189 -43.971  23.519  1.00  0.00    -0.511 OA
ATOM      4  H   UNL     1     -14.414 -43.491  23.180  1.00  0.00     0.293 HD
ENDBRANCH   2   3
BRANCH   2   5
ATOM      5  C   UNL     1     -16.937 -42.413  24.026  1.00  0.00     0.032 C 
ATOM      6  C   UNL     1     -16.995 -41.569  22.763  1.00  0.00     0.083 C 
ATOM      7  S   UNL     1     -18.453 -42.379  24.922  1.00  0.00    -0.090 SA
ATOM      8  C   UNL     1     -18.393 -41.037  22.634  1.00  0.00    -0.025 A 
ATOM      9  C   UNL     1     -19.241 -41.378  23.686  1.00  0.00     0.020 A 
ATOM     10  C   UNL     1     -18.858 -40.256  21.578  1.00  0.00     0.055 A 
ATOM     11  C   UNL     1     -20.563 -40.958  23.710  1.00  0.00     0.066 A 
ATOM     12  C   UNL     1     -20.188 -39.820  21.584  1.00  0.00     0.161 A 
ATOM     13  C   UNL     1     -21.046 -40.175  22.655  1.00  0.00     0.161 A 
BRANCH  12  14
ATOM     14  O   UNL     1     -20.754 -39.056  20.593  1.00  0.00    -0.493 OA
ATOM     15  C   UNL     1     -21.011 -39.675  19.342  1.00  0.00     0.278 C 
ENDBRANCH  12  14
BRANCH  13  16
ATOM     16  O   UNL     1     -22.335 -39.707  22.568  1.00  0.00    -0.493 OA
ATOM     17  C   UNL     1     -23.389 -40.598  22.906  1.00  0.00     0.278 C 
ENDBRANCH  13  16
ENDBRANCH   2   5
ENDBRANCH   1   2
BRANCH   1  18
ATOM     18  C   UNL     1     -13.747 -43.202  25.826  1.00  0.00     0.044 C 
BRANCH  18  19
ATOM     19  C   UNL     1     -13.160 -43.773  27.097  1.00  0.00    -0.036 A 
ATOM     20  C   UNL     1     -13.836 -44.761  27.811  1.00  0.00     0.074 A 
ATOM     21  C   UNL     1     -11.920 -43.342  27.565  1.00  0.00     0.074 A 
ATOM     22  C   UNL     1     -13.267 -45.290  28.962  1.00  0.00     0.308 A 
ATOM     23  C   UNL     1     -11.387 -43.899  28.721  1.00  0.00     0.308 A 
ATOM     24  N   UNL     1     -12.063 -44.853  29.402  1.00  0.00    -0.201 N 
BRANCH  24  25
ATOM     25  C   UNL     1     -11.472 -45.446  30.628  1.00  0.00     0.393 C 
BRANCH  25  26
ATOM     26  C   UNL     1     -11.171 -44.387  31.660  1.00  0.00     0.017 A 
ATOM     27  C   UNL     1      -9.856 -44.172  32.109  1.00  0.00     0.013 A 
ATOM     28  C   UNL     1     -12.210 -43.606  32.198  1.00  0.00     0.013 A 
ATOM     29  C   UNL     1      -9.588 -43.187  33.063  1.00  0.00     0.040 A 
ATOM     30  C   UNL     1     -11.935 -42.624  33.150  1.00  0.00     0.040 A 
ATOM     31  C   UNL     1     -10.628 -42.422  33.573  1.00  0.00     0.123 A 
ATOM     32  F   UNL     1     -10.367 -41.479  34.485  1.00  0.00    -0.207 F 
ENDBRANCH  25  26
ENDBRANCH  24  25
ENDBRANCH  18  19
ENDBRANCH   1  18
TORSDOF 9
ENDMDL
MODEL 7
REMARK VINA RESULT:    -9.974      1.533      2.061
REMARK INTER + INTRA:         -15.683
REMARK INTER:                 -15.107
REMARK INTRA:                  -0.577
REMARK UNBOUND:                -0.754
REMARK SMILES COc1cc2c(cc1OC)SC(=C(O)CCc1cc[n+](Cc3ccc(F)cc3)cc1)C2
REMARK SMILES IDX 15 1 13 2 14 3 12 5 31 6 11 7 5 8 6 9 4 10 7 11 3 12 8 13
REMARK SMILES IDX 2 14 1 15 9 16 10 17 16 18 17 19 18 20 30 21 19 22 29 23
REMARK SMILES IDX 20 24 21 25 22 26 23 27 28 28 24 29 27 30 25 31 26 32
REMARK H PARENT 14 4
ROOT
ATOM      1  C   UNL     1     -15.091 -43.035  26.048  1.00  0.00     0.080 C 
ENDROOT
BRANCH   1   2
ATOM      2  C   UNL     1     -15.962 -43.025  24.806  1.00  0.00     0.103 C 
BRANCH   2   3
ATOM      3  O   UNL     1     -15.294 -43.497  23.686  1.00  0.00    -0.511 OA
ATOM      4  H   UNL     1     -14.548 -42.906  23.482  1.00  0.00     0.293 HD
ENDBRANCH   2   3
BRANCH   2   5
ATOM      5  C   UNL     1     -17.236 -42.580  24.748  1.00  0.00     0.032 C 
ATOM      6  C   UNL     1     -18.121 -42.318  25.956  1.00  0.00     0.083 C 
ATOM      7  S   UNL     1     -18.033 -42.164  23.233  1.00  0.00    -0.090 SA
ATOM      8  C   UNL     1     -19.390 -41.686  25.462  1.00  0.00    -0.025 A 
ATOM      9  C   UNL     1     -19.471 -41.556  24.076  1.00  0.00     0.020 A 
ATOM     10  C   UNL     1     -20.436 -41.252  26.273  1.00  0.00     0.055 A 
ATOM     11  C   UNL     1     -20.584 -40.992  23.470  1.00  0.00     0.066 A 
ATOM     12  C   UNL     1     -21.570 -40.682  25.681  1.00  0.00     0.161 A 
ATOM     13  C   UNL     1     -21.643 -40.549  24.272  1.00  0.00     0.161 A 
BRANCH  12  14
ATOM     14  O   UNL     1     -22.654 -40.213  26.382  1.00  0.00    -0.493 OA
ATOM     15  C   UNL     1     -23.282 -41.095  27.300  1.00  0.00     0.278 C 
ENDBRANCH  12  14
BRANCH  13  16
ATOM     16  O   UNL     1     -22.790 -39.970  23.785  1.00  0.00    -0.493 OA
ATOM     17  C   UNL     1     -22.696 -39.222  22.581  1.00  0.00     0.278 C 
ENDBRANCH  13  16
ENDBRANCH   2   5
ENDBRANCH   1   2
BRANCH   1  18
ATOM     18  C   UNL     1     -13.699 -43.642  25.830  1.00  0.00     0.044 C 
BRANCH  18  19
ATOM     19  C   UNL     1     -13.068 -44.196  27.089  1.00  0.00    -0.036 A 
ATOM     20  C   UNL     1     -12.054 -43.497  27.742  1.00  0.00     0.074 A 
ATOM     21  C   UNL     1     -13.506 -45.401  27.634  1.00  0.00     0.074 A 
ATOM     22  C   UNL     1     -11.505 -44.011  28.909  1.00  0.00     0.308 A 
ATOM     23  C   UNL     1     -12.930 -45.877  28.806  1.00  0.00     0.308 A 
ATOM     24  N   UNL     1     -11.942 -45.187  29.420  1.00  0.00    -0.201 N 
BRANCH  24  25
ATOM     25  C   UNL     1     -11.348 -45.705  30.677  1.00  0.00     0.393 C 
BRANCH  25  26
ATOM     26  C   UNL     1     -11.062 -44.588  31.650  1.00  0.00     0.017 A 
ATOM     27  C   UNL     1     -12.098 -43.771  32.136  1.00  0.00     0.013 A 
ATOM     28  C   UNL     1      -9.745 -44.340  32.076  1.00  0.00     0.013 A 
ATOM     29  C   UNL     1     -11.822 -42.741  33.039  1.00  0.00     0.040 A 
ATOM     30  C   UNL     1      -9.475 -43.310  32.978  1.00  0.00     0.040 A 
ATOM     31  C   UNL     1     -10.515 -42.521  33.452  1.00  0.00     0.123 A 
ATOM     32  F   UNL     1     -10.254 -41.535  34.318  1.00  0.00    -0.207 F 
ENDBRANCH  25  26
ENDBRANCH  24  25
ENDBRANCH  18  19
ENDBRANCH   1  18
TORSDOF 9
ENDMDL
MODEL 8
REMARK VINA RESULT:    -9.296      2.448      3.706
REMARK INTER + INTRA:         -14.668
REMARK INTER:                 -13.890
REMARK INTRA:                  -0.779
REMARK UNBOUND:                -0.754
REMARK SMILES COc1cc2c(cc1OC)SC(=C(O)CCc1cc[n+](Cc3ccc(F)cc3)cc1)C2
REMARK SMILES IDX 15 1 13 2 14 3 12 5 31 6 11 7 5 8 6 9 4 10 7 11 3 12 8 13
REMARK SMILES IDX 2 14 1 15 9 16 10 17 16 18 17 19 18 20 30 21 19 22 29 23
REMARK SMILES IDX 20 24 21 25 22 26 23 27 28 28 24 29 27 30 25 31 26 32
REMARK H PARENT 14 4
ROOT
ATOM      1  C   UNL     1     -15.598 -42.540  24.871  1.00  0.00     0.080 C 
ENDROOT
BRANCH   1   2
ATOM      2  C   UNL     1     -16.965 -42.725  24.241  1.00  0.00     0.103 C 
BRANCH   2   3
ATOM      3  O   UNL     1     -16.924 -43.529  23.111  1.00  0.00    -0.511 OA
ATOM      4  H   UNL     1     -17.224 -43.016  22.340  1.00  0.00     0.293 HD
ENDBRANCH   2   3
BRANCH   2   5
ATOM      5  C   UNL     1     -18.111 -42.159  24.679  1.00  0.00     0.032 C 
ATOM      6  C   UNL     1     -19.167 -41.533  23.783  1.00  0.00     0.083 C 
ATOM      7  S   UNL     1     -18.577 -42.140  26.377  1.00  0.00    -0.090 SA
ATOM      8  C   UNL     1     -20.341 -41.172  24.647  1.00  0.00    -0.025 A 
ATOM      9  C   UNL     1     -20.160 -41.430  26.006  1.00  0.00     0.020 A 
ATOM     10  C   UNL     1     -21.532 -40.617  24.188  1.00  0.00     0.055 A 
ATOM     11  C   UNL     1     -21.156 -41.147  26.930  1.00  0.00     0.066 A 
ATOM     12  C   UNL     1     -22.549 -40.323  25.105  1.00  0.00     0.161 A 
ATOM     13  C   UNL     1     -22.360 -40.592  26.483  1.00  0.00     0.161 A 
BRANCH  12  14
ATOM     14  O   UNL     1     -23.765 -39.784  24.762  1.00  0.00    -0.493 OA
ATOM     15  C   UNL     1     -23.938 -39.328  23.429  1.00  0.00     0.278 C 
ENDBRANCH  12  14
BRANCH  13  16
ATOM     16  O   UNL     1     -23.416 -40.277  27.303  1.00  0.00    -0.493 OA
ATOM     17  C   UNL     1     -24.110 -41.345  27.932  1.00  0.00     0.278 C 
ENDBRANCH  13  16
ENDBRANCH   2   5
ENDBRANCH   1   2
BRANCH   1  18
ATOM     18  C   UNL     1     -14.673 -43.756  24.728  1.00  0.00     0.044 C 
BRANCH  18  19
ATOM     19  C   UNL     1     -13.857 -44.053  25.966  1.00  0.00    -0.036 A 
ATOM     20  C   UNL     1     -13.830 -45.338  26.508  1.00  0.00     0.074 A 
ATOM     21  C   UNL     1     -13.097 -43.057  26.576  1.00  0.00     0.074 A 
ATOM     22  C   UNL     1     -13.055 -45.595  27.631  1.00  0.00     0.308 A 
ATOM     23  C   UNL     1     -12.334 -43.359  27.697  1.00  0.00     0.308 A 
ATOM     24  N   UNL     1     -12.327 -44.611  28.210  1.00  0.00    -0.201 N 
BRANCH  24  25
ATOM     25  C   UNL     1     -11.497 -44.919  29.401  1.00  0.00     0.393 C 
BRANCH  25  26
ATOM     26  C   UNL     1     -12.037 -44.241  30.636  1.00  0.00     0.017 A 
ATOM     27  C   UNL     1     -13.333 -44.522  31.104  1.00  0.00     0.013 A 
ATOM     28  C   UNL     1     -11.251 -43.305  31.332  1.00  0.00     0.013 A 
ATOM     29  C   UNL     1     -13.822 -43.892  32.251  1.00  0.00     0.040 A 
ATOM     30  C   UNL     1     -11.745 -42.679  32.476  1.00  0.00     0.040 A 
ATOM     31  C   UNL     1     -13.024 -42.978  32.927  1.00  0.00     0.123 A 
ATOM     32  F   UNL     1     -13.495 -42.377  34.025  1.00  0.00    -0.207 F 
ENDBRANCH  25  26
ENDBRANCH  24  25
ENDBRANCH  18  19
ENDBRANCH   1  18
TORSDOF 9
ENDMDL
MODEL 9
REMARK VINA RESULT:    -9.092      5.108     12.252
REMARK INTER + INTRA:         -14.363
REMARK INTER:                 -13.764
REMARK INTRA:                  -0.599
REMARK UNBOUND:                -0.754
REMARK SMILES COc1cc2c(cc1OC)SC(=C(O)CCc1cc[n+](Cc3ccc(F)cc3)cc1)C2
REMARK SMILES IDX 15 1 13 2 14 3 12 5 31 6 11 7 5 8 6 9 4 10 7 11 3 12 8 13
REMARK SMILES IDX 2 14 1 15 9 16 10 17 16 18 17 19 18 20 30 21 19 22 29 23
REMARK SMILES IDX 20 24 21 25 22 26 23 27 28 28 24 29 27 30 25 31 26 32
REMARK H PARENT 14 4
ROOT
ATOM      1  C   UNL     1     -14.854 -42.812  26.100  1.00  0.00     0.080 C 
ENDROOT
BRANCH   1   2
ATOM      2  C   UNL     1     -14.024 -44.079  26.166  1.00  0.00     0.103 C 
BRANCH   2   3
ATOM      3  O   UNL     1     -14.369 -44.991  25.179  1.00  0.00    -0.511 OA
ATOM      4  H   UNL     1     -13.564 -45.425  24.846  1.00  0.00     0.293 HD
ENDBRANCH   2   3
BRANCH   2   5
ATOM      5  C   UNL     1     -13.073 -44.344  27.088  1.00  0.00     0.032 C 
ATOM      6  C   UNL     1     -12.189 -43.299  27.750  1.00  0.00     0.083 C 
ATOM      7  S   UNL     1     -12.775 -45.963  27.713  1.00  0.00    -0.090 SA
ATOM      8  C   UNL     1     -11.390 -43.988  28.818  1.00  0.00    -0.025 A 
ATOM      9  C   UNL     1     -11.597 -45.365  28.898  1.00  0.00     0.020 A 
ATOM     10  C   UNL     1     -10.498 -43.358  29.682  1.00  0.00     0.055 A 
ATOM     11  C   UNL     1     -10.928 -46.140  29.834  1.00  0.00     0.066 A 
ATOM     12  C   UNL     1      -9.811 -44.123  30.633  1.00  0.00     0.161 A 
ATOM     13  C   UNL     1     -10.030 -45.521  30.711  1.00  0.00     0.161 A 
BRANCH  12  14
ATOM     14  O   UNL     1      -8.917 -43.607  31.539  1.00  0.00    -0.493 OA
ATOM     15  C   UNL     1      -7.589 -43.366  31.097  1.00  0.00     0.278 C 
ENDBRANCH  12  14
BRANCH  13  16
ATOM     16  O   UNL     1      -9.316 -46.183  31.680  1.00  0.00    -0.493 OA
ATOM     17  C   UNL     1      -8.178 -46.930  31.273  1.00  0.00     0.278 C 
ENDBRANCH  13  16
ENDBRANCH   2   5
ENDBRANCH   1   2
BRANCH   1  18
ATOM     18  C   UNL     1     -14.948 -42.197  24.697  1.00  0.00     0.044 C 
BRANCH  18  19
ATOM     19  C   UNL     1     -16.343 -42.212  24.114  1.00  0.00    -0.036 A 
ATOM     20  C   UNL     1     -17.429 -42.637  24.879  1.00  0.00     0.074 A 
ATOM     21  C   UNL     1     -16.576 -41.777  22.811  1.00  0.00     0.074 A 
ATOM     22  C   UNL     1     -18.705 -42.619  24.332  1.00  0.00     0.308 A 
ATOM     23  C   UNL     1     -17.870 -41.775  22.304  1.00  0.00     0.308 A 
ATOM     24  N   UNL     1     -18.908 -42.197  23.062  1.00  0.00    -0.201 N 
BRANCH  24  25
ATOM     25  C   UNL     1     -20.285 -42.175  22.509  1.00  0.00     0.393 C 
BRANCH  25  26
ATOM     26  C   UNL     1     -20.510 -40.959  21.645  1.00  0.00     0.017 A 
ATOM     27  C   UNL     1     -20.425 -39.664  22.188  1.00  0.00     0.013 A 
ATOM     28  C   UNL     1     -20.823 -41.105  20.282  1.00  0.00     0.013 A 
ATOM     29  C   UNL     1     -20.633 -38.544  21.379  1.00  0.00     0.040 A 
ATOM     30  C   UNL     1     -21.030 -39.983  19.479  1.00  0.00     0.040 A 
ATOM     31  C   UNL     1     -20.931 -38.713  20.033  1.00  0.00     0.123 A 
ATOM     32  F   UNL     1     -21.128 -37.639  19.261  1.00  0.00    -0.207 F 
ENDBRANCH  25  26
ENDBRANCH  24  25
ENDBRANCH  18  19
ENDBRANCH   1  18
TORSDOF 9
ENDMDL
