MODEL 1
REMARK VINA RESULT:    -9.430      0.000      0.000
REMARK INTER + INTRA:         -17.018
REMARK INTER:                 -15.495
REMARK INTRA:                  -1.523
REMARK UNBOUND:                -1.523
REMARK SMILES O=[N+]([O-])OCCC[NH2+]CCCCNc1c2c(nc3ccccc13)CCCC2
REMARK SMILES IDX 8 1 7 4 6 5 5 6 4 7 2 8 1 9 3 10 9 11 10 12 11 13 12 14
REMARK SMILES IDX 13 15 14 17 15 18 23 19 16 20 27 21 22 22 18 23 17 24 24 25
REMARK SMILES IDX 26 26 21 27 19 28 25 29 20 30
REMARK H PARENT 8 2 8 3 13 16
ROOT
ATOM      1  N   UNL     1     -11.967 -42.781  27.492  1.00  0.00    -0.346 N 
ATOM      2  H   UNL     1     -12.891 -42.484  27.840  1.00  0.00     0.346 HD
ATOM      3  H   UNL     1     -11.987 -42.636  26.473  1.00  0.00     0.346 HD
ENDROOT
BRANCH   1   4
ATOM      4  C   UNL     1     -10.902 -41.907  28.084  1.00  0.00     0.262 C 
BRANCH   4   5
ATOM      5  C   UNL     1     -10.145 -42.693  29.150  1.00  0.00     0.089 C 
BRANCH   5   6
ATOM      6  C   UNL     1      -8.674 -42.892  28.772  1.00  0.00     0.214 C 
BRANCH   6   7
ATOM      7  O   UNL     1      -8.114 -41.617  28.473  1.00  0.00    -0.314 OA
BRANCH   7   8
ATOM      8  N   UNL     1      -7.662 -41.520  27.129  1.00  0.00     0.294 N 
ATOM      9  O   UNL     1      -6.942 -40.544  26.948  1.00  0.00    -0.109 OA
ATOM     10  O   UNL     1      -8.060 -42.381  26.346  1.00  0.00    -0.109 OA
ENDBRANCH   7   8
ENDBRANCH   6   7
ENDBRANCH   5   6
ENDBRANCH   4   5
ENDBRANCH   1   4
BRANCH   1  11
ATOM     11  C   UNL     1     -11.781 -44.239  27.778  1.00  0.00     0.260 C 
BRANCH  11  12
ATOM     12  C   UNL     1     -13.130 -44.924  27.977  1.00  0.00     0.063 C 
BRANCH  12  13
ATOM     13  C   UNL     1     -13.087 -46.065  28.993  1.00  0.00     0.027 C 
BRANCH  13  14
ATOM     14  C   UNL     1     -11.686 -46.246  29.585  1.00  0.00     0.113 C 
BRANCH  14  15
ATOM     15  N   UNL     1     -11.829 -46.395  31.036  1.00  0.00    -0.384 N 
ATOM     16  H   UNL     1     -11.305 -47.204  31.371  1.00  0.00     0.160 HD
BRANCH  15  17
ATOM     17  C   UNL     1     -11.329 -45.238  31.719  1.00  0.00     0.049 A 
ATOM     18  C   UNL     1     -12.256 -44.278  32.175  1.00  0.00    -0.003 A 
ATOM     19  C   UNL     1      -9.931 -45.002  31.863  1.00  0.00     0.024 A 
ATOM     20  C   UNL     1     -11.752 -43.136  32.796  1.00  0.00     0.046 A 
ATOM     21  C   UNL     1     -13.744 -44.527  32.099  1.00  0.00     0.039 C 
ATOM     22  C   UNL     1      -8.910 -45.890  31.431  1.00  0.00     0.012 A 
ATOM     23  C   UNL     1      -9.546 -43.798  32.486  1.00  0.00     0.073 A 
ATOM     24  N   UNL     1     -10.428 -42.893  32.930  1.00  0.00    -0.252 NA
ATOM     25  C   UNL     1     -12.657 -42.052  33.323  1.00  0.00     0.056 C 
ATOM     26  C   UNL     1     -14.597 -43.286  32.359  1.00  0.00     0.005 C 
ATOM     27  C   UNL     1      -7.560 -45.589  31.609  1.00  0.00     0.001 A 
ATOM     28  C   UNL     1      -8.197 -43.519  32.651  1.00  0.00     0.029 A 
ATOM     29  C   UNL     1     -14.084 -42.530  33.575  1.00  0.00     0.007 C 
ATOM     30  C   UNL     1      -7.202 -44.398  32.220  1.00  0.00     0.002 A 
ENDBRANCH  15  17
ENDBRANCH  14  15
ENDBRANCH  13  14
ENDBRANCH  12  13
ENDBRANCH  11  12
ENDBRANCH   1  11
TORSDOF 11
ENDMDL
MODEL 2
REMARK VINA RESULT:    -9.049      3.458      4.346
REMARK INTER + INTRA:         -16.391
REMARK INTER:                 -15.046
REMARK INTRA:                  -1.346
REMARK UNBOUND:                -1.523
REMARK SMILES O=[N+]([O-])OCCC[NH2+]CCCCNc1c2c(nc3ccccc13)CCCC2
REMARK SMILES IDX 8 1 7 4 6 5 5 6 4 7 2 8 1 9 3 10 9 11 10 12 11 13 12 14
REMARK SMILES IDX 13 15 14 17 15 18 23 19 16 20 27 21 22 22 18 23 17 24 24 25
REMARK SMILES IDX 26 26 21 27 19 28 25 29 20 30
REMARK H PARENT 8 2 8 3 13 16
ROOT
ATOM      1  N   UNL     1     -13.247 -43.157  26.850  1.00  0.00    -0.346 N 
ATOM      2  H   UNL     1     -12.502 -42.658  26.341  1.00  0.00     0.346 HD
ATOM      3  H   UNL     1     -13.784 -42.434  27.349  1.00  0.00     0.346 HD
ENDROOT
BRANCH   1   4
ATOM      4  C   UNL     1     -14.154 -43.841  25.871  1.00  0.00     0.262 C 
BRANCH   4   5
ATOM      5  C   UNL     1     -15.166 -42.832  25.337  1.00  0.00     0.089 C 
BRANCH   5   6
ATOM      6  C   UNL     1     -16.412 -42.755  26.223  1.00  0.00     0.214 C 
BRANCH   6   7
ATOM      7  O   UNL     1     -15.991 -42.693  27.582  1.00  0.00    -0.314 OA
BRANCH   7   8
ATOM      8  N   UNL     1     -17.067 -42.444  28.477  1.00  0.00     0.294 N 
ATOM      9  O   UNL     1     -18.133 -42.280  27.891  1.00  0.00    -0.109 OA
ATOM     10  O   UNL     1     -16.795 -42.399  29.675  1.00  0.00    -0.109 OA
ENDBRANCH   7   8
ENDBRANCH   6   7
ENDBRANCH   5   6
ENDBRANCH   4   5
ENDBRANCH   1   4
BRANCH   1  11
ATOM     11  C   UNL     1     -12.624 -44.085  27.847  1.00  0.00     0.260 C 
BRANCH  11  12
ATOM     12  C   UNL     1     -12.904 -45.538  27.475  1.00  0.00     0.063 C 
BRANCH  12  13
ATOM     13  C   UNL     1     -12.065 -46.540  28.269  1.00  0.00     0.027 C 
BRANCH  13  14
ATOM     14  C   UNL     1     -10.953 -45.847  29.062  1.00  0.00     0.113 C 
BRANCH  14  15
ATOM     15  N   UNL     1     -11.045 -46.298  30.452  1.00  0.00    -0.384 N 
ATOM     16  H   UNL     1     -10.333 -47.000  30.655  1.00  0.00     0.160 HD
BRANCH  15  17
ATOM     17  C   UNL     1     -10.848 -45.204  31.358  1.00  0.00     0.049 A 
ATOM     18  C   UNL     1     -11.979 -44.475  31.782  1.00  0.00    -0.003 A 
ATOM     19  C   UNL     1      -9.544 -44.793  31.759  1.00  0.00     0.024 A 
ATOM     20  C   UNL     1     -11.767 -43.385  32.626  1.00  0.00     0.046 A 
ATOM     21  C   UNL     1     -13.377 -44.924  31.431  1.00  0.00     0.039 C 
ATOM     22  C   UNL     1      -8.338 -45.442  31.384  1.00  0.00     0.012 A 
ATOM     23  C   UNL     1      -9.459 -43.660  32.593  1.00  0.00     0.073 A 
ATOM     24  N   UNL     1     -10.535 -42.976  33.005  1.00  0.00    -0.252 NA
ATOM     25  C   UNL     1     -12.906 -42.544  33.138  1.00  0.00     0.056 C 
ATOM     26  C   UNL     1     -14.455 -43.877  31.713  1.00  0.00     0.005 C 
ATOM     27  C   UNL     1      -7.096 -44.979  31.819  1.00  0.00     0.001 A 
ATOM     28  C   UNL     1      -8.213 -43.217  33.012  1.00  0.00     0.029 A 
ATOM     29  C   UNL     1     -14.252 -43.259  33.088  1.00  0.00     0.007 C 
ATOM     30  C   UNL     1      -7.033 -43.861  32.635  1.00  0.00     0.002 A 
ENDBRANCH  15  17
ENDBRANCH  14  15
ENDBRANCH  13  14
ENDBRANCH  12  13
ENDBRANCH  11  12
ENDBRANCH   1  11
TORSDOF 11
ENDMDL
MODEL 3
REMARK VINA RESULT:    -8.805      3.620      4.466
REMARK INTER + INTRA:         -15.990
REMARK INTER:                 -15.125
REMARK INTRA:                  -0.865
REMARK UNBOUND:                -1.523
REMARK SMILES O=[N+]([O-])OCCC[NH2+]CCCCNc1c2c(nc3ccccc13)CCCC2
REMARK SMILES IDX 8 1 7 4 6 5 5 6 4 7 2 8 1 9 3 10 9 11 10 12 11 13 12 14
REMARK SMILES IDX 13 15 14 17 15 18 23 19 16 20 27 21 22 22 18 23 17 24 24 25
REMARK SMILES IDX 26 26 21 27 19 28 25 29 20 30
REMARK H PARENT 8 2 8 3 13 16
ROOT
ATOM      1  N   UNL     1     -13.167 -43.293  26.876  1.00  0.00    -0.346 N 
ATOM      2  H   UNL     1     -12.600 -43.322  26.016  1.00  0.00     0.346 HD
ATOM      3  H   UNL     1     -13.206 -42.304  27.159  1.00  0.00     0.346 HD
ENDROOT
BRANCH   1   4
ATOM      4  C   UNL     1     -14.559 -43.766  26.579  1.00  0.00     0.262 C 
BRANCH   4   5
ATOM      5  C   UNL     1     -14.787 -43.731  25.070  1.00  0.00     0.089 C 
BRANCH   5   6
ATOM      6  C   UNL     1     -16.148 -43.126  24.716  1.00  0.00     0.214 C 
BRANCH   6   7
ATOM      7  O   UNL     1     -16.275 -43.111  23.298  1.00  0.00    -0.314 OA
BRANCH   7   8
ATOM      8  N   UNL     1     -16.555 -41.814  22.788  1.00  0.00     0.294 N 
ATOM      9  O   UNL     1     -15.549 -41.251  22.367  1.00  0.00    -0.109 OA
ATOM     10  O   UNL     1     -17.721 -41.430  22.858  1.00  0.00    -0.109 OA
ENDBRANCH   7   8
ENDBRANCH   6   7
ENDBRANCH   5   6
ENDBRANCH   4   5
ENDBRANCH   1   4
BRANCH   1  11
ATOM     11  C   UNL     1     -12.477 -44.083  27.946  1.00  0.00     0.260 C 
BRANCH  11  12
ATOM     12  C   UNL     1     -12.933 -45.540  27.916  1.00  0.00     0.063 C 
BRANCH  12  13
ATOM     13  C   UNL     1     -11.802 -46.534  28.176  1.00  0.00     0.027 C 
BRANCH  13  14
ATOM     14  C   UNL     1     -10.740 -45.955  29.116  1.00  0.00     0.113 C 
BRANCH  14  15
ATOM     15  N   UNL     1     -11.113 -46.310  30.487  1.00  0.00    -0.384 N 
ATOM     16  H   UNL     1     -10.555 -47.097  30.823  1.00  0.00     0.160 HD
BRANCH  15  17
ATOM     17  C   UNL     1     -10.893 -45.208  31.377  1.00  0.00     0.049 A 
ATOM     18  C   UNL     1     -12.009 -44.454  31.795  1.00  0.00    -0.003 A 
ATOM     19  C   UNL     1      -9.580 -44.816  31.769  1.00  0.00     0.024 A 
ATOM     20  C   UNL     1     -11.774 -43.357  32.624  1.00  0.00     0.046 A 
ATOM     21  C   UNL     1     -13.416 -44.881  31.455  1.00  0.00     0.039 C 
ATOM     22  C   UNL     1      -8.387 -45.491  31.399  1.00  0.00     0.012 A 
ATOM     23  C   UNL     1      -9.472 -43.674  32.588  1.00  0.00     0.073 A 
ATOM     24  N   UNL     1     -10.534 -42.965  32.994  1.00  0.00    -0.252 NA
ATOM     25  C   UNL     1     -12.897 -42.488  33.129  1.00  0.00     0.056 C 
ATOM     26  C   UNL     1     -14.474 -43.812  31.726  1.00  0.00     0.005 C 
ATOM     27  C   UNL     1      -7.136 -45.046  31.824  1.00  0.00     0.001 A 
ATOM     28  C   UNL     1      -8.216 -43.248  32.998  1.00  0.00     0.029 A 
ATOM     29  C   UNL     1     -14.256 -43.179  33.092  1.00  0.00     0.007 C 
ATOM     30  C   UNL     1      -7.050 -43.918  32.625  1.00  0.00     0.002 A 
ENDBRANCH  15  17
ENDBRANCH  14  15
ENDBRANCH  13  14
ENDBRANCH  12  13
ENDBRANCH  11  12
ENDBRANCH   1  11
TORSDOF 11
ENDMDL
MODEL 4
REMARK VINA RESULT:    -8.736      3.670      5.704
REMARK INTER + INTRA:         -15.877
REMARK INTER:                 -15.477
REMARK INTRA:                  -0.401
REMARK UNBOUND:                -1.523
REMARK SMILES O=[N+]([O-])OCCC[NH2+]CCCCNc1c2c(nc3ccccc13)CCCC2
REMARK SMILES IDX 8 1 7 4 6 5 5 6 4 7 2 8 1 9 3 10 9 11 10 12 11 13 12 14
REMARK SMILES IDX 13 15 14 17 15 18 23 19 16 20 27 21 22 22 18 23 17 24 24 25
REMARK SMILES IDX 26 26 21 27 19 28 25 29 20 30
REMARK H PARENT 8 2 8 3 13 16
ROOT
ATOM      1  N   UNL     1     -13.955 -43.175  27.179  1.00  0.00    -0.346 N 
ATOM      2  H   UNL     1     -13.203 -42.672  27.673  1.00  0.00     0.346 HD
ATOM      3  H   UNL     1     -14.811 -42.620  27.323  1.00  0.00     0.346 HD
ENDROOT
BRANCH   1   4
ATOM      4  C   UNL     1     -13.651 -43.222  25.711  1.00  0.00     0.262 C 
BRANCH   4   5
ATOM      5  C   UNL     1     -14.911 -43.629  24.953  1.00  0.00     0.089 C 
BRANCH   5   6
ATOM      6  C   UNL     1     -15.773 -42.417  24.592  1.00  0.00     0.214 C 
BRANCH   6   7
ATOM      7  O   UNL     1     -15.382 -41.958  23.302  1.00  0.00    -0.314 OA
BRANCH   7   8
ATOM      8  N   UNL     1     -16.494 -41.634  22.478  1.00  0.00     0.294 N 
ATOM      9  O   UNL     1     -17.487 -42.301  22.749  1.00  0.00    -0.109 OA
ATOM     10  O   UNL     1     -16.313 -40.778  21.614  1.00  0.00    -0.109 OA
ENDBRANCH   7   8
ENDBRANCH   6   7
ENDBRANCH   5   6
ENDBRANCH   4   5
ENDBRANCH   1   4
BRANCH   1  11
ATOM     11  C   UNL     1     -14.134 -44.525  27.802  1.00  0.00     0.260 C 
BRANCH  11  12
ATOM     12  C   UNL     1     -13.043 -45.483  27.329  1.00  0.00     0.063 C 
BRANCH  12  13
ATOM     13  C   UNL     1     -12.282 -46.148  28.476  1.00  0.00     0.027 C 
BRANCH  13  14
ATOM     14  C   UNL     1     -13.093 -46.142  29.776  1.00  0.00     0.113 C 
BRANCH  14  15
ATOM     15  N   UNL     1     -12.195 -46.533  30.865  1.00  0.00    -0.384 N 
ATOM     16  H   UNL     1     -11.443 -47.130  30.520  1.00  0.00     0.160 HD
BRANCH  15  17
ATOM     17  C   UNL     1     -11.595 -45.381  31.471  1.00  0.00     0.049 A 
ATOM     18  C   UNL     1     -10.188 -45.318  31.540  1.00  0.00    -0.003 A 
ATOM     19  C   UNL     1     -12.384 -44.357  32.072  1.00  0.00     0.024 A 
ATOM     20  C   UNL     1      -9.620 -44.213  32.173  1.00  0.00     0.046 A 
ATOM     21  C   UNL     1      -9.323 -46.348  30.855  1.00  0.00     0.039 C 
ATOM     22  C   UNL     1     -13.804 -44.324  32.074  1.00  0.00     0.012 A 
ATOM     23  C   UNL     1     -11.692 -43.305  32.704  1.00  0.00     0.073 A 
ATOM     24  N   UNL     1     -10.356 -43.240  32.759  1.00  0.00    -0.252 NA
ATOM     25  C   UNL     1      -8.128 -44.048  32.298  1.00  0.00     0.056 C 
ATOM     26  C   UNL     1      -7.853 -46.302  31.271  1.00  0.00     0.005 C 
ATOM     27  C   UNL     1     -14.507 -43.285  32.684  1.00  0.00     0.001 A 
ATOM     28  C   UNL     1     -12.413 -42.283  33.306  1.00  0.00     0.029 A 
ATOM     29  C   UNL     1      -7.345 -44.868  31.277  1.00  0.00     0.007 C 
ATOM     30  C   UNL     1     -13.809 -42.261  33.304  1.00  0.00     0.002 A 
ENDBRANCH  15  17
ENDBRANCH  14  15
ENDBRANCH  13  14
ENDBRANCH  12  13
ENDBRANCH  11  12
ENDBRANCH   1  11
TORSDOF 11
ENDMDL
MODEL 5
REMARK VINA RESULT:    -8.526      3.440      5.593
REMARK INTER + INTRA:         -15.532
REMARK INTER:                 -14.997
REMARK INTRA:                  -0.535
REMARK UNBOUND:                -1.523
REMARK SMILES O=[N+]([O-])OCCC[NH2+]CCCCNc1c2c(nc3ccccc13)CCCC2
REMARK SMILES IDX 8 1 7 4 6 5 5 6 4 7 2 8 1 9 3 10 9 11 10 12 11 13 12 14
REMARK SMILES IDX 13 15 14 17 15 18 23 19 16 20 27 21 22 22 18 23 17 24 24 25
REMARK SMILES IDX 26 26 21 27 19 28 25 29 20 30
REMARK H PARENT 8 2 8 3 13 16
ROOT
ATOM      1  N   UNL     1     -13.691 -44.657  26.614  1.00  0.00    -0.346 N 
ATOM      2  H   UNL     1     -14.491 -45.297  26.496  1.00  0.00     0.346 HD
ATOM      3  H   UNL     1     -12.919 -45.064  26.067  1.00  0.00     0.346 HD
ENDROOT
BRANCH   1   4
ATOM      4  C   UNL     1     -14.032 -43.314  26.041  1.00  0.00     0.262 C 
BRANCH   4   5
ATOM      5  C   UNL     1     -15.364 -43.408  25.303  1.00  0.00     0.089 C 
BRANCH   5   6
ATOM      6  C   UNL     1     -16.497 -42.743  26.089  1.00  0.00     0.214 C 
BRANCH   6   7
ATOM      7  O   UNL     1     -16.009 -42.415  27.385  1.00  0.00    -0.314 OA
BRANCH   7   8
ATOM      8  N   UNL     1     -16.958 -42.680  28.410  1.00  0.00     0.294 N 
ATOM      9  O   UNL     1     -18.113 -42.631  27.999  1.00  0.00    -0.109 OA
ATOM     10  O   UNL     1     -16.514 -42.889  29.537  1.00  0.00    -0.109 OA
ENDBRANCH   7   8
ENDBRANCH   6   7
ENDBRANCH   5   6
ENDBRANCH   4   5
ENDBRANCH   1   4
BRANCH   1  11
ATOM     11  C   UNL     1     -13.303 -44.617  28.060  1.00  0.00     0.260 C 
BRANCH  11  12
ATOM     12  C   UNL     1     -12.988 -46.021  28.570  1.00  0.00     0.063 C 
BRANCH  12  13
ATOM     13  C   UNL     1     -11.563 -46.475  28.252  1.00  0.00     0.027 C 
BRANCH  13  14
ATOM     14  C   UNL     1     -10.583 -46.096  29.367  1.00  0.00     0.113 C 
BRANCH  14  15
ATOM     15  N   UNL     1     -11.302 -46.177  30.641  1.00  0.00    -0.384 N 
ATOM     16  H   UNL     1     -11.002 -46.994  31.175  1.00  0.00     0.160 HD
BRANCH  15  17
ATOM     17  C   UNL     1     -11.051 -45.015  31.443  1.00  0.00     0.049 A 
ATOM     18  C   UNL     1      -9.717 -44.714  31.785  1.00  0.00    -0.003 A 
ATOM     19  C   UNL     1     -12.116 -44.225  31.964  1.00  0.00     0.024 A 
ATOM     20  C   UNL     1      -9.493 -43.608  32.604  1.00  0.00     0.046 A 
ATOM     21  C   UNL     1      -8.562 -45.489  31.196  1.00  0.00     0.039 C 
ATOM     22  C   UNL     1     -13.494 -44.442  31.697  1.00  0.00     0.012 A 
ATOM     23  C   UNL     1     -11.762 -43.147  32.801  1.00  0.00     0.073 A 
ATOM     24  N   UNL     1     -10.494 -42.856  33.116  1.00  0.00    -0.252 NA
ATOM     25  C   UNL     1      -8.105 -43.199  33.025  1.00  0.00     0.056 C 
ATOM     26  C   UNL     1      -7.223 -45.233  31.888  1.00  0.00     0.005 C 
ATOM     27  C   UNL     1     -14.480 -43.622  32.244  1.00  0.00     0.001 A 
ATOM     28  C   UNL     1     -12.761 -42.346  33.336  1.00  0.00     0.029 A 
ATOM     29  C   UNL     1      -7.014 -43.743  32.110  1.00  0.00     0.007 C 
ATOM     30  C   UNL     1     -14.112 -42.570  33.068  1.00  0.00     0.002 A 
ENDBRANCH  15  17
ENDBRANCH  14  15
ENDBRANCH  13  14
ENDBRANCH  12  13
ENDBRANCH  11  12
ENDBRANCH   1  11
TORSDOF 11
ENDMDL
MODEL 6
REMARK VINA RESULT:    -8.154      0.946      3.767
REMARK INTER + INTRA:         -14.921
REMARK INTER:                 -14.742
REMARK INTRA:                  -0.179
REMARK UNBOUND:                -1.523
REMARK SMILES O=[N+]([O-])OCCC[NH2+]CCCCNc1c2c(nc3ccccc13)CCCC2
REMARK SMILES IDX 8 1 7 4 6 5 5 6 4 7 2 8 1 9 3 10 9 11 10 12 11 13 12 14
REMARK SMILES IDX 13 15 14 17 15 18 23 19 16 20 27 21 22 22 18 23 17 24 24 25
REMARK SMILES IDX 26 26 21 27 19 28 25 29 20 30
REMARK H PARENT 8 2 8 3 13 16
ROOT
ATOM      1  N   UNL     1     -13.913 -44.153  28.057  1.00  0.00    -0.346 N 
ATOM      2  H   UNL     1     -14.347 -44.715  28.803  1.00  0.00     0.346 HD
ATOM      3  H   UNL     1     -14.615 -43.449  27.787  1.00  0.00     0.346 HD
ENDROOT
BRANCH   1   4
ATOM      4  C   UNL     1     -12.705 -43.447  28.597  1.00  0.00     0.262 C 
BRANCH   4   5
ATOM      5  C   UNL     1     -11.827 -42.997  27.433  1.00  0.00     0.089 C 
BRANCH   5   6
ATOM      6  C   UNL     1     -10.679 -42.099  27.902  1.00  0.00     0.214 C 
BRANCH   6   7
ATOM      7  O   UNL     1      -9.453 -42.683  27.474  1.00  0.00    -0.314 OA
BRANCH   7   8
ATOM      8  N   UNL     1      -8.315 -42.008  27.995  1.00  0.00     0.294 N 
ATOM      9  O   UNL     1      -8.139 -42.242  29.187  1.00  0.00    -0.109 OA
ATOM     10  O   UNL     1      -7.695 -41.284  27.219  1.00  0.00    -0.109 OA
ENDBRANCH   7   8
ENDBRANCH   6   7
ENDBRANCH   5   6
ENDBRANCH   4   5
ENDBRANCH   1   4
BRANCH   1  11
ATOM     11  C   UNL     1     -13.623 -45.034  26.881  1.00  0.00     0.260 C 
BRANCH  11  12
ATOM     12  C   UNL     1     -12.709 -46.188  27.289  1.00  0.00     0.063 C 
BRANCH  12  13
ATOM     13  C   UNL     1     -12.740 -46.484  28.788  1.00  0.00     0.027 C 
BRANCH  13  14
ATOM     14  C   UNL     1     -11.373 -46.257  29.441  1.00  0.00     0.113 C 
BRANCH  14  15
ATOM     15  N   UNL     1     -11.539 -46.398  30.889  1.00  0.00    -0.384 N 
ATOM     16  H   UNL     1     -10.920 -47.121  31.257  1.00  0.00     0.160 HD
BRANCH  15  17
ATOM     17  C   UNL     1     -11.225 -45.171  31.561  1.00  0.00     0.049 A 
ATOM     18  C   UNL     1      -9.870 -44.878  31.818  1.00  0.00    -0.003 A 
ATOM     19  C   UNL     1     -12.246 -44.302  32.043  1.00  0.00     0.024 A 
ATOM     20  C   UNL     1      -9.583 -43.704  32.514  1.00  0.00     0.046 A 
ATOM     21  C   UNL     1      -8.762 -45.741  31.264  1.00  0.00     0.039 C 
ATOM     22  C   UNL     1     -13.640 -44.503  31.854  1.00  0.00     0.012 A 
ATOM     23  C   UNL     1     -11.829 -43.158  32.754  1.00  0.00     0.073 A 
ATOM     24  N   UNL     1     -10.542 -42.875  32.987  1.00  0.00    -0.252 NA
ATOM     25  C   UNL     1      -8.169 -43.296  32.837  1.00  0.00     0.056 C 
ATOM     26  C   UNL     1      -7.389 -45.458  31.873  1.00  0.00     0.005 C 
ATOM     27  C   UNL     1     -14.580 -43.604  32.355  1.00  0.00     0.001 A 
ATOM     28  C   UNL     1     -12.784 -42.279  33.245  1.00  0.00     0.029 A 
ATOM     29  C   UNL     1      -7.132 -43.960  31.937  1.00  0.00     0.007 C 
ATOM     30  C   UNL     1     -14.151 -42.488  33.056  1.00  0.00     0.002 A 
ENDBRANCH  15  17
ENDBRANCH  14  15
ENDBRANCH  13  14
ENDBRANCH  12  13
ENDBRANCH  11  12
ENDBRANCH   1  11
TORSDOF 11
ENDMDL
MODEL 7
REMARK VINA RESULT:    -7.794      8.016     11.212
REMARK INTER + INTRA:         -14.330
REMARK INTER:                 -13.556
REMARK INTRA:                  -0.774
REMARK UNBOUND:                -1.523
REMARK SMILES O=[N+]([O-])OCCC[NH2+]CCCCNc1c2c(nc3ccccc13)CCCC2
REMARK SMILES IDX 8 1 7 4 6 5 5 6 4 7 2 8 1 9 3 10 9 11 10 12 11 13 12 14
REMARK SMILES IDX 13 15 14 17 15 18 23 19 16 20 27 21 22 22 18 23 17 24 24 25
REMARK SMILES IDX 26 26 21 27 19 28 25 29 20 30
REMARK H PARENT 8 2 8 3 13 16
ROOT
ATOM      1  N   UNL     1     -14.482 -42.773  26.917  1.00  0.00    -0.346 N 
ATOM      2  H   UNL     1     -14.898 -42.976  27.837  1.00  0.00     0.346 HD
ATOM      3  H   UNL     1     -14.260 -41.767  26.921  1.00  0.00     0.346 HD
ENDROOT
BRANCH   1   4
ATOM      4  C   UNL     1     -13.208 -43.548  26.757  1.00  0.00     0.262 C 
BRANCH   4   5
ATOM      5  C   UNL     1     -13.460 -45.006  27.127  1.00  0.00     0.089 C 
BRANCH   5   6
ATOM      6  C   UNL     1     -13.081 -45.297  28.582  1.00  0.00     0.214 C 
BRANCH   6   7
ATOM      7  O   UNL     1     -14.100 -44.767  29.424  1.00  0.00    -0.314 OA
BRANCH   7   8
ATOM      8  N   UNL     1     -13.796 -44.910  30.805  1.00  0.00     0.294 N 
ATOM      9  O   UNL     1     -13.804 -46.083  31.165  1.00  0.00    -0.109 OA
ATOM     10  O   UNL     1     -13.600 -43.876  31.440  1.00  0.00    -0.109 OA
ENDBRANCH   7   8
ENDBRANCH   6   7
ENDBRANCH   5   6
ENDBRANCH   4   5
ENDBRANCH   1   4
BRANCH   1  11
ATOM     11  C   UNL     1     -15.495 -43.049  25.848  1.00  0.00     0.260 C 
BRANCH  11  12
ATOM     12  C   UNL     1     -15.051 -42.442  24.519  1.00  0.00     0.063 C 
BRANCH  12  13
ATOM     13  C   UNL     1     -15.922 -42.867  23.337  1.00  0.00     0.027 C 
BRANCH  13  14
ATOM     14  C   UNL     1     -16.791 -41.713  22.828  1.00  0.00     0.113 C 
BRANCH  14  15
ATOM     15  N   UNL     1     -18.081 -42.271  22.416  1.00  0.00    -0.384 N 
ATOM     16  H   UNL     1     -18.229 -43.191  22.833  1.00  0.00     0.160 HD
BRANCH  15  17
ATOM     17  C   UNL     1     -19.160 -41.424  22.833  1.00  0.00     0.049 A 
ATOM     18  C   UNL     1     -19.675 -41.591  24.135  1.00  0.00    -0.003 A 
ATOM     19  C   UNL     1     -19.767 -40.495  21.940  1.00  0.00     0.024 A 
ATOM     20  C   UNL     1     -20.755 -40.792  24.510  1.00  0.00     0.046 A 
ATOM     21  C   UNL     1     -19.014 -42.517  25.128  1.00  0.00     0.039 C 
ATOM     22  C   UNL     1     -19.341 -40.253  20.607  1.00  0.00     0.012 A 
ATOM     23  C   UNL     1     -20.869 -39.764  22.429  1.00  0.00     0.073 A 
ATOM     24  N   UNL     1     -21.350 -39.914  23.670  1.00  0.00    -0.252 NA
ATOM     25  C   UNL     1     -21.378 -40.889  25.879  1.00  0.00     0.056 C 
ATOM     26  C   UNL     1     -19.857 -42.801  26.371  1.00  0.00     0.005 C 
ATOM     27  C   UNL     1     -19.987 -39.324  19.792  1.00  0.00     0.001 A 
ATOM     28  C   UNL     1     -21.497 -38.845  21.600  1.00  0.00     0.029 A 
ATOM     29  C   UNL     1     -20.452 -41.512  26.918  1.00  0.00     0.007 C 
ATOM     30  C   UNL     1     -21.071 -38.618  20.290  1.00  0.00     0.002 A 
ENDBRANCH  15  17
ENDBRANCH  14  15
ENDBRANCH  13  14
ENDBRANCH  12  13
ENDBRANCH  11  12
ENDBRANCH   1  11
TORSDOF 11
ENDMDL
MODEL 8
REMARK VINA RESULT:    -7.733      7.971     11.138
REMARK INTER + INTRA:         -14.230
REMARK INTER:                 -13.252
REMARK INTRA:                  -0.978
REMARK UNBOUND:                -1.523
REMARK SMILES O=[N+]([O-])OCCC[NH2+]CCCCNc1c2c(nc3ccccc13)CCCC2
REMARK SMILES IDX 8 1 7 4 6 5 5 6 4 7 2 8 1 9 3 10 9 11 10 12 11 13 12 14
REMARK SMILES IDX 13 15 14 17 15 18 23 19 16 20 27 21 22 22 18 23 17 24 24 25
REMARK SMILES IDX 26 26 21 27 19 28 25 29 20 30
REMARK H PARENT 8 2 8 3 13 16
ROOT
ATOM      1  N   UNL     1     -14.599 -42.680  26.897  1.00  0.00    -0.346 N 
ATOM      2  H   UNL     1     -14.988 -42.936  27.817  1.00  0.00     0.346 HD
ATOM      3  H   UNL     1     -14.341 -41.685  26.965  1.00  0.00     0.346 HD
ENDROOT
BRANCH   1   4
ATOM      4  C   UNL     1     -13.360 -43.482  26.634  1.00  0.00     0.262 C 
BRANCH   4   5
ATOM      5  C   UNL     1     -13.640 -44.951  26.938  1.00  0.00     0.089 C 
BRANCH   5   6
ATOM      6  C   UNL     1     -13.247 -45.318  28.371  1.00  0.00     0.214 C 
BRANCH   6   7
ATOM      7  O   UNL     1     -14.159 -44.684  29.262  1.00  0.00    -0.314 OA
BRANCH   7   8
ATOM      8  N   UNL     1     -13.790 -44.842  30.625  1.00  0.00     0.294 N 
ATOM      9  O   UNL     1     -13.837 -46.013  30.989  1.00  0.00    -0.109 OA
ATOM     10  O   UNL     1     -13.509 -43.819  31.246  1.00  0.00    -0.109 OA
ENDBRANCH   7   8
ENDBRANCH   6   7
ENDBRANCH   5   6
ENDBRANCH   4   5
ENDBRANCH   1   4
BRANCH   1  11
ATOM     11  C   UNL     1     -15.659 -42.844  25.852  1.00  0.00     0.260 C 
BRANCH  11  12
ATOM     12  C   UNL     1     -15.186 -42.275  24.516  1.00  0.00     0.063 C 
BRANCH  12  13
ATOM     13  C   UNL     1     -15.956 -42.827  23.316  1.00  0.00     0.027 C 
BRANCH  13  14
ATOM     14  C   UNL     1     -16.893 -41.778  22.710  1.00  0.00     0.113 C 
BRANCH  14  15
ATOM     15  N   UNL     1     -18.163 -42.438  22.399  1.00  0.00    -0.384 N 
ATOM     16  H   UNL     1     -18.203 -43.367  22.819  1.00  0.00     0.160 HD
BRANCH  15  17
ATOM     17  C   UNL     1     -19.269 -41.681  22.910  1.00  0.00     0.049 A 
ATOM     18  C   UNL     1     -19.898 -40.755  22.053  1.00  0.00    -0.003 A 
ATOM     19  C   UNL     1     -19.679 -41.785  24.271  1.00  0.00     0.024 A 
ATOM     20  C   UNL     1     -20.941 -39.993  22.578  1.00  0.00     0.046 A 
ATOM     21  C   UNL     1     -19.534 -40.667  20.590  1.00  0.00     0.039 C 
ATOM     22  C   UNL     1     -19.111 -42.672  25.224  1.00  0.00     0.012 A 
ATOM     23  C   UNL     1     -20.729 -40.943  24.688  1.00  0.00     0.073 A 
ATOM     24  N   UNL     1     -21.333 -40.072  23.870  1.00  0.00    -0.252 NA
ATOM     25  C   UNL     1     -21.681 -38.977  21.746  1.00  0.00     0.056 C 
ATOM     26  C   UNL     1     -20.088 -39.430  19.884  1.00  0.00     0.005 C 
ATOM     27  C   UNL     1     -19.568 -42.717  26.540  1.00  0.00     0.001 A 
ATOM     28  C   UNL     1     -21.167 -41.004  26.004  1.00  0.00     0.029 A 
ATOM     29  C   UNL     1     -21.550 -39.219  20.246  1.00  0.00     0.007 C 
ATOM     30  C   UNL     1     -20.600 -41.878  26.932  1.00  0.00     0.002 A 
ENDBRANCH  15  17
ENDBRANCH  14  15
ENDBRANCH  13  14
ENDBRANCH  12  13
ENDBRANCH  11  12
ENDBRANCH   1  11
TORSDOF 11
ENDMDL
MODEL 9
REMARK VINA RESULT:    -7.704      2.504      4.931
REMARK INTER + INTRA:         -14.182
REMARK INTER:                 -12.909
REMARK INTRA:                  -1.273
REMARK UNBOUND:                -1.523
REMARK SMILES O=[N+]([O-])OCCC[NH2+]CCCCNc1c2c(nc3ccccc13)CCCC2
REMARK SMILES IDX 8 1 7 4 6 5 5 6 4 7 2 8 1 9 3 10 9 11 10 12 11 13 12 14
REMARK SMILES IDX 13 15 14 17 15 18 23 19 16 20 27 21 22 22 18 23 17 24 24 25
REMARK SMILES IDX 26 26 21 27 19 28 25 29 20 30
REMARK H PARENT 8 2 8 3 13 16
ROOT
ATOM      1  N   UNL     1     -10.107 -43.454  32.112  1.00  0.00    -0.346 N 
ATOM      2  H   UNL     1     -10.196 -44.478  32.045  1.00  0.00     0.346 HD
ATOM      3  H   UNL     1      -9.211 -43.277  32.588  1.00  0.00     0.346 HD
ENDROOT
BRANCH   1   4
ATOM      4  C   UNL     1     -10.045 -42.863  30.735  1.00  0.00     0.262 C 
BRANCH   4   5
ATOM      5  C   UNL     1      -8.766 -43.329  30.047  1.00  0.00     0.089 C 
BRANCH   5   6
ATOM      6  C   UNL     1      -7.753 -43.887  31.051  1.00  0.00     0.214 C 
BRANCH   6   7
ATOM      7  O   UNL     1      -7.125 -42.792  31.708  1.00  0.00    -0.314 OA
BRANCH   7   8
ATOM      8  N   UNL     1      -6.886 -43.046  33.086  1.00  0.00     0.294 N 
ATOM      9  O   UNL     1      -7.906 -42.950  33.762  1.00  0.00    -0.109 OA
ATOM     10  O   UNL     1      -5.727 -43.292  33.412  1.00  0.00    -0.109 OA
ENDBRANCH   7   8
ENDBRANCH   6   7
ENDBRANCH   5   6
ENDBRANCH   4   5
ENDBRANCH   1   4
BRANCH   1  11
ATOM     11  C   UNL     1     -11.226 -42.916  32.950  1.00  0.00     0.260 C 
BRANCH  11  12
ATOM     12  C   UNL     1     -12.386 -42.461  32.069  1.00  0.00     0.063 C 
BRANCH  12  13
ATOM     13  C   UNL     1     -13.720 -43.107  32.443  1.00  0.00     0.027 C 
BRANCH  13  14
ATOM     14  C   UNL     1     -13.726 -44.610  32.151  1.00  0.00     0.113 C 
BRANCH  14  15
ATOM     15  N   UNL     1     -14.540 -44.832  30.953  1.00  0.00    -0.384 N 
ATOM     16  H   UNL     1     -15.242 -44.098  30.851  1.00  0.00     0.160 HD
BRANCH  15  17
ATOM     17  C   UNL     1     -13.725 -44.823  29.774  1.00  0.00     0.049 A 
ATOM     18  C   UNL     1     -14.258 -44.256  28.598  1.00  0.00    -0.003 A 
ATOM     19  C   UNL     1     -12.443 -45.445  29.748  1.00  0.00     0.024 A 
ATOM     20  C   UNL     1     -13.472 -44.297  27.447  1.00  0.00     0.046 A 
ATOM     21  C   UNL     1     -15.582 -43.530  28.607  1.00  0.00     0.039 C 
ATOM     22  C   UNL     1     -11.815 -46.056  30.865  1.00  0.00     0.012 A 
ATOM     23  C   UNL     1     -11.757 -45.444  28.517  1.00  0.00     0.073 A 
ATOM     24  N   UNL     1     -12.259 -44.894  27.403  1.00  0.00    -0.252 NA
ATOM     25  C   UNL     1     -13.946 -43.717  26.139  1.00  0.00     0.056 C 
ATOM     26  C   UNL     1     -16.143 -43.240  27.215  1.00  0.00     0.005 C 
ATOM     27  C   UNL     1     -10.556 -46.646  30.761  1.00  0.00     0.001 A 
ATOM     28  C   UNL     1     -10.505 -46.037  28.436  1.00  0.00     0.029 A 
ATOM     29  C   UNL     1     -15.056 -42.685  26.307  1.00  0.00     0.007 C 
ATOM     30  C   UNL     1      -9.898 -46.637  29.541  1.00  0.00     0.002 A 
ENDBRANCH  15  17
ENDBRANCH  14  15
ENDBRANCH  13  14
ENDBRANCH  12  13
ENDBRANCH  11  12
ENDBRANCH   1  11
TORSDOF 11
ENDMDL
