MODEL 1
REMARK VINA RESULT:   -13.017      0.000      0.000
REMARK INTER + INTRA:         -19.390
REMARK INTER:                 -18.343
REMARK INTRA:                  -1.047
REMARK UNBOUND:                -1.047
REMARK SMILES Cc1cc(=O)[nH]c2c1C(=O)C(=NCCCCN=c1c3c([nH]c4cc(Cl)ccc14)CCCC3)CC2=O
REMARK SMILES IDX 15 1 16 2 17 3 18 4 21 5 20 6 22 7 19 8 29 9 23 10 28 11
REMARK SMILES IDX 32 12 30 13 24 14 27 15 31 16 26 17 25 19 14 20 13 21 12 22
REMARK SMILES IDX 11 23 33 24 9 25 34 26 8 27 7 28 2 29 6 30 3 31 4 32 10 33
REMARK SMILES IDX 35 34 1 35 5 37
REMARK H PARENT 21 18 6 36
ROOT
ATOM      1  C   UNL     1     -11.480 -46.523  27.907  1.00  0.00     0.025 C 
ENDROOT
BRANCH   1   2
ATOM      2  C   UNL     1     -10.629 -45.562  28.737  1.00  0.00     0.143 C 
BRANCH   2   3
ATOM      3  N   UNL     1     -10.881 -45.768  30.146  1.00  0.00    -0.284 NA
BRANCH   3   4
ATOM      4  C   UNL     1     -10.553 -45.011  31.129  1.00  0.00     0.072 A 
ATOM      5  N   UNL     1     -10.124 -42.767  32.808  1.00  0.00    -0.358 N 
ATOM      6  C   UNL     1      -9.060 -43.580  32.470  1.00  0.00     0.021 A 
ATOM      7  C   UNL     1     -11.442 -43.202  32.622  1.00  0.00     0.049 A 
ATOM      8  C   UNL     1      -9.182 -44.686  31.698  1.00  0.00    -0.003 A 
ATOM      9  C   UNL     1      -7.727 -43.158  33.059  1.00  0.00     0.054 C 
ATOM     10  C   UNL     1     -12.512 -42.494  33.181  1.00  0.00     0.047 A 
ATOM     11  C   UNL     1     -11.703 -44.309  31.803  1.00  0.00     0.024 A 
ATOM     12  C   UNL     1      -8.028 -45.623  31.470  1.00  0.00     0.039 C 
ATOM     13  C   UNL     1      -6.523 -43.908  32.496  1.00  0.00     0.007 C 
ATOM     14  C   UNL     1     -13.823 -42.915  32.958  1.00  0.00     0.043 A 
ATOM     15  C   UNL     1     -13.025 -44.722  31.580  1.00  0.00     0.014 A 
ATOM     16  C   UNL     1      -6.832 -45.391  32.395  1.00  0.00     0.005 C 
ATOM     17  C   UNL     1     -14.086 -44.028  32.164  1.00  0.00     0.021 A 
ATOM     18  H   UNL     1      -9.964 -42.098  33.554  1.00  0.00     0.166 HD
ATOM     19  Cl  UNL     1     -15.128 -42.045  33.666  1.00  0.00    -0.084 Cl
ENDBRANCH   3   4
ENDBRANCH   2   3
ENDBRANCH   1   2
BRANCH   1  20
ATOM     20  C   UNL     1     -12.939 -46.081  27.783  1.00  0.00     0.025 C 
BRANCH  20  21
ATOM     21  C   UNL     1     -13.127 -44.569  27.906  1.00  0.00     0.142 C 
BRANCH  21  22
ATOM     22  N   UNL     1     -14.550 -44.279  27.765  1.00  0.00    -0.285 NA
BRANCH  22  23
ATOM     23  C   UNL     1     -14.926 -43.319  26.990  1.00  0.00     0.091 C 
ATOM     24  C   UNL     1     -14.182 -42.737  25.831  1.00  0.00     0.142 C 
ATOM     25  C   UNL     1     -16.269 -42.676  27.255  1.00  0.00     0.209 C 
ATOM     26  C   UNL     1     -15.073 -42.436  24.660  1.00  0.00     0.185 C 
ATOM     27  C   UNL     1     -17.144 -42.496  26.065  1.00  0.00     0.054 A 
ATOM     28  C   UNL     1     -16.555 -42.388  24.861  1.00  0.00     0.097 A 
ATOM     29  C   UNL     1     -18.605 -42.403  26.159  1.00  0.00    -0.032 A 
ATOM     30  N   UNL     1     -17.313 -42.191  23.727  1.00  0.00    -0.319 N 
ATOM     31  C   UNL     1     -19.333 -42.213  25.041  1.00  0.00     0.075 A 
ATOM     32  C   UNL     1     -18.677 -42.089  23.718  1.00  0.00     0.248 A 
ATOM     33  O   UNL     1     -16.560 -42.315  28.384  1.00  0.00    -0.287 OA
ATOM     34  O   UNL     1     -14.608 -42.204  23.544  1.00  0.00    -0.292 OA
ATOM     35  C   UNL     1     -19.284 -42.546  27.492  1.00  0.00     0.045 C 
ATOM     36  H   UNL     1     -16.835 -42.093  22.834  1.00  0.00     0.170 HD
ATOM     37  O   UNL     1     -19.330 -41.907  22.698  1.00  0.00    -0.270 OA
ENDBRANCH  22  23
ENDBRANCH  21  22
ENDBRANCH  20  21
ENDBRANCH   1  20
TORSDOF 7
ENDMDL
MODEL 2
REMARK VINA RESULT:   -11.383      3.993     11.032
REMARK INTER + INTRA:         -17.087
REMARK INTER:                 -16.257
REMARK INTRA:                  -0.830
REMARK UNBOUND:                -1.047
REMARK SMILES Cc1cc(=O)[nH]c2c1C(=O)C(=NCCCCN=c1c3c([nH]c4cc(Cl)ccc14)CCCC3)CC2=O
REMARK SMILES IDX 15 1 16 2 17 3 18 4 21 5 20 6 22 7 19 8 29 9 23 10 28 11
REMARK SMILES IDX 32 12 30 13 24 14 27 15 31 16 26 17 25 19 14 20 13 21 12 22
REMARK SMILES IDX 11 23 33 24 9 25 34 26 8 27 7 28 2 29 6 30 3 31 4 32 10 33
REMARK SMILES IDX 35 34 1 35 5 37
REMARK H PARENT 21 18 6 36
ROOT
ATOM      1  C   UNL     1     -15.829 -43.090  23.922  1.00  0.00     0.025 C 
ENDROOT
BRANCH   1   2
ATOM      2  C   UNL     1     -16.424 -41.782  23.401  1.00  0.00     0.143 C 
BRANCH   2   3
ATOM      3  N   UNL     1     -17.697 -42.037  22.761  1.00  0.00    -0.284 NA
BRANCH   3   4
ATOM      4  C   UNL     1     -18.863 -41.657  23.138  1.00  0.00     0.072 A 
ATOM      5  N   UNL     1     -21.071 -40.100  23.994  1.00  0.00    -0.358 N 
ATOM      6  C   UNL     1     -20.666 -41.181  24.750  1.00  0.00     0.021 A 
ATOM      7  C   UNL     1     -20.643 -39.953  22.669  1.00  0.00     0.049 A 
ATOM      8  C   UNL     1     -19.641 -41.994  24.399  1.00  0.00    -0.003 A 
ATOM      9  C   UNL     1     -21.482 -41.418  26.007  1.00  0.00     0.054 C 
ATOM     10  C   UNL     1     -21.236 -39.005  21.828  1.00  0.00     0.047 A 
ATOM     11  C   UNL     1     -19.557 -40.705  22.199  1.00  0.00     0.024 A 
ATOM     12  C   UNL     1     -19.320 -43.242  25.175  1.00  0.00     0.039 C 
ATOM     13  C   UNL     1     -20.889 -42.455  26.957  1.00  0.00     0.007 C 
ATOM     14  C   UNL     1     -20.775 -38.843  20.521  1.00  0.00     0.043 A 
ATOM     15  C   UNL     1     -19.097 -40.531  20.885  1.00  0.00     0.014 A 
ATOM     16  C   UNL     1     -20.399 -43.660  26.175  1.00  0.00     0.005 C 
ATOM     17  C   UNL     1     -19.712 -39.604  20.043  1.00  0.00     0.021 A 
ATOM     18  H   UNL     1     -21.970 -39.691  24.231  1.00  0.00     0.166 HD
ATOM     19  Cl  UNL     1     -21.525 -37.685  19.492  1.00  0.00    -0.084 Cl
ENDBRANCH   3   4
ENDBRANCH   2   3
ENDBRANCH   1   2
BRANCH   1  20
ATOM     20  C   UNL     1     -15.546 -43.064  25.425  1.00  0.00     0.025 C 
BRANCH  20  21
ATOM     21  C   UNL     1     -14.480 -44.071  25.858  1.00  0.00     0.142 C 
BRANCH  21  22
ATOM     22  N   UNL     1     -14.236 -43.883  27.285  1.00  0.00    -0.285 NA
BRANCH  22  23
ATOM     23  C   UNL     1     -13.623 -44.804  27.948  1.00  0.00     0.091 C 
ATOM     24  C   UNL     1     -12.857 -45.965  27.402  1.00  0.00     0.142 C 
ATOM     25  C   UNL     1     -13.665 -44.740  29.459  1.00  0.00     0.209 C 
ATOM     26  C   UNL     1     -11.591 -46.237  28.164  1.00  0.00     0.185 C 
ATOM     27  C   UNL     1     -12.359 -44.919  30.149  1.00  0.00     0.054 A 
ATOM     28  C   UNL     1     -11.405 -45.625  29.516  1.00  0.00     0.097 A 
ATOM     29  C   UNL     1     -12.087 -44.388  31.489  1.00  0.00    -0.032 A 
ATOM     30  N   UNL     1     -10.186 -45.849  30.119  1.00  0.00    -0.319 N 
ATOM     31  C   UNL     1     -10.889 -44.612  32.064  1.00  0.00     0.075 A 
ATOM     32  C   UNL     1      -9.844 -45.396  31.363  1.00  0.00     0.248 A 
ATOM     33  O   UNL     1     -14.730 -44.580  30.033  1.00  0.00    -0.287 OA
ATOM     34  O   UNL     1     -10.715 -46.973  27.709  1.00  0.00    -0.292 OA
ATOM     35  C   UNL     1     -13.132 -43.576  32.202  1.00  0.00     0.045 C 
ATOM     36  H   UNL     1      -9.493 -46.404  29.621  1.00  0.00     0.170 HD
ATOM     37  O   UNL     1      -8.756 -45.613  31.881  1.00  0.00    -0.270 OA
ENDBRANCH  22  23
ENDBRANCH  21  22
ENDBRANCH  20  21
ENDBRANCH   1  20
TORSDOF 7
ENDMDL
MODEL 3
REMARK VINA RESULT:   -11.363      3.530     10.652
REMARK INTER + INTRA:         -17.060
REMARK INTER:                 -16.179
REMARK INTRA:                  -0.881
REMARK UNBOUND:                -1.047
REMARK SMILES Cc1cc(=O)[nH]c2c1C(=O)C(=NCCCCN=c1c3c([nH]c4cc(Cl)ccc14)CCCC3)CC2=O
REMARK SMILES IDX 15 1 16 2 17 3 18 4 21 5 20 6 22 7 19 8 29 9 23 10 28 11
REMARK SMILES IDX 32 12 30 13 24 14 27 15 31 16 26 17 25 19 14 20 13 21 12 22
REMARK SMILES IDX 11 23 33 24 9 25 34 26 8 27 7 28 2 29 6 30 3 31 4 32 10 33
REMARK SMILES IDX 35 34 1 35 5 37
REMARK H PARENT 21 18 6 36
ROOT
ATOM      1  C   UNL     1     -14.848 -42.707  24.963  1.00  0.00     0.025 C 
ENDROOT
BRANCH   1   2
ATOM      2  C   UNL     1     -16.134 -42.993  24.188  1.00  0.00     0.143 C 
BRANCH   2   3
ATOM      3  N   UNL     1     -17.174 -42.074  24.596  1.00  0.00    -0.284 NA
BRANCH   3   4
ATOM      4  C   UNL     1     -18.419 -42.100  24.290  1.00  0.00     0.072 A 
ATOM      5  N   UNL     1     -21.054 -42.953  23.685  1.00  0.00    -0.358 N 
ATOM      6  C   UNL     1     -20.368 -42.166  22.783  1.00  0.00     0.021 A 
ATOM      7  C   UNL     1     -20.620 -43.063  25.012  1.00  0.00     0.049 A 
ATOM      8  C   UNL     1     -19.119 -41.691  23.005  1.00  0.00    -0.003 A 
ATOM      9  C   UNL     1     -21.136 -41.838  21.515  1.00  0.00     0.054 C 
ATOM     10  C   UNL     1     -21.436 -43.654  25.983  1.00  0.00     0.047 A 
ATOM     11  C   UNL     1     -19.327 -42.650  25.360  1.00  0.00     0.024 A 
ATOM     12  C   UNL     1     -18.461 -40.722  22.061  1.00  0.00     0.039 C 
ATOM     13  C   UNL     1     -20.298 -41.177  20.424  1.00  0.00     0.007 C 
ATOM     14  C   UNL     1     -20.978 -43.791  27.293  1.00  0.00     0.043 A 
ATOM     15  C   UNL     1     -18.873 -42.796  26.679  1.00  0.00     0.014 A 
ATOM     16  C   UNL     1     -19.406 -40.106  21.027  1.00  0.00     0.005 C 
ATOM     17  C   UNL     1     -19.703 -43.361  27.649  1.00  0.00     0.021 A 
ATOM     18  H   UNL     1     -22.048 -43.075  23.518  1.00  0.00     0.166 HD
ATOM     19  Cl  UNL     1     -21.999 -44.504  28.481  1.00  0.00    -0.084 Cl
ENDBRANCH   3   4
ENDBRANCH   2   3
ENDBRANCH   1   2
BRANCH   1  20
ATOM     20  C   UNL     1     -14.969 -43.004  26.459  1.00  0.00     0.025 C 
BRANCH  20  21
ATOM     21  C   UNL     1     -14.199 -44.250  26.894  1.00  0.00     0.142 C 
BRANCH  21  22
ATOM     22  N   UNL     1     -13.414 -43.906  28.075  1.00  0.00    -0.285 NA
BRANCH  22  23
ATOM     23  C   UNL     1     -12.126 -43.914  28.003  1.00  0.00     0.091 C 
ATOM     24  C   UNL     1     -11.249 -42.978  27.235  1.00  0.00     0.142 C 
ATOM     25  C   UNL     1     -11.378 -44.984  28.768  1.00  0.00     0.209 C 
ATOM     26  C   UNL     1     -10.015 -42.582  27.994  1.00  0.00     0.185 C 
ATOM     27  C   UNL     1     -10.225 -44.509  29.579  1.00  0.00     0.054 A 
ATOM     28  C   UNL     1      -9.606 -43.379  29.193  1.00  0.00     0.097 A 
ATOM     29  C   UNL     1      -9.724 -45.235  30.752  1.00  0.00    -0.032 A 
ATOM     30  N   UNL     1      -8.513 -42.908  29.888  1.00  0.00    -0.319 N 
ATOM     31  C   UNL     1      -8.657 -44.760  31.424  1.00  0.00     0.075 A 
ATOM     32  C   UNL     1      -7.976 -43.517  30.988  1.00  0.00     0.248 A 
ATOM     33  O   UNL     1     -11.716 -46.152  28.671  1.00  0.00    -0.287 OA
ATOM     34  O   UNL     1      -9.320 -41.631  27.637  1.00  0.00    -0.292 OA
ATOM     35  C   UNL     1     -10.417 -46.486  31.214  1.00  0.00     0.045 C 
ATOM     36  H   UNL     1      -8.056 -42.061  29.558  1.00  0.00     0.170 HD
ATOM     37  O   UNL     1      -7.000 -43.083  31.587  1.00  0.00    -0.270 OA
ENDBRANCH  22  23
ENDBRANCH  21  22
ENDBRANCH  20  21
ENDBRANCH   1  20
TORSDOF 7
ENDMDL
MODEL 4
REMARK VINA RESULT:   -11.274      4.109     11.095
REMARK INTER + INTRA:         -16.934
REMARK INTER:                 -16.391
REMARK INTRA:                  -0.542
REMARK UNBOUND:                -1.047
REMARK SMILES Cc1cc(=O)[nH]c2c1C(=O)C(=NCCCCN=c1c3c([nH]c4cc(Cl)ccc14)CCCC3)CC2=O
REMARK SMILES IDX 15 1 16 2 17 3 18 4 21 5 20 6 22 7 19 8 29 9 23 10 28 11
REMARK SMILES IDX 32 12 30 13 24 14 27 15 31 16 26 17 25 19 14 20 13 21 12 22
REMARK SMILES IDX 11 23 33 24 9 25 34 26 8 27 7 28 2 29 6 30 3 31 4 32 10 33
REMARK SMILES IDX 35 34 1 35 5 37
REMARK H PARENT 21 18 6 36
ROOT
ATOM      1  C   UNL     1     -15.567 -43.155  25.366  1.00  0.00     0.025 C 
ENDROOT
BRANCH   1   2
ATOM      2  C   UNL     1     -16.970 -42.716  25.787  1.00  0.00     0.143 C 
BRANCH   2   3
ATOM      3  N   UNL     1     -17.894 -42.891  24.688  1.00  0.00    -0.284 NA
BRANCH   3   4
ATOM      4  C   UNL     1     -19.132 -42.558  24.633  1.00  0.00     0.072 A 
ATOM      5  N   UNL     1     -21.562 -41.099  24.705  1.00  0.00    -0.358 N 
ATOM      6  C   UNL     1     -21.415 -42.219  25.499  1.00  0.00     0.021 A 
ATOM      7  C   UNL     1     -20.687 -40.861  23.638  1.00  0.00     0.049 A 
ATOM      8  C   UNL     1     -20.300 -42.989  25.504  1.00  0.00    -0.003 A 
ATOM      9  C   UNL     1     -22.621 -42.551  26.357  1.00  0.00     0.054 C 
ATOM     10  C   UNL     1     -20.973 -39.872  22.690  1.00  0.00     0.047 A 
ATOM     11  C   UNL     1     -19.476 -41.561  23.557  1.00  0.00     0.024 A 
ATOM     12  C   UNL     1     -20.233 -44.279  26.276  1.00  0.00     0.039 C 
ATOM     13  C   UNL     1     -22.373 -43.635  27.402  1.00  0.00     0.007 C 
ATOM     14  C   UNL     1     -20.076 -39.618  21.652  1.00  0.00     0.043 A 
ATOM     15  C   UNL     1     -18.578 -41.295  22.513  1.00  0.00     0.014 A 
ATOM     16  C   UNL     1     -21.584 -44.779  26.790  1.00  0.00     0.005 C 
ATOM     17  C   UNL     1     -18.882 -40.327  21.555  1.00  0.00     0.021 A 
ATOM     18  H   UNL     1     -22.501 -40.724  24.619  1.00  0.00     0.166 HD
ATOM     19  Cl  UNL     1     -20.447 -38.410  20.483  1.00  0.00    -0.084 Cl
ENDBRANCH   3   4
ENDBRANCH   2   3
ENDBRANCH   1   2
BRANCH   1  20
ATOM     20  C   UNL     1     -14.689 -43.573  26.546  1.00  0.00     0.025 C 
BRANCH  20  21
ATOM     21  C   UNL     1     -13.219 -43.188  26.374  1.00  0.00     0.142 C 
BRANCH  21  22
ATOM     22  N   UNL     1     -12.635 -43.034  27.703  1.00  0.00    -0.285 NA
BRANCH  22  23
ATOM     23  C   UNL     1     -11.392 -43.326  27.886  1.00  0.00     0.091 C 
ATOM     24  C   UNL     1     -10.197 -42.587  27.377  1.00  0.00     0.142 C 
ATOM     25  C   UNL     1     -11.065 -44.558  28.700  1.00  0.00     0.209 C 
ATOM     26  C   UNL     1      -9.093 -42.499  28.392  1.00  0.00     0.185 C 
ATOM     27  C   UNL     1     -10.032 -44.377  29.756  1.00  0.00     0.054 A 
ATOM     28  C   UNL     1      -9.121 -43.402  29.584  1.00  0.00     0.097 A 
ATOM     29  C   UNL     1      -9.952 -45.230  30.946  1.00  0.00    -0.032 A 
ATOM     30  N   UNL     1      -8.123 -43.207  30.515  1.00  0.00    -0.319 N 
ATOM     31  C   UNL     1      -8.973 -45.025  31.849  1.00  0.00     0.075 A 
ATOM     32  C   UNL     1      -7.968 -43.953  31.650  1.00  0.00     0.248 A 
ATOM     33  O   UNL     1     -11.615 -45.618  28.451  1.00  0.00    -0.287 OA
ATOM     34  O   UNL     1      -8.152 -41.717  28.250  1.00  0.00    -0.292 OA
ATOM     35  C   UNL     1     -10.976 -46.309  31.168  1.00  0.00     0.045 C 
ATOM     36  H   UNL     1      -7.438 -42.474  30.345  1.00  0.00     0.170 HD
ATOM     37  O   UNL     1      -7.069 -43.765  32.460  1.00  0.00    -0.270 OA
ENDBRANCH  22  23
ENDBRANCH  21  22
ENDBRANCH  20  21
ENDBRANCH   1  20
TORSDOF 7
ENDMDL
MODEL 5
REMARK VINA RESULT:   -11.233      1.725      3.072
REMARK INTER + INTRA:         -16.877
REMARK INTER:                 -16.199
REMARK INTRA:                  -0.678
REMARK UNBOUND:                -1.047
REMARK SMILES Cc1cc(=O)[nH]c2c1C(=O)C(=NCCCCN=c1c3c([nH]c4cc(Cl)ccc14)CCCC3)CC2=O
REMARK SMILES IDX 15 1 16 2 17 3 18 4 21 5 20 6 22 7 19 8 29 9 23 10 28 11
REMARK SMILES IDX 32 12 30 13 24 14 27 15 31 16 26 17 25 19 14 20 13 21 12 22
REMARK SMILES IDX 11 23 33 24 9 25 34 26 8 27 7 28 2 29 6 30 3 31 4 32 10 33
REMARK SMILES IDX 35 34 1 35 5 37
REMARK H PARENT 21 18 6 36
ROOT
ATOM      1  C   UNL     1     -13.982 -44.319  27.494  1.00  0.00     0.025 C 
ENDROOT
BRANCH   1   2
ATOM      2  C   UNL     1     -12.793 -44.843  28.299  1.00  0.00     0.143 C 
BRANCH   2   3
ATOM      3  N   UNL     1     -13.124 -44.877  29.706  1.00  0.00    -0.284 NA
BRANCH   3   4
ATOM      4  C   UNL     1     -12.356 -44.639  30.707  1.00  0.00     0.072 A 
ATOM      5  N   UNL     1     -10.745 -43.354  32.653  1.00  0.00    -0.358 N 
ATOM      6  C   UNL     1     -10.208 -44.366  31.884  1.00  0.00     0.021 A 
ATOM      7  C   UNL     1     -12.132 -43.175  32.731  1.00  0.00     0.049 A 
ATOM      8  C   UNL     1     -10.915 -45.051  30.953  1.00  0.00    -0.003 A 
ATOM      9  C   UNL     1      -8.754 -44.684  32.179  1.00  0.00     0.054 C 
ATOM     10  C   UNL     1     -12.688 -42.320  33.689  1.00  0.00     0.047 A 
ATOM     11  C   UNL     1     -12.969 -43.794  31.793  1.00  0.00     0.024 A 
ATOM     12  C   UNL     1     -10.335 -46.239  30.235  1.00  0.00     0.039 C 
ATOM     13  C   UNL     1      -8.098 -45.626  31.173  1.00  0.00     0.007 C 
ATOM     14  C   UNL     1     -14.068 -42.121  33.732  1.00  0.00     0.043 A 
ATOM     15  C   UNL     1     -14.356 -43.583  31.841  1.00  0.00     0.014 A 
ATOM     16  C   UNL     1      -9.036 -46.773  30.843  1.00  0.00     0.005 C 
ATOM     17  C   UNL     1     -14.906 -42.751  32.817  1.00  0.00     0.021 A 
ATOM     18  H   UNL     1     -10.201 -43.057  33.457  1.00  0.00     0.166 HD
ATOM     19  Cl  UNL     1     -14.740 -41.079  34.927  1.00  0.00    -0.084 Cl
ENDBRANCH   3   4
ENDBRANCH   2   3
ENDBRANCH   1   2
BRANCH   1  20
ATOM     20  C   UNL     1     -13.603 -43.206  26.516  1.00  0.00     0.025 C 
BRANCH  20  21
ATOM     21  C   UNL     1     -14.389 -43.257  25.205  1.00  0.00     0.142 C 
BRANCH  21  22
ATOM     22  N   UNL     1     -15.414 -42.218  25.253  1.00  0.00    -0.285 NA
BRANCH  22  23
ATOM     23  C   UNL     1     -16.642 -42.551  25.464  1.00  0.00     0.091 C 
ATOM     24  C   UNL     1     -17.266 -42.962  26.759  1.00  0.00     0.142 C 
ATOM     25  C   UNL     1     -17.593 -42.543  24.288  1.00  0.00     0.209 C 
ATOM     26  C   UNL     1     -18.638 -42.381  26.953  1.00  0.00     0.185 C 
ATOM     27  C   UNL     1     -18.896 -41.863  24.517  1.00  0.00     0.054 A 
ATOM     28  C   UNL     1     -19.361 -41.801  25.778  1.00  0.00     0.097 A 
ATOM     29  C   UNL     1     -19.698 -41.293  23.430  1.00  0.00    -0.032 A 
ATOM     30  N   UNL     1     -20.576 -41.211  26.047  1.00  0.00    -0.319 N 
ATOM     31  C   UNL     1     -20.884 -40.715  23.709  1.00  0.00     0.075 A 
ATOM     32  C   UNL     1     -21.392 -40.656  25.100  1.00  0.00     0.248 A 
ATOM     33  O   UNL     1     -17.280 -43.097  23.247  1.00  0.00    -0.287 OA
ATOM     34  O   UNL     1     -19.189 -42.393  28.054  1.00  0.00    -0.292 OA
ATOM     35  C   UNL     1     -19.186 -41.330  22.017  1.00  0.00     0.045 C 
ATOM     36  H   UNL     1     -20.908 -41.199  27.009  1.00  0.00     0.170 HD
ATOM     37  O   UNL     1     -22.472 -40.142  25.362  1.00  0.00    -0.270 OA
ENDBRANCH  22  23
ENDBRANCH  21  22
ENDBRANCH  20  21
ENDBRANCH   1  20
TORSDOF 7
ENDMDL
MODEL 6
REMARK VINA RESULT:   -11.230      3.150     10.699
REMARK INTER + INTRA:         -16.873
REMARK INTER:                 -16.034
REMARK INTRA:                  -0.839
REMARK UNBOUND:                -1.047
REMARK SMILES Cc1cc(=O)[nH]c2c1C(=O)C(=NCCCCN=c1c3c([nH]c4cc(Cl)ccc14)CCCC3)CC2=O
REMARK SMILES IDX 15 1 16 2 17 3 18 4 21 5 20 6 22 7 19 8 29 9 23 10 28 11
REMARK SMILES IDX 32 12 30 13 24 14 27 15 31 16 26 17 25 19 14 20 13 21 12 22
REMARK SMILES IDX 11 23 33 24 9 25 34 26 8 27 7 28 2 29 6 30 3 31 4 32 10 33
REMARK SMILES IDX 35 34 1 35 5 37
REMARK H PARENT 21 18 6 36
ROOT
ATOM      1  C   UNL     1     -15.158 -42.409  24.606  1.00  0.00     0.025 C 
ENDROOT
BRANCH   1   2
ATOM      2  C   UNL     1     -16.185 -42.514  23.478  1.00  0.00     0.143 C 
BRANCH   2   3
ATOM      3  N   UNL     1     -17.301 -41.631  23.740  1.00  0.00    -0.284 NA
BRANCH   3   4
ATOM      4  C   UNL     1     -18.552 -41.864  23.577  1.00  0.00     0.072 A 
ATOM      5  N   UNL     1     -21.069 -43.143  23.327  1.00  0.00    -0.358 N 
ATOM      6  C   UNL     1     -20.608 -42.340  22.304  1.00  0.00     0.021 A 
ATOM      7  C   UNL     1     -20.493 -43.078  24.602  1.00  0.00     0.049 A 
ATOM      8  C   UNL     1     -19.431 -41.670  22.354  1.00  0.00    -0.003 A 
ATOM      9  C   UNL     1     -21.540 -42.234  21.111  1.00  0.00     0.054 C 
ATOM     10  C   UNL     1     -21.106 -43.700  25.695  1.00  0.00     0.047 A 
ATOM     11  C   UNL     1     -19.251 -42.452  24.776  1.00  0.00     0.024 A 
ATOM     12  C   UNL     1     -19.029 -40.696  21.280  1.00  0.00     0.039 C 
ATOM     13  C   UNL     1     -20.928 -41.549  19.892  1.00  0.00     0.007 C 
ATOM     14  C   UNL     1     -20.504 -43.660  26.952  1.00  0.00     0.043 A 
ATOM     15  C   UNL     1     -18.650 -42.421  26.043  1.00  0.00     0.014 A 
ATOM     16  C   UNL     1     -20.157 -40.313  20.320  1.00  0.00     0.005 C 
ATOM     17  C   UNL     1     -19.282 -43.019  27.134  1.00  0.00     0.021 A 
ATOM     18  H   UNL     1     -22.044 -43.423  23.280  1.00  0.00     0.166 HD
ATOM     19  Cl  UNL     1     -21.278 -44.415  28.291  1.00  0.00    -0.084 Cl
ENDBRANCH   3   4
ENDBRANCH   2   3
ENDBRANCH   1   2
BRANCH   1  20
ATOM     20  C   UNL     1     -14.922 -43.735  25.329  1.00  0.00     0.025 C 
BRANCH  20  21
ATOM     21  C   UNL     1     -13.757 -43.687  26.318  1.00  0.00     0.142 C 
BRANCH  21  22
ATOM     22  N   UNL     1     -14.233 -44.195  27.601  1.00  0.00    -0.285 NA
BRANCH  22  23
ATOM     23  C   UNL     1     -13.505 -45.031  28.260  1.00  0.00     0.091 C 
ATOM     24  C   UNL     1     -12.663 -46.137  27.711  1.00  0.00     0.142 C 
ATOM     25  C   UNL     1     -13.478 -44.915  29.768  1.00  0.00     0.209 C 
ATOM     26  C   UNL     1     -11.341 -46.265  28.413  1.00  0.00     0.185 C 
ATOM     27  C   UNL     1     -12.128 -44.950  30.393  1.00  0.00     0.054 A 
ATOM     28  C   UNL     1     -11.145 -45.589  29.733  1.00  0.00     0.097 A 
ATOM     29  C   UNL     1     -11.840 -44.347  31.699  1.00  0.00    -0.032 A 
ATOM     30  N   UNL     1      -9.882 -45.678  30.278  1.00  0.00    -0.319 N 
ATOM     31  C   UNL     1     -10.600 -44.440  32.216  1.00  0.00     0.075 A 
ATOM     32  C   UNL     1      -9.523 -45.151  31.487  1.00  0.00     0.248 A 
ATOM     33  O   UNL     1     -14.523 -44.832  30.392  1.00  0.00    -0.287 OA
ATOM     34  O   UNL     1     -10.424 -46.934  27.937  1.00  0.00    -0.292 OA
ATOM     35  C   UNL     1     -12.919 -43.607  32.440  1.00  0.00     0.045 C 
ATOM     36  H   UNL     1      -9.167 -46.186  29.762  1.00  0.00     0.170 HD
ATOM     37  O   UNL     1      -8.395 -45.249  31.954  1.00  0.00    -0.270 OA
ENDBRANCH  22  23
ENDBRANCH  21  22
ENDBRANCH  20  21
ENDBRANCH   1  20
TORSDOF 7
ENDMDL
MODEL 7
REMARK VINA RESULT:   -10.119      7.047     10.322
REMARK INTER + INTRA:         -15.306
REMARK INTER:                 -12.958
REMARK INTRA:                  -2.348
REMARK UNBOUND:                -1.047
REMARK SMILES Cc1cc(=O)[nH]c2c1C(=O)C(=NCCCCN=c1c3c([nH]c4cc(Cl)ccc14)CCCC3)CC2=O
REMARK SMILES IDX 15 1 16 2 17 3 18 4 21 5 20 6 22 7 19 8 29 9 23 10 28 11
REMARK SMILES IDX 32 12 30 13 24 14 27 15 31 16 26 17 25 19 14 20 13 21 12 22
REMARK SMILES IDX 11 23 33 24 9 25 34 26 8 27 7 28 2 29 6 30 3 31 4 32 10 33
REMARK SMILES IDX 35 34 1 35 5 37
REMARK H PARENT 21 18 6 36
ROOT
ATOM      1  C   UNL     1     -20.872 -44.358  25.118  1.00  0.00     0.025 C 
ENDROOT
BRANCH   1   2
ATOM      2  C   UNL     1     -20.514 -43.496  26.329  1.00  0.00     0.143 C 
BRANCH   2   3
ATOM      3  N   UNL     1     -19.989 -42.221  25.892  1.00  0.00    -0.284 NA
BRANCH   3   4
ATOM      4  C   UNL     1     -19.060 -41.998  25.035  1.00  0.00     0.072 A 
ATOM      5  N   UNL     1     -17.486 -41.965  22.678  1.00  0.00    -0.358 N 
ATOM      6  C   UNL     1     -16.931 -42.406  23.862  1.00  0.00     0.021 A 
ATOM      7  C   UNL     1     -18.679 -41.232  22.677  1.00  0.00     0.049 A 
ATOM      8  C   UNL     1     -17.603 -42.428  25.038  1.00  0.00    -0.003 A 
ATOM      9  C   UNL     1     -15.482 -42.846  23.759  1.00  0.00     0.054 C 
ATOM     10  C   UNL     1     -19.114 -40.577  21.519  1.00  0.00     0.047 A 
ATOM     11  C   UNL     1     -19.489 -41.215  23.821  1.00  0.00     0.024 A 
ATOM     12  C   UNL     1     -16.922 -42.782  26.332  1.00  0.00     0.039 C 
ATOM     13  C   UNL     1     -14.948 -43.553  25.001  1.00  0.00     0.007 C 
ATOM     14  C   UNL     1     -20.322 -39.881  21.521  1.00  0.00     0.043 A 
ATOM     15  C   UNL     1     -20.705 -40.516  23.812  1.00  0.00     0.014 A 
ATOM     16  C   UNL     1     -15.395 -42.819  26.253  1.00  0.00     0.005 C 
ATOM     17  C   UNL     1     -21.119 -39.842  22.662  1.00  0.00     0.021 A 
ATOM     18  H   UNL     1     -16.842 -41.790  21.912  1.00  0.00     0.166 HD
ATOM     19  Cl  UNL     1     -20.837 -39.066  20.094  1.00  0.00    -0.084 Cl
ENDBRANCH   3   4
ENDBRANCH   2   3
ENDBRANCH   1   2
BRANCH   1  20
ATOM     20  C   UNL     1     -21.294 -45.779  25.494  1.00  0.00     0.025 C 
BRANCH  20  21
ATOM     21  C   UNL     1     -22.489 -46.290  24.690  1.00  0.00     0.142 C 
BRANCH  21  22
ATOM     22  N   UNL     1     -23.575 -46.568  25.626  1.00  0.00    -0.285 NA
BRANCH  22  23
ATOM     23  C   UNL     1     -24.051 -45.610  26.346  1.00  0.00     0.091 C 
ATOM     24  C   UNL     1     -24.109 -45.534  27.838  1.00  0.00     0.142 C 
ATOM     25  C   UNL     1     -24.631 -44.407  25.636  1.00  0.00     0.209 C 
ATOM     26  C   UNL     1     -23.778 -44.166  28.363  1.00  0.00     0.185 C 
ATOM     27  C   UNL     1     -24.185 -43.082  26.143  1.00  0.00     0.054 A 
ATOM     28  C   UNL     1     -23.789 -42.999  27.426  1.00  0.00     0.097 A 
ATOM     29  C   UNL     1     -24.189 -41.871  25.316  1.00  0.00    -0.032 A 
ATOM     30  N   UNL     1     -23.393 -41.791  27.959  1.00  0.00    -0.319 N 
ATOM     31  C   UNL     1     -23.797 -40.698  25.850  1.00  0.00     0.075 A 
ATOM     32  C   UNL     1     -23.367 -40.613  27.266  1.00  0.00     0.248 A 
ATOM     33  O   UNL     1     -25.435 -44.563  24.732  1.00  0.00    -0.287 OA
ATOM     34  O   UNL     1     -23.522 -43.980  29.553  1.00  0.00    -0.292 OA
ATOM     35  C   UNL     1     -24.606 -41.947  23.873  1.00  0.00     0.045 C 
ATOM     36  H   UNL     1     -23.119 -41.760  28.938  1.00  0.00     0.170 HD
ATOM     37  O   UNL     1     -23.017 -39.549  27.763  1.00  0.00    -0.270 OA
ENDBRANCH  22  23
ENDBRANCH  21  22
ENDBRANCH  20  21
ENDBRANCH   1  20
TORSDOF 7
ENDMDL
MODEL 8
REMARK VINA RESULT:   -10.059      5.463     11.307
REMARK INTER + INTRA:         -15.221
REMARK INTER:                 -13.051
REMARK INTRA:                  -2.170
REMARK UNBOUND:                -1.047
REMARK SMILES Cc1cc(=O)[nH]c2c1C(=O)C(=NCCCCN=c1c3c([nH]c4cc(Cl)ccc14)CCCC3)CC2=O
REMARK SMILES IDX 15 1 16 2 17 3 18 4 21 5 20 6 22 7 19 8 29 9 23 10 28 11
REMARK SMILES IDX 32 12 30 13 24 14 27 15 31 16 26 17 25 19 14 20 13 21 12 22
REMARK SMILES IDX 11 23 33 24 9 25 34 26 8 27 7 28 2 29 6 30 3 31 4 32 10 33
REMARK SMILES IDX 35 34 1 35 5 37
REMARK H PARENT 21 18 6 36
ROOT
ATOM      1  C   UNL     1     -21.550 -45.150  24.888  1.00  0.00     0.025 C 
ENDROOT
BRANCH   1   2
ATOM      2  C   UNL     1     -23.022 -45.208  24.482  1.00  0.00     0.143 C 
BRANCH   2   3
ATOM      3  N   UNL     1     -23.409 -43.970  23.841  1.00  0.00    -0.284 NA
BRANCH   3   4
ATOM      4  C   UNL     1     -23.104 -42.772  24.184  1.00  0.00     0.072 A 
ATOM      5  N   UNL     1     -21.685 -40.439  24.945  1.00  0.00    -0.358 N 
ATOM      6  C   UNL     1     -22.708 -40.906  25.745  1.00  0.00     0.021 A 
ATOM      7  C   UNL     1     -21.553 -40.882  23.624  1.00  0.00     0.049 A 
ATOM      8  C   UNL     1     -23.455 -41.995  25.442  1.00  0.00    -0.003 A 
ATOM      9  C   UNL     1     -22.962 -40.084  26.996  1.00  0.00     0.054 C 
ATOM     10  C   UNL     1     -20.680 -40.239  22.739  1.00  0.00     0.047 A 
ATOM     11  C   UNL     1     -22.238 -42.029  23.200  1.00  0.00     0.024 A 
ATOM     12  C   UNL     1     -24.649 -42.390  26.266  1.00  0.00     0.039 C 
ATOM     13  C   UNL     1     -23.920 -40.732  27.992  1.00  0.00     0.007 C 
ATOM     14  C   UNL     1     -20.528 -40.713  21.436  1.00  0.00     0.043 A 
ATOM     15  C   UNL     1     -22.075 -42.502  21.889  1.00  0.00     0.014 A 
ATOM     16  C   UNL     1     -25.112 -41.324  27.261  1.00  0.00     0.005 C 
ATOM     17  C   UNL     1     -21.225 -41.838  21.004  1.00  0.00     0.021 A 
ATOM     18  H   UNL     1     -21.337 -39.507  25.151  1.00  0.00     0.166 HD
ATOM     19  Cl  UNL     1     -19.464 -39.901  20.354  1.00  0.00    -0.084 Cl
ENDBRANCH   3   4
ENDBRANCH   2   3
ENDBRANCH   1   2
BRANCH   1  20
ATOM     20  C   UNL     1     -21.336 -45.275  26.397  1.00  0.00     0.025 C 
BRANCH  20  21
ATOM     21  C   UNL     1     -20.859 -43.978  27.050  1.00  0.00     0.142 C 
BRANCH  21  22
ATOM     22  N   UNL     1     -20.089 -43.231  26.060  1.00  0.00    -0.285 NA
BRANCH  22  23
ATOM     23  C   UNL     1     -18.994 -42.651  26.417  1.00  0.00     0.091 C 
ATOM     24  C   UNL     1     -18.635 -42.134  27.773  1.00  0.00     0.142 C 
ATOM     25  C   UNL     1     -17.924 -42.444  25.367  1.00  0.00     0.209 C 
ATOM     26  C   UNL     1     -17.207 -42.417  28.144  1.00  0.00     0.185 C 
ATOM     27  C   UNL     1     -16.545 -42.838  25.766  1.00  0.00     0.054 A 
ATOM     28  C   UNL     1     -16.239 -42.817  27.076  1.00  0.00     0.097 A 
ATOM     29  C   UNL     1     -15.513 -43.213  24.795  1.00  0.00    -0.032 A 
ATOM     30  N   UNL     1     -14.969 -43.143  27.501  1.00  0.00    -0.319 N 
ATOM     31  C   UNL     1     -14.277 -43.533  25.226  1.00  0.00     0.075 A 
ATOM     32  C   UNL     1     -13.944 -43.501  26.671  1.00  0.00     0.248 A 
ATOM     33  O   UNL     1     -18.214 -41.955  24.289  1.00  0.00    -0.287 OA
ATOM     34  O   UNL     1     -16.811 -42.303  29.304  1.00  0.00    -0.292 OA
ATOM     35  C   UNL     1     -15.843 -43.267  23.329  1.00  0.00     0.045 C 
ATOM     36  H   UNL     1     -14.765 -43.097  28.497  1.00  0.00     0.170 HD
ATOM     37  O   UNL     1     -12.821 -43.781  27.071  1.00  0.00    -0.270 OA
ENDBRANCH  22  23
ENDBRANCH  21  22
ENDBRANCH  20  21
ENDBRANCH   1  20
TORSDOF 7
ENDMDL
