MODEL 1
REMARK VINA RESULT:   -11.791      0.000      0.000
REMARK INTER + INTRA:         -16.155
REMARK INTER:                 -15.582
REMARK INTRA:                  -0.573
REMARK UNBOUND:                -0.573
REMARK SMILES O=c1c2ccc(Cl)cc2nc(O)n1CC[C@H]1CC[N@@H+](Cc2ccccc2)CC1
REMARK SMILES IDX 14 1 13 2 11 3 10 4 9 5 2 6 8 7 3 8 6 9 4 10 5 11 1 12 7 13
REMARK SMILES IDX 12 14 15 16 16 17 28 18 17 19 27 20 18 21 19 22 20 24 21 25
REMARK SMILES IDX 22 26 26 27 23 28 25 29 24 30
REMARK H PARENT 12 15 19 23
ROOT
ATOM      1  C   UNL     1     -13.977 -43.401  26.566  1.00  0.00     0.131 C 
ENDROOT
BRANCH   1   2
ATOM      2  N   UNL     1     -15.308 -43.071  26.079  1.00  0.00    -0.262 N 
ATOM      3  C   UNL     1     -15.594 -43.012  24.741  1.00  0.00     0.297 A 
ATOM      4  N   UNL     1     -16.722 -42.697  24.215  1.00  0.00    -0.197 NA
ATOM      5  C   UNL     1     -17.770 -42.374  25.090  1.00  0.00     0.083 A 
ATOM      6  C   UNL     1     -16.270 -42.705  27.013  1.00  0.00     0.264 A 
ATOM      7  C   UNL     1     -19.018 -42.050  24.556  1.00  0.00     0.049 A 
ATOM      8  C   UNL     1     -17.602 -42.358  26.477  1.00  0.00     0.066 A 
ATOM      9  C   UNL     1     -20.077 -41.717  25.402  1.00  0.00     0.043 A 
ATOM     10  C   UNL     1     -18.660 -42.022  27.331  1.00  0.00     0.017 A 
ATOM     11  C   UNL     1     -19.903 -41.701  26.786  1.00  0.00     0.021 A 
ATOM     12  O   UNL     1     -16.050 -42.653  28.223  1.00  0.00    -0.268 OA
ATOM     13  Cl  UNL     1     -21.611 -41.320  24.734  1.00  0.00    -0.084 Cl
BRANCH   3  14
ATOM     14  O   UNL     1     -14.586 -43.314  23.910  1.00  0.00    -0.480 OA
ATOM     15  H   UNL     1     -14.062 -42.501  23.794  1.00  0.00     0.296 HD
ENDBRANCH   3  14
ENDBRANCH   1   2
BRANCH   1  16
ATOM     16  C   UNL     1     -13.923 -44.823  27.130  1.00  0.00     0.026 C 
BRANCH  16  17
ATOM     17  C   UNL     1     -12.550 -45.371  27.581  1.00  0.00     0.002 C 
ATOM     18  C   UNL     1     -11.561 -44.276  28.010  1.00  0.00     0.065 C 
ATOM     19  C   UNL     1     -12.605 -46.533  28.581  1.00  0.00     0.065 C 
ATOM     20  C   UNL     1     -11.586 -43.917  29.486  1.00  0.00     0.262 C 
ATOM     21  C   UNL     1     -12.572 -46.143  30.054  1.00  0.00     0.262 C 
ATOM     22  N   UNL     1     -11.451 -45.170  30.311  1.00  0.00    -0.331 N 
ATOM     23  H   UNL     1     -10.576 -45.633  30.037  1.00  0.00     0.348 HD
BRANCH  22  24
ATOM     24  C   UNL     1     -11.296 -44.832  31.782  1.00  0.00     0.299 C 
BRANCH  24  25
ATOM     25  C   UNL     1      -9.904 -44.391  32.142  1.00  0.00     0.006 A 
ATOM     26  C   UNL     1      -9.699 -43.258  32.945  1.00  0.00     0.009 A 
ATOM     27  C   UNL     1      -8.788 -45.117  31.694  1.00  0.00     0.009 A 
ATOM     28  C   UNL     1      -8.407 -42.867  33.298  1.00  0.00     0.001 A 
ATOM     29  C   UNL     1      -7.499 -44.722  32.050  1.00  0.00     0.001 A 
ATOM     30  C   UNL     1      -7.309 -43.599  32.853  1.00  0.00     0.000 A 
ENDBRANCH  24  25
ENDBRANCH  22  24
ENDBRANCH  16  17
ENDBRANCH   1  16
TORSDOF 6
ENDMDL
MODEL 2
REMARK VINA RESULT:   -11.305      0.929      2.203
REMARK INTER + INTRA:         -15.513
REMARK INTER:                 -15.210
REMARK INTRA:                  -0.303
REMARK UNBOUND:                -0.573
REMARK SMILES O=c1c2ccc(Cl)cc2nc(O)n1CC[C@H]1CC[N@@H+](Cc2ccccc2)CC1
REMARK SMILES IDX 14 1 13 2 11 3 10 4 9 5 2 6 8 7 3 8 6 9 4 10 5 11 1 12 7 13
REMARK SMILES IDX 12 14 15 16 16 17 28 18 17 19 27 20 18 21 19 22 20 24 21 25
REMARK SMILES IDX 22 26 26 27 23 28 25 29 24 30
REMARK H PARENT 12 15 19 23
ROOT
ATOM      1  C   UNL     1     -14.230 -42.985  26.454  1.00  0.00     0.131 C 
ENDROOT
BRANCH   1   2
ATOM      2  N   UNL     1     -15.608 -42.716  26.069  1.00  0.00    -0.262 N 
ATOM      3  C   UNL     1     -16.598 -42.544  27.000  1.00  0.00     0.297 A 
ATOM      4  N   UNL     1     -17.842 -42.339  26.761  1.00  0.00    -0.197 NA
ATOM      5  C   UNL     1     -18.238 -42.289  25.415  1.00  0.00     0.083 A 
ATOM      6  C   UNL     1     -15.923 -42.745  24.716  1.00  0.00     0.264 A 
ATOM      7  C   UNL     1     -19.579 -42.044  25.116  1.00  0.00     0.049 A 
ATOM      8  C   UNL     1     -17.334 -42.486  24.368  1.00  0.00     0.066 A 
ATOM      9  C   UNL     1     -20.002 -41.998  23.787  1.00  0.00     0.043 A 
ATOM     10  C   UNL     1     -17.753 -42.444  23.032  1.00  0.00     0.017 A 
ATOM     11  C   UNL     1     -19.096 -42.196  22.745  1.00  0.00     0.021 A 
ATOM     12  O   UNL     1     -15.095 -42.981  23.836  1.00  0.00    -0.268 OA
ATOM     13  Cl  UNL     1     -21.657 -41.693  23.428  1.00  0.00    -0.084 Cl
BRANCH   3  14
ATOM     14  O   UNL     1     -16.214 -42.601  28.284  1.00  0.00    -0.480 OA
ATOM     15  H   UNL     1     -16.447 -41.745  28.686  1.00  0.00     0.296 HD
ENDBRANCH   3  14
ENDBRANCH   1   2
BRANCH   1  16
ATOM     16  C   UNL     1     -14.093 -44.354  27.126  1.00  0.00     0.026 C 
BRANCH  16  17
ATOM     17  C   UNL     1     -12.668 -44.910  27.352  1.00  0.00     0.002 C 
ATOM     18  C   UNL     1     -11.707 -43.895  27.990  1.00  0.00     0.065 C 
ATOM     19  C   UNL     1     -12.602 -46.284  28.030  1.00  0.00     0.065 C 
ATOM     20  C   UNL     1     -11.651 -43.915  29.509  1.00  0.00     0.262 C 
ATOM     21  C   UNL     1     -12.490 -46.270  29.549  1.00  0.00     0.262 C 
ATOM     22  N   UNL     1     -11.402 -45.323  29.984  1.00  0.00    -0.331 N 
ATOM     23  H   UNL     1     -10.526 -45.648  29.557  1.00  0.00     0.348 HD
BRANCH  22  24
ATOM     24  C   UNL     1     -11.166 -45.352  31.482  1.00  0.00     0.299 C 
BRANCH  24  25
ATOM     25  C   UNL     1      -9.802 -44.853  31.874  1.00  0.00     0.006 A 
ATOM     26  C   UNL     1      -8.649 -45.569  31.517  1.00  0.00     0.009 A 
ATOM     27  C   UNL     1      -9.661 -43.652  32.589  1.00  0.00     0.009 A 
ATOM     28  C   UNL     1      -7.385 -45.089  31.860  1.00  0.00     0.001 A 
ATOM     29  C   UNL     1      -8.395 -43.176  32.929  1.00  0.00     0.001 A 
ATOM     30  C   UNL     1      -7.258 -43.894  32.563  1.00  0.00     0.000 A 
ENDBRANCH  24  25
ENDBRANCH  22  24
ENDBRANCH  16  17
ENDBRANCH   1  16
TORSDOF 6
ENDMDL
MODEL 3
REMARK VINA RESULT:   -10.371      3.755      9.950
REMARK INTER + INTRA:         -14.278
REMARK INTER:                 -13.765
REMARK INTRA:                  -0.513
REMARK UNBOUND:                -0.573
REMARK SMILES O=c1c2ccc(Cl)cc2nc(O)n1CC[C@H]1CC[N@@H+](Cc2ccccc2)CC1
REMARK SMILES IDX 14 1 13 2 11 3 10 4 9 5 2 6 8 7 3 8 6 9 4 10 5 11 1 12 7 13
REMARK SMILES IDX 12 14 15 16 16 17 28 18 17 19 27 20 18 21 19 22 20 24 21 25
REMARK SMILES IDX 22 26 26 27 23 28 25 29 24 30
REMARK H PARENT 12 15 19 23
ROOT
ATOM      1  C   UNL     1     -12.410 -45.467  28.697  1.00  0.00     0.131 C 
ENDROOT
BRANCH   1   2
ATOM      2  N   UNL     1     -11.969 -44.821  29.925  1.00  0.00    -0.262 N 
ATOM      3  C   UNL     1     -12.857 -44.295  30.824  1.00  0.00     0.297 A 
ATOM      4  N   UNL     1     -12.566 -43.678  31.912  1.00  0.00    -0.197 NA
ATOM      5  C   UNL     1     -11.205 -43.517  32.215  1.00  0.00     0.083 A 
ATOM      6  C   UNL     1     -10.602 -44.651  30.115  1.00  0.00     0.264 A 
ATOM      7  C   UNL     1     -10.850 -42.873  33.401  1.00  0.00     0.049 A 
ATOM      8  C   UNL     1     -10.195 -43.974  31.363  1.00  0.00     0.066 A 
ATOM      9  C   UNL     1      -9.504 -42.692  33.723  1.00  0.00     0.043 A 
ATOM     10  C   UNL     1      -8.844 -43.793  31.680  1.00  0.00     0.017 A 
ATOM     11  C   UNL     1      -8.500 -43.149  32.869  1.00  0.00     0.021 A 
ATOM     12  O   UNL     1      -9.756 -45.023  29.302  1.00  0.00    -0.268 OA
ATOM     13  Cl  UNL     1      -9.077 -41.897  35.188  1.00  0.00    -0.084 Cl
BRANCH   3  14
ATOM     14  O   UNL     1     -14.155 -44.444  30.525  1.00  0.00    -0.480 OA
ATOM     15  H   UNL     1     -14.544 -43.552  30.499  1.00  0.00     0.296 HD
ENDBRANCH   3  14
ENDBRANCH   1   2
BRANCH   1  16
ATOM     16  C   UNL     1     -12.829 -44.439  27.643  1.00  0.00     0.026 C 
BRANCH  16  17
ATOM     17  C   UNL     1     -14.222 -44.598  26.991  1.00  0.00     0.002 C 
ATOM     18  C   UNL     1     -15.143 -43.387  27.204  1.00  0.00     0.065 C 
ATOM     19  C   UNL     1     -14.211 -45.076  25.533  1.00  0.00     0.065 C 
ATOM     20  C   UNL     1     -15.073 -42.317  26.126  1.00  0.00     0.262 C 
ATOM     21  C   UNL     1     -14.197 -43.979  24.476  1.00  0.00     0.262 C 
ATOM     22  N   UNL     1     -15.260 -42.953  24.774  1.00  0.00    -0.331 N 
ATOM     23  H   UNL     1     -16.163 -43.443  24.779  1.00  0.00     0.348 HD
BRANCH  22  24
ATOM     24  C   UNL     1     -15.371 -41.895  23.692  1.00  0.00     0.299 C 
BRANCH  24  25
ATOM     25  C   UNL     1     -16.789 -41.640  23.260  1.00  0.00     0.006 A 
ATOM     26  C   UNL     1     -17.863 -42.205  23.964  1.00  0.00     0.009 A 
ATOM     27  C   UNL     1     -17.059 -40.816  22.154  1.00  0.00     0.009 A 
ATOM     28  C   UNL     1     -19.178 -41.944  23.576  1.00  0.00     0.001 A 
ATOM     29  C   UNL     1     -18.375 -40.559  21.771  1.00  0.00     0.001 A 
ATOM     30  C   UNL     1     -19.433 -41.121  22.482  1.00  0.00     0.000 A 
ENDBRANCH  24  25
ENDBRANCH  22  24
ENDBRANCH  16  17
ENDBRANCH   1  16
TORSDOF 6
ENDMDL
MODEL 4
REMARK VINA RESULT:   -10.209      3.781     10.208
REMARK INTER + INTRA:         -14.064
REMARK INTER:                 -13.423
REMARK INTRA:                  -0.642
REMARK UNBOUND:                -0.573
REMARK SMILES O=c1c2ccc(Cl)cc2nc(O)n1CC[C@H]1CC[N@@H+](Cc2ccccc2)CC1
REMARK SMILES IDX 14 1 13 2 11 3 10 4 9 5 2 6 8 7 3 8 6 9 4 10 5 11 1 12 7 13
REMARK SMILES IDX 12 14 15 16 16 17 28 18 17 19 27 20 18 21 19 22 20 24 21 25
REMARK SMILES IDX 22 26 26 27 23 28 25 29 24 30
REMARK H PARENT 12 15 19 23
ROOT
ATOM      1  C   UNL     1     -13.652 -44.581  27.079  1.00  0.00     0.131 C 
ENDROOT
BRANCH   1   2
ATOM      2  N   UNL     1     -12.502 -44.434  27.960  1.00  0.00    -0.262 N 
ATOM      3  C   UNL     1     -11.676 -43.343  27.894  1.00  0.00     0.297 A 
ATOM      4  N   UNL     1     -10.623 -43.141  28.599  1.00  0.00    -0.197 NA
ATOM      5  C   UNL     1     -10.272 -44.132  29.529  1.00  0.00     0.083 A 
ATOM      6  C   UNL     1     -12.193 -45.491  28.807  1.00  0.00     0.264 A 
ATOM      7  C   UNL     1      -9.147 -43.936  30.330  1.00  0.00     0.049 A 
ATOM      8  C   UNL     1     -11.008 -45.312  29.670  1.00  0.00     0.066 A 
ATOM      9  C   UNL     1      -8.770 -44.909  31.257  1.00  0.00     0.043 A 
ATOM     10  C   UNL     1     -10.633 -46.293  30.596  1.00  0.00     0.017 A 
ATOM     11  C   UNL     1      -9.507 -46.086  31.393  1.00  0.00     0.021 A 
ATOM     12  O   UNL     1     -12.845 -46.535  28.850  1.00  0.00    -0.268 OA
ATOM     13  Cl  UNL     1      -7.381 -44.657  32.242  1.00  0.00    -0.084 Cl
BRANCH   3  14
ATOM     14  O   UNL     1     -12.013 -42.404  26.999  1.00  0.00    -0.480 OA
ATOM     15  H   UNL     1     -11.515 -42.598  26.184  1.00  0.00     0.296 HD
ENDBRANCH   3  14
ENDBRANCH   1   2
BRANCH   1  16
ATOM     16  C   UNL     1     -14.921 -44.008  27.715  1.00  0.00     0.026 C 
BRANCH  16  17
ATOM     17  C   UNL     1     -15.466 -42.670  27.164  1.00  0.00     0.002 C 
ATOM     18  C   UNL     1     -15.296 -42.516  25.644  1.00  0.00     0.065 C 
ATOM     19  C   UNL     1     -16.876 -42.293  27.635  1.00  0.00     0.065 C 
ATOM     20  C   UNL     1     -16.462 -43.012  24.804  1.00  0.00     0.262 C 
ATOM     21  C   UNL     1     -18.020 -42.757  26.743  1.00  0.00     0.262 C 
ATOM     22  N   UNL     1     -17.741 -42.397  25.307  1.00  0.00    -0.331 N 
ATOM     23  H   UNL     1     -17.636 -41.375  25.264  1.00  0.00     0.348 HD
BRANCH  22  24
ATOM     24  C   UNL     1     -18.898 -42.731  24.384  1.00  0.00     0.299 C 
BRANCH  24  25
ATOM     25  C   UNL     1     -19.314 -41.576  23.516  1.00  0.00     0.006 A 
ATOM     26  C   UNL     1     -18.504 -41.157  22.449  1.00  0.00     0.009 A 
ATOM     27  C   UNL     1     -20.528 -40.910  23.749  1.00  0.00     0.009 A 
ATOM     28  C   UNL     1     -18.906 -40.101  21.630  1.00  0.00     0.001 A 
ATOM     29  C   UNL     1     -20.925 -39.855  22.927  1.00  0.00     0.001 A 
ATOM     30  C   UNL     1     -20.115 -39.453  21.868  1.00  0.00     0.000 A 
ENDBRANCH  24  25
ENDBRANCH  22  24
ENDBRANCH  16  17
ENDBRANCH   1  16
TORSDOF 6
ENDMDL
MODEL 5
REMARK VINA RESULT:   -10.146      3.000      4.781
REMARK INTER + INTRA:         -13.981
REMARK INTER:                 -13.550
REMARK INTRA:                  -0.431
REMARK UNBOUND:                -0.573
REMARK SMILES O=c1c2ccc(Cl)cc2nc(O)n1CC[C@H]1CC[N@@H+](Cc2ccccc2)CC1
REMARK SMILES IDX 14 1 13 2 11 3 10 4 9 5 2 6 8 7 3 8 6 9 4 10 5 11 1 12 7 13
REMARK SMILES IDX 12 14 15 16 16 17 28 18 17 19 27 20 18 21 19 22 20 24 21 25
REMARK SMILES IDX 22 26 26 27 23 28 25 29 24 30
REMARK H PARENT 12 15 19 23
ROOT
ATOM      1  C   UNL     1     -17.151 -43.063  23.859  1.00  0.00     0.131 C 
ENDROOT
BRANCH   1   2
ATOM      2  N   UNL     1     -17.847 -42.077  23.045  1.00  0.00    -0.262 N 
ATOM      3  C   UNL     1     -17.172 -41.199  22.240  1.00  0.00     0.297 A 
ATOM      4  N   UNL     1     -17.691 -40.275  21.515  1.00  0.00    -0.197 NA
ATOM      5  C   UNL     1     -19.088 -40.140  21.551  1.00  0.00     0.083 A 
ATOM      6  C   UNL     1     -19.225 -41.972  23.188  1.00  0.00     0.264 A 
ATOM      7  C   UNL     1     -19.690 -39.162  20.758  1.00  0.00     0.049 A 
ATOM      8  C   UNL     1     -19.892 -40.947  22.360  1.00  0.00     0.066 A 
ATOM      9  C   UNL     1     -21.076 -38.999  20.780  1.00  0.00     0.043 A 
ATOM     10  C   UNL     1     -21.282 -40.786  22.389  1.00  0.00     0.017 A 
ATOM     11  C   UNL     1     -21.874 -39.806  21.591  1.00  0.00     0.021 A 
ATOM     12  O   UNL     1     -19.879 -42.672  23.962  1.00  0.00    -0.268 OA
ATOM     13  Cl  UNL     1     -21.809 -37.791  19.799  1.00  0.00    -0.084 Cl
BRANCH   3  14
ATOM     14  O   UNL     1     -15.837 -41.329  22.216  1.00  0.00    -0.480 OA
ATOM     15  H   UNL     1     -15.513 -41.076  23.099  1.00  0.00     0.296 HD
ENDBRANCH   3  14
ENDBRANCH   1   2
BRANCH   1  16
ATOM     16  C   UNL     1     -16.653 -42.454  25.173  1.00  0.00     0.026 C 
BRANCH  16  17
ATOM     17  C   UNL     1     -15.134 -42.495  25.459  1.00  0.00     0.002 C 
ATOM     18  C   UNL     1     -14.793 -42.656  26.949  1.00  0.00     0.065 C 
ATOM     19  C   UNL     1     -14.326 -43.448  24.569  1.00  0.00     0.065 C 
ATOM     20  C   UNL     1     -14.637 -44.089  27.431  1.00  0.00     0.262 C 
ATOM     21  C   UNL     1     -14.140 -44.862  25.106  1.00  0.00     0.262 C 
ATOM     22  N   UNL     1     -13.669 -44.818  26.536  1.00  0.00    -0.331 N 
ATOM     23  H   UNL     1     -12.780 -44.303  26.549  1.00  0.00     0.348 HD
BRANCH  22  24
ATOM     24  C   UNL     1     -13.356 -46.196  27.090  1.00  0.00     0.299 C 
BRANCH  24  25
ATOM     25  C   UNL     1     -12.458 -46.156  28.296  1.00  0.00     0.006 A 
ATOM     26  C   UNL     1     -12.998 -46.039  29.586  1.00  0.00     0.009 A 
ATOM     27  C   UNL     1     -11.064 -46.253  28.149  1.00  0.00     0.009 A 
ATOM     28  C   UNL     1     -12.162 -46.029  30.704  1.00  0.00     0.001 A 
ATOM     29  C   UNL     1     -10.234 -46.242  29.270  1.00  0.00     0.001 A 
ATOM     30  C   UNL     1     -10.782 -46.132  30.545  1.00  0.00     0.000 A 
ENDBRANCH  24  25
ENDBRANCH  22  24
ENDBRANCH  16  17
ENDBRANCH   1  16
TORSDOF 6
ENDMDL
MODEL 6
REMARK VINA RESULT:    -9.852      2.904      4.882
REMARK INTER + INTRA:         -13.593
REMARK INTER:                 -13.321
REMARK INTRA:                  -0.272
REMARK UNBOUND:                -0.573
REMARK SMILES O=c1c2ccc(Cl)cc2nc(O)n1CC[C@H]1CC[N@@H+](Cc2ccccc2)CC1
REMARK SMILES IDX 14 1 13 2 11 3 10 4 9 5 2 6 8 7 3 8 6 9 4 10 5 11 1 12 7 13
REMARK SMILES IDX 12 14 15 16 16 17 28 18 17 19 27 20 18 21 19 22 20 24 21 25
REMARK SMILES IDX 22 26 26 27 23 28 25 29 24 30
REMARK H PARENT 12 15 19 23
ROOT
ATOM      1  C   UNL     1     -17.369 -43.140  23.999  1.00  0.00     0.131 C 
ENDROOT
BRANCH   1   2
ATOM      2  N   UNL     1     -18.552 -42.389  23.600  1.00  0.00    -0.262 N 
ATOM      3  C   UNL     1     -19.813 -42.788  23.951  1.00  0.00     0.297 A 
ATOM      4  N   UNL     1     -20.914 -42.216  23.620  1.00  0.00    -0.197 NA
ATOM      5  C   UNL     1     -20.825 -41.072  22.812  1.00  0.00     0.083 A 
ATOM      6  C   UNL     1     -18.376 -41.304  22.750  1.00  0.00     0.264 A 
ATOM      7  C   UNL     1     -21.999 -40.409  22.451  1.00  0.00     0.049 A 
ATOM      8  C   UNL     1     -19.600 -40.581  22.352  1.00  0.00     0.066 A 
ATOM      9  C   UNL     1     -21.941 -39.274  21.643  1.00  0.00     0.043 A 
ATOM     10  C   UNL     1     -19.536 -39.443  21.538  1.00  0.00     0.017 A 
ATOM     11  C   UNL     1     -20.716 -38.788  21.184  1.00  0.00     0.021 A 
ATOM     12  O   UNL     1     -17.275 -40.949  22.327  1.00  0.00    -0.268 OA
ATOM     13  Cl  UNL     1     -23.394 -38.463  21.204  1.00  0.00    -0.084 Cl
BRANCH   3  14
ATOM     14  O   UNL     1     -19.891 -43.887  24.716  1.00  0.00    -0.480 OA
ATOM     15  H   UNL     1     -19.320 -43.734  25.490  1.00  0.00     0.296 HD
ENDBRANCH   3  14
ENDBRANCH   1   2
BRANCH   1  16
ATOM     16  C   UNL     1     -16.821 -42.649  25.341  1.00  0.00     0.026 C 
BRANCH  16  17
ATOM     17  C   UNL     1     -15.287 -42.628  25.532  1.00  0.00     0.002 C 
ATOM     18  C   UNL     1     -14.846 -42.793  26.995  1.00  0.00     0.065 C 
ATOM     19  C   UNL     1     -14.497 -43.535  24.579  1.00  0.00     0.065 C 
ATOM     20  C   UNL     1     -14.600 -44.223  27.445  1.00  0.00     0.262 C 
ATOM     21  C   UNL     1     -14.219 -44.946  25.082  1.00  0.00     0.262 C 
ATOM     22  N   UNL     1     -13.662 -44.900  26.481  1.00  0.00    -0.331 N 
ATOM     23  H   UNL     1     -12.796 -44.347  26.446  1.00  0.00     0.348 HD
BRANCH  22  24
ATOM     24  C   UNL     1     -13.257 -46.269  26.995  1.00  0.00     0.299 C 
BRANCH  24  25
ATOM     25  C   UNL     1     -12.432 -46.207  28.251  1.00  0.00     0.006 A 
ATOM     26  C   UNL     1     -13.049 -46.075  29.505  1.00  0.00     0.009 A 
ATOM     27  C   UNL     1     -11.032 -46.300  28.189  1.00  0.00     0.009 A 
ATOM     28  C   UNL     1     -12.282 -46.045  30.670  1.00  0.00     0.001 A 
ATOM     29  C   UNL     1     -10.270 -46.269  29.357  1.00  0.00     0.001 A 
ATOM     30  C   UNL     1     -10.895 -46.144  30.596  1.00  0.00     0.000 A 
ENDBRANCH  24  25
ENDBRANCH  22  24
ENDBRANCH  16  17
ENDBRANCH   1  16
TORSDOF 6
ENDMDL
MODEL 7
REMARK VINA RESULT:    -9.774      1.416      2.442
REMARK INTER + INTRA:         -13.490
REMARK INTER:                 -13.719
REMARK INTRA:                   0.228
REMARK UNBOUND:                -0.573
REMARK SMILES O=c1c2ccc(Cl)cc2nc(O)n1CC[C@H]1CC[N@@H+](Cc2ccccc2)CC1
REMARK SMILES IDX 14 1 13 2 11 3 10 4 9 5 2 6 8 7 3 8 6 9 4 10 5 11 1 12 7 13
REMARK SMILES IDX 12 14 15 16 16 17 28 18 17 19 27 20 18 21 19 22 20 24 21 25
REMARK SMILES IDX 22 26 26 27 23 28 25 29 24 30
REMARK H PARENT 12 15 19 23
ROOT
ATOM      1  C   UNL     1     -15.615 -43.343  27.420  1.00  0.00     0.131 C 
ENDROOT
BRANCH   1   2
ATOM      2  N   UNL     1     -16.758 -42.786  26.711  1.00  0.00    -0.262 N 
ATOM      3  C   UNL     1     -17.883 -42.368  27.369  1.00  0.00     0.297 A 
ATOM      4  N   UNL     1     -18.951 -41.899  26.832  1.00  0.00    -0.197 NA
ATOM      5  C   UNL     1     -18.979 -41.807  25.432  1.00  0.00     0.083 A 
ATOM      6  C   UNL     1     -16.725 -42.790  25.321  1.00  0.00     0.264 A 
ATOM      7  C   UNL     1     -20.113 -41.279  24.813  1.00  0.00     0.049 A 
ATOM      8  C   UNL     1     -17.911 -42.235  24.638  1.00  0.00     0.066 A 
ATOM      9  C   UNL     1     -20.171 -41.184  23.423  1.00  0.00     0.043 A 
ATOM     10  C   UNL     1     -17.965 -42.144  23.242  1.00  0.00     0.017 A 
ATOM     11  C   UNL     1     -19.103 -41.614  22.635  1.00  0.00     0.021 A 
ATOM     12  O   UNL     1     -15.779 -43.233  24.670  1.00  0.00    -0.268 OA
ATOM     13  Cl  UNL     1     -21.574 -40.531  22.670  1.00  0.00    -0.084 Cl
BRANCH   3  14
ATOM     14  O   UNL     1     -17.853 -42.466  28.706  1.00  0.00    -0.480 OA
ATOM     15  H   UNL     1     -17.825 -43.416  28.919  1.00  0.00     0.296 HD
ENDBRANCH   3  14
ENDBRANCH   1   2
BRANCH   1  16
ATOM     16  C   UNL     1     -14.293 -42.907  26.782  1.00  0.00     0.026 C 
BRANCH  16  17
ATOM     17  C   UNL     1     -13.090 -43.873  26.881  1.00  0.00     0.002 C 
ATOM     18  C   UNL     1     -11.854 -43.248  27.548  1.00  0.00     0.065 C 
ATOM     19  C   UNL     1     -13.412 -45.266  27.437  1.00  0.00     0.065 C 
ATOM     20  C   UNL     1     -11.764 -43.430  29.055  1.00  0.00     0.262 C 
ATOM     21  C   UNL     1     -13.259 -45.431  28.944  1.00  0.00     0.262 C 
ATOM     22  N   UNL     1     -11.928 -44.888  29.396  1.00  0.00    -0.331 N 
ATOM     23  H   UNL     1     -11.199 -45.412  28.895  1.00  0.00     0.348 HD
BRANCH  22  24
ATOM     24  C   UNL     1     -11.669 -45.129  30.871  1.00  0.00     0.299 C 
BRANCH  24  25
ATOM     25  C   UNL     1     -10.205 -45.200  31.209  1.00  0.00     0.006 A 
ATOM     26  C   UNL     1      -9.573 -44.140  31.876  1.00  0.00     0.009 A 
ATOM     27  C   UNL     1      -9.452 -46.339  30.876  1.00  0.00     0.009 A 
ATOM     28  C   UNL     1      -8.220 -44.221  32.211  1.00  0.00     0.001 A 
ATOM     29  C   UNL     1      -8.101 -46.415  31.213  1.00  0.00     0.001 A 
ATOM     30  C   UNL     1      -7.487 -45.358  31.881  1.00  0.00     0.000 A 
ENDBRANCH  24  25
ENDBRANCH  22  24
ENDBRANCH  16  17
ENDBRANCH   1  16
TORSDOF 6
ENDMDL
MODEL 8
REMARK VINA RESULT:    -9.543      2.621      4.297
REMARK INTER + INTRA:         -13.185
REMARK INTER:                 -12.786
REMARK INTRA:                  -0.398
REMARK UNBOUND:                -0.573
REMARK SMILES O=c1c2ccc(Cl)cc2nc(O)n1CC[C@H]1CC[N@@H+](Cc2ccccc2)CC1
REMARK SMILES IDX 14 1 13 2 11 3 10 4 9 5 2 6 8 7 3 8 6 9 4 10 5 11 1 12 7 13
REMARK SMILES IDX 12 14 15 16 16 17 28 18 17 19 27 20 18 21 19 22 20 24 21 25
REMARK SMILES IDX 22 26 26 27 23 28 25 29 24 30
REMARK H PARENT 12 15 19 23
ROOT
ATOM      1  C   UNL     1     -17.384 -43.153  24.511  1.00  0.00     0.131 C 
ENDROOT
BRANCH   1   2
ATOM      2  N   UNL     1     -18.690 -42.510  24.534  1.00  0.00    -0.262 N 
ATOM      3  C   UNL     1     -19.397 -42.269  23.387  1.00  0.00     0.297 A 
ATOM      4  N   UNL     1     -20.534 -41.679  23.302  1.00  0.00    -0.197 NA
ATOM      5  C   UNL     1     -21.115 -41.228  24.497  1.00  0.00     0.083 A 
ATOM      6  C   UNL     1     -19.161 -42.040  25.754  1.00  0.00     0.264 A 
ATOM      7  C   UNL     1     -22.362 -40.603  24.447  1.00  0.00     0.049 A 
ATOM      8  C   UNL     1     -20.480 -41.376  25.733  1.00  0.00     0.066 A 
ATOM      9  C   UNL     1     -22.958 -40.137  25.619  1.00  0.00     0.043 A 
ATOM     10  C   UNL     1     -21.072 -40.908  26.912  1.00  0.00     0.017 A 
ATOM     11  C   UNL     1     -22.320 -40.286  26.851  1.00  0.00     0.021 A 
ATOM     12  O   UNL     1     -18.532 -42.147  26.807  1.00  0.00    -0.268 OA
ATOM     13  Cl  UNL     1     -24.496 -39.369  25.547  1.00  0.00    -0.084 Cl
BRANCH   3  14
ATOM     14  O   UNL     1     -18.833 -42.696  22.248  1.00  0.00    -0.480 OA
ATOM     15  H   UNL     1     -19.402 -43.406  21.899  1.00  0.00     0.296 HD
ENDBRANCH   3  14
ENDBRANCH   1   2
BRANCH   1  16
ATOM     16  C   UNL     1     -16.307 -42.215  23.958  1.00  0.00     0.026 C 
BRANCH  16  17
ATOM     17  C   UNL     1     -14.899 -42.277  24.593  1.00  0.00     0.002 C 
ATOM     18  C   UNL     1     -14.864 -41.813  26.058  1.00  0.00     0.065 C 
ATOM     19  C   UNL     1     -14.142 -43.594  24.379  1.00  0.00     0.065 C 
ATOM     20  C   UNL     1     -15.071 -42.907  27.093  1.00  0.00     0.262 C 
ATOM     21  C   UNL     1     -14.326 -44.649  25.462  1.00  0.00     0.262 C 
ATOM     22  N   UNL     1     -14.117 -44.041  26.824  1.00  0.00    -0.331 N 
ATOM     23  H   UNL     1     -13.162 -43.660  26.845  1.00  0.00     0.348 HD
BRANCH  22  24
ATOM     24  C   UNL     1     -14.174 -45.069  27.939  1.00  0.00     0.299 C 
BRANCH  24  25
ATOM     25  C   UNL     1     -12.814 -45.476  28.436  1.00  0.00     0.006 A 
ATOM     26  C   UNL     1     -12.376 -45.093  29.713  1.00  0.00     0.009 A 
ATOM     27  C   UNL     1     -11.969 -46.261  27.635  1.00  0.00     0.009 A 
ATOM     28  C   UNL     1     -11.124 -45.494  30.181  1.00  0.00     0.001 A 
ATOM     29  C   UNL     1     -10.718 -46.660  28.107  1.00  0.00     0.001 A 
ATOM     30  C   UNL     1     -10.298 -46.279  29.380  1.00  0.00     0.000 A 
ENDBRANCH  24  25
ENDBRANCH  22  24
ENDBRANCH  16  17
ENDBRANCH   1  16
TORSDOF 6
ENDMDL
MODEL 9
REMARK VINA RESULT:    -9.378      3.689      9.925
REMARK INTER + INTRA:         -12.967
REMARK INTER:                 -12.670
REMARK INTRA:                  -0.297
REMARK UNBOUND:                -0.573
REMARK SMILES O=c1c2ccc(Cl)cc2nc(O)n1CC[C@H]1CC[N@@H+](Cc2ccccc2)CC1
REMARK SMILES IDX 14 1 13 2 11 3 10 4 9 5 2 6 8 7 3 8 6 9 4 10 5 11 1 12 7 13
REMARK SMILES IDX 12 14 15 16 16 17 28 18 17 19 27 20 18 21 19 22 20 24 21 25
REMARK SMILES IDX 22 26 26 27 23 28 25 29 24 30
REMARK H PARENT 12 15 19 23
ROOT
ATOM      1  C   UNL     1     -13.221 -44.805  27.158  1.00  0.00     0.131 C 
ENDROOT
BRANCH   1   2
ATOM      2  N   UNL     1     -12.136 -44.489  28.076  1.00  0.00    -0.262 N 
ATOM      3  C   UNL     1     -11.394 -43.345  27.951  1.00  0.00     0.297 A 
ATOM      4  N   UNL     1     -10.400 -42.996  28.685  1.00  0.00    -0.197 NA
ATOM      5  C   UNL     1     -10.025 -43.872  29.716  1.00  0.00     0.083 A 
ATOM      6  C   UNL     1     -11.793 -45.440  29.029  1.00  0.00     0.264 A 
ATOM      7  C   UNL     1      -8.964 -43.515  30.549  1.00  0.00     0.049 A 
ATOM      8  C   UNL     1     -10.674 -45.091  29.928  1.00  0.00     0.066 A 
ATOM      9  C   UNL     1      -8.565 -44.370  31.577  1.00  0.00     0.043 A 
ATOM     10  C   UNL     1     -10.276 -45.954  30.956  1.00  0.00     0.017 A 
ATOM     11  C   UNL     1      -9.215 -45.587  31.784  1.00  0.00     0.021 A 
ATOM     12  O   UNL     1     -12.364 -46.526  29.135  1.00  0.00    -0.268 OA
ATOM     13  Cl  UNL     1      -7.256 -43.921  32.600  1.00  0.00    -0.084 Cl
BRANCH   3  14
ATOM     14  O   UNL     1     -11.753 -42.517  26.959  1.00  0.00    -0.480 OA
ATOM     15  H   UNL     1     -12.350 -41.853  27.347  1.00  0.00     0.296 HD
ENDBRANCH   3  14
ENDBRANCH   1   2
BRANCH   1  16
ATOM     16  C   UNL     1     -14.559 -44.261  27.665  1.00  0.00     0.026 C 
BRANCH  16  17
ATOM     17  C   UNL     1     -15.029 -42.888  27.131  1.00  0.00     0.002 C 
ATOM     18  C   UNL     1     -14.924 -42.752  25.604  1.00  0.00     0.065 C 
ATOM     19  C   UNL     1     -16.382 -42.405  27.669  1.00  0.00     0.065 C 
ATOM     20  C   UNL     1     -16.163 -43.162  24.826  1.00  0.00     0.262 C 
ATOM     21  C   UNL     1     -17.601 -42.785  26.836  1.00  0.00     0.262 C 
ATOM     22  N   UNL     1     -17.367 -42.451  25.386  1.00  0.00    -0.331 N 
ATOM     23  H   UNL     1     -17.188 -41.440  25.331  1.00  0.00     0.348 HD
BRANCH  22  24
ATOM     24  C   UNL     1     -18.590 -42.701  24.524  1.00  0.00     0.299 C 
BRANCH  24  25
ATOM     25  C   UNL     1     -19.884 -42.531  25.272  1.00  0.00     0.006 A 
ATOM     26  C   UNL     1     -20.755 -43.617  25.448  1.00  0.00     0.009 A 
ATOM     27  C   UNL     1     -20.230 -41.286  25.821  1.00  0.00     0.009 A 
ATOM     28  C   UNL     1     -21.942 -43.461  26.165  1.00  0.00     0.001 A 
ATOM     29  C   UNL     1     -21.418 -41.136  26.537  1.00  0.00     0.001 A 
ATOM     30  C   UNL     1     -22.272 -42.223  26.711  1.00  0.00     0.000 A 
ENDBRANCH  24  25
ENDBRANCH  22  24
ENDBRANCH  16  17
ENDBRANCH   1  16
TORSDOF 6
ENDMDL
