MODEL 1
REMARK VINA RESULT:    -8.828      0.000      0.000
REMARK INTER + INTRA:         -15.560
REMARK INTER:                 -13.989
REMARK INTRA:                  -1.570
REMARK UNBOUND:                -1.570
REMARK SMILES O=[N+]([O-])OCCC[NH2+]CCCNc1c2c(nc3ccccc13)CCCC2
REMARK SMILES IDX 7 1 8 2 9 5 10 6 11 7 12 8 13 10 14 11 22 12 15 13 26 14
REMARK SMILES IDX 21 15 17 16 16 17 23 18 25 19 20 20 18 21 24 22 19 23 6 24
REMARK SMILES IDX 5 25 4 26 2 27 1 28 3 29
REMARK H PARENT 8 3 8 4 12 9
ROOT
ATOM      1  C   UNL     1     -11.082 -42.789  28.756  1.00  0.00     0.262 C 
ENDROOT
BRANCH   1   2
ATOM      2  N   UNL     1     -12.255 -43.660  28.450  1.00  0.00    -0.346 N 
ATOM      3  H   UNL     1     -12.769 -43.912  29.305  1.00  0.00     0.346 HD
ATOM      4  H   UNL     1     -12.919 -43.052  27.952  1.00  0.00     0.346 HD
BRANCH   2   5
ATOM      5  C   UNL     1     -12.021 -44.862  27.601  1.00  0.00     0.262 C 
BRANCH   5   6
ATOM      6  C   UNL     1     -12.336 -46.160  28.345  1.00  0.00     0.082 C 
BRANCH   6   7
ATOM      7  C   UNL     1     -13.210 -45.998  29.593  1.00  0.00     0.118 C 
BRANCH   7   8
ATOM      8  N   UNL     1     -12.510 -46.396  30.824  1.00  0.00    -0.384 N 
ATOM      9  H   UNL     1     -13.167 -46.862  31.461  1.00  0.00     0.160 HD
BRANCH   8  10
ATOM     10  C   UNL     1     -11.847 -45.388  31.559  1.00  0.00     0.049 A 
ATOM     11  C   UNL     1     -10.437 -45.408  31.565  1.00  0.00    -0.003 A 
ATOM     12  C   UNL     1     -12.538 -44.366  32.265  1.00  0.00     0.024 A 
ATOM     13  C   UNL     1      -9.776 -44.300  32.088  1.00  0.00     0.046 A 
ATOM     14  C   UNL     1      -9.665 -46.565  30.974  1.00  0.00     0.039 C 
ATOM     15  C   UNL     1     -13.936 -44.350  32.498  1.00  0.00     0.012 A 
ATOM     16  C   UNL     1     -11.766 -43.295  32.753  1.00  0.00     0.073 A 
ATOM     17  N   UNL     1     -10.438 -43.234  32.591  1.00  0.00    -0.252 NA
ATOM     18  C   UNL     1      -8.272 -44.230  32.168  1.00  0.00     0.056 C 
ATOM     19  C   UNL     1      -8.198 -46.603  31.398  1.00  0.00     0.005 C 
ATOM     20  C   UNL     1     -14.548 -43.287  33.161  1.00  0.00     0.001 A 
ATOM     21  C   UNL     1     -12.397 -42.243  33.403  1.00  0.00     0.029 A 
ATOM     22  C   UNL     1      -7.572 -45.224  31.246  1.00  0.00     0.007 C 
ATOM     23  C   UNL     1     -13.777 -42.226  33.609  1.00  0.00     0.002 A 
ENDBRANCH   8  10
ENDBRANCH   7   8
ENDBRANCH   6   7
ENDBRANCH   5   6
ENDBRANCH   2   5
ENDBRANCH   1   2
BRANCH   1  24
ATOM     24  C   UNL     1      -9.742 -43.453  28.454  1.00  0.00     0.089 C 
BRANCH  24  25
ATOM     25  C   UNL     1      -8.567 -42.487  28.296  1.00  0.00     0.214 C 
BRANCH  25  26
ATOM     26  O   UNL     1      -8.328 -42.275  26.911  1.00  0.00    -0.314 OA
BRANCH  26  27
ATOM     27  N   UNL     1      -7.475 -41.165  26.668  1.00  0.00     0.294 N 
ATOM     28  O   UNL     1      -7.195 -40.929  25.494  1.00  0.00    -0.109 OA
ATOM     29  O   UNL     1      -7.086 -40.636  27.704  1.00  0.00    -0.109 OA
ENDBRANCH  26  27
ENDBRANCH  25  26
ENDBRANCH  24  25
ENDBRANCH   1  24
TORSDOF 10
ENDMDL
MODEL 2
REMARK VINA RESULT:    -8.793      3.384      4.270
REMARK INTER + INTRA:         -15.503
REMARK INTER:                 -14.232
REMARK INTRA:                  -1.271
REMARK UNBOUND:                -1.570
REMARK SMILES O=[N+]([O-])OCCC[NH2+]CCCNc1c2c(nc3ccccc13)CCCC2
REMARK SMILES IDX 7 1 8 2 9 5 10 6 11 7 12 8 13 10 14 11 22 12 15 13 26 14
REMARK SMILES IDX 21 15 17 16 16 17 23 18 25 19 20 20 18 21 24 22 19 23 6 24
REMARK SMILES IDX 5 25 4 26 2 27 1 28 3 29
REMARK H PARENT 8 3 8 4 12 9
ROOT
ATOM      1  C   UNL     1     -13.205 -43.139  26.579  1.00  0.00     0.262 C 
ENDROOT
BRANCH   1   2
ATOM      2  N   UNL     1     -12.891 -43.902  27.824  1.00  0.00    -0.346 N 
ATOM      3  H   UNL     1     -11.882 -43.899  28.022  1.00  0.00     0.346 HD
ATOM      4  H   UNL     1     -13.279 -43.336  28.590  1.00  0.00     0.346 HD
BRANCH   2   5
ATOM      5  C   UNL     1     -13.450 -45.277  27.951  1.00  0.00     0.262 C 
BRANCH   5   6
ATOM      6  C   UNL     1     -12.352 -46.341  27.988  1.00  0.00     0.082 C 
BRANCH   6   7
ATOM      7  C   UNL     1     -11.136 -45.990  28.852  1.00  0.00     0.118 C 
BRANCH   7   8
ATOM      8  N   UNL     1     -11.356 -46.282  30.276  1.00  0.00    -0.384 N 
ATOM      9  H   UNL     1     -12.325 -46.588  30.422  1.00  0.00     0.160 HD
BRANCH   8  10
ATOM     10  C   UNL     1     -11.089 -45.254  31.208  1.00  0.00     0.049 A 
ATOM     11  C   UNL     1      -9.739 -45.008  31.537  1.00  0.00    -0.003 A 
ATOM     12  C   UNL     1     -12.112 -44.464  31.801  1.00  0.00     0.024 A 
ATOM     13  C   UNL     1      -9.451 -43.860  32.268  1.00  0.00     0.046 A 
ATOM     14  C   UNL     1      -8.636 -45.927  31.066  1.00  0.00     0.039 C 
ATOM     15  C   UNL     1     -13.499 -44.738  31.706  1.00  0.00     0.012 A 
ATOM     16  C   UNL     1     -11.701 -43.327  32.522  1.00  0.00     0.073 A 
ATOM     17  N   UNL     1     -10.411 -43.000  32.674  1.00  0.00    -0.252 NA
ATOM     18  C   UNL     1      -8.046 -43.516  32.697  1.00  0.00     0.056 C 
ATOM     19  C   UNL     1      -7.317 -45.733  31.812  1.00  0.00     0.005 C 
ATOM     20  C   UNL     1     -14.446 -43.889  32.278  1.00  0.00     0.001 A 
ATOM     21  C   UNL     1     -12.661 -42.491  33.075  1.00  0.00     0.029 A 
ATOM     22  C   UNL     1      -6.975 -44.253  31.899  1.00  0.00     0.007 C 
ATOM     23  C   UNL     1     -14.026 -42.757  32.959  1.00  0.00     0.002 A 
ENDBRANCH   8  10
ENDBRANCH   7   8
ENDBRANCH   6   7
ENDBRANCH   5   6
ENDBRANCH   2   5
ENDBRANCH   1   2
BRANCH   1  24
ATOM     24  C   UNL     1     -14.366 -43.731  25.785  1.00  0.00     0.089 C 
BRANCH  24  25
ATOM     25  C   UNL     1     -15.733 -43.122  26.094  1.00  0.00     0.214 C 
BRANCH  25  26
ATOM     26  O   UNL     1     -15.647 -42.388  27.310  1.00  0.00    -0.314 OA
BRANCH  26  27
ATOM     27  N   UNL     1     -16.708 -42.688  28.204  1.00  0.00     0.294 N 
ATOM     28  O   UNL     1     -17.846 -42.414  27.825  1.00  0.00    -0.109 OA
ATOM     29  O   UNL     1     -16.309 -43.128  29.278  1.00  0.00    -0.109 OA
ENDBRANCH  26  27
ENDBRANCH  25  26
ENDBRANCH  24  25
ENDBRANCH   1  24
TORSDOF 10
ENDMDL
MODEL 3
REMARK VINA RESULT:    -8.603      0.769      3.713
REMARK INTER + INTRA:         -15.203
REMARK INTER:                 -14.738
REMARK INTRA:                  -0.465
REMARK UNBOUND:                -1.570
REMARK SMILES O=[N+]([O-])OCCC[NH2+]CCCNc1c2c(nc3ccccc13)CCCC2
REMARK SMILES IDX 7 1 8 2 9 5 10 6 11 7 12 8 13 10 14 11 22 12 15 13 26 14
REMARK SMILES IDX 21 15 17 16 16 17 23 18 25 19 20 20 18 21 24 22 19 23 6 24
REMARK SMILES IDX 5 25 4 26 2 27 1 28 3 29
REMARK H PARENT 8 3 8 4 12 9
ROOT
ATOM      1  C   UNL     1     -11.308 -43.702  28.321  1.00  0.00     0.262 C 
ENDROOT
BRANCH   1   2
ATOM      2  N   UNL     1     -12.620 -43.402  27.673  1.00  0.00    -0.346 N 
ATOM      3  H   UNL     1     -13.036 -42.540  28.049  1.00  0.00     0.346 HD
ATOM      4  H   UNL     1     -12.388 -43.142  26.705  1.00  0.00     0.346 HD
BRANCH   2   5
ATOM      5  C   UNL     1     -13.630 -44.496  27.618  1.00  0.00     0.262 C 
BRANCH   5   6
ATOM      6  C   UNL     1     -13.967 -45.037  29.007  1.00  0.00     0.082 C 
BRANCH   6   7
ATOM      7  C   UNL     1     -13.102 -46.213  29.474  1.00  0.00     0.118 C 
BRANCH   7   8
ATOM      8  N   UNL     1     -12.903 -46.221  30.930  1.00  0.00    -0.384 N 
ATOM      9  H   UNL     1     -13.808 -46.120  31.404  1.00  0.00     0.160 HD
BRANCH   8  10
ATOM     10  C   UNL     1     -12.026 -45.260  31.480  1.00  0.00     0.049 A 
ATOM     11  C   UNL     1     -12.600 -44.169  32.165  1.00  0.00    -0.003 A 
ATOM     12  C   UNL     1     -10.611 -45.361  31.380  1.00  0.00     0.024 A 
ATOM     13  C   UNL     1     -11.751 -43.347  32.900  1.00  0.00     0.046 A 
ATOM     14  C   UNL     1     -14.092 -43.930  32.150  1.00  0.00     0.039 C 
ATOM     15  C   UNL     1      -9.924 -46.289  30.559  1.00  0.00     0.012 A 
ATOM     16  C   UNL     1      -9.852 -44.474  32.168  1.00  0.00     0.073 A 
ATOM     17  N   UNL     1     -10.417 -43.556  32.962  1.00  0.00    -0.252 NA
ATOM     18  C   UNL     1     -12.257 -42.139  33.648  1.00  0.00     0.056 C 
ATOM     19  C   UNL     1     -14.492 -42.529  32.609  1.00  0.00     0.005 C 
ATOM     20  C   UNL     1      -8.531 -46.358  30.550  1.00  0.00     0.001 A 
ATOM     21  C   UNL     1      -8.467 -44.566  32.151  1.00  0.00     0.029 A 
ATOM     22  C   UNL     1     -13.762 -42.168  33.895  1.00  0.00     0.007 C 
ATOM     23  C   UNL     1      -7.800 -45.498  31.355  1.00  0.00     0.002 A 
ENDBRANCH   8  10
ENDBRANCH   7   8
ENDBRANCH   6   7
ENDBRANCH   5   6
ENDBRANCH   2   5
ENDBRANCH   1   2
BRANCH   1  24
ATOM     24  C   UNL     1     -10.370 -42.499  28.371  1.00  0.00     0.089 C 
BRANCH  24  25
ATOM     25  C   UNL     1      -8.918 -42.830  28.714  1.00  0.00     0.214 C 
BRANCH  25  26
ATOM     26  O   UNL     1      -8.125 -41.664  28.535  1.00  0.00    -0.314 OA
BRANCH  26  27
ATOM     27  N   UNL     1      -7.689 -41.502  27.192  1.00  0.00     0.294 N 
ATOM     28  O   UNL     1      -7.031 -40.493  26.942  1.00  0.00    -0.109 OA
ATOM     29  O   UNL     1      -8.105 -42.388  26.452  1.00  0.00    -0.109 OA
ENDBRANCH  26  27
ENDBRANCH  25  26
ENDBRANCH  24  25
ENDBRANCH   1  24
TORSDOF 10
ENDMDL
MODEL 4
REMARK VINA RESULT:    -8.353      3.429      4.167
REMARK INTER + INTRA:         -14.807
REMARK INTER:                 -14.240
REMARK INTRA:                  -0.567
REMARK UNBOUND:                -1.570
REMARK SMILES O=[N+]([O-])OCCC[NH2+]CCCNc1c2c(nc3ccccc13)CCCC2
REMARK SMILES IDX 7 1 8 2 9 5 10 6 11 7 12 8 13 10 14 11 22 12 15 13 26 14
REMARK SMILES IDX 21 15 17 16 16 17 23 18 25 19 20 20 18 21 24 22 19 23 6 24
REMARK SMILES IDX 5 25 4 26 2 27 1 28 3 29
REMARK H PARENT 8 3 8 4 12 9
ROOT
ATOM      1  C   UNL     1     -13.440 -43.047  26.534  1.00  0.00     0.262 C 
ENDROOT
BRANCH   1   2
ATOM      2  N   UNL     1     -12.901 -43.909  27.626  1.00  0.00    -0.346 N 
ATOM      3  H   UNL     1     -11.873 -43.901  27.638  1.00  0.00     0.346 HD
ATOM      4  H   UNL     1     -13.146 -43.422  28.498  1.00  0.00     0.346 HD
BRANCH   2   5
ATOM      5  C   UNL     1     -13.419 -45.303  27.726  1.00  0.00     0.262 C 
BRANCH   5   6
ATOM      6  C   UNL     1     -12.291 -46.330  27.818  1.00  0.00     0.082 C 
BRANCH   6   7
ATOM      7  C   UNL     1     -11.157 -45.964  28.783  1.00  0.00     0.118 C 
BRANCH   7   8
ATOM      8  N   UNL     1     -11.505 -46.231  30.186  1.00  0.00    -0.384 N 
ATOM      9  H   UNL     1     -12.510 -46.424  30.263  1.00  0.00     0.160 HD
BRANCH   8  10
ATOM     10  C   UNL     1     -11.186 -45.242  31.143  1.00  0.00     0.049 A 
ATOM     11  C   UNL     1      -9.825 -45.061  31.464  1.00  0.00    -0.003 A 
ATOM     12  C   UNL     1     -12.170 -44.429  31.770  1.00  0.00     0.024 A 
ATOM     13  C   UNL     1      -9.482 -43.947  32.224  1.00  0.00     0.046 A 
ATOM     14  C   UNL     1      -8.765 -46.010  30.954  1.00  0.00     0.039 C 
ATOM     15  C   UNL     1     -13.568 -44.642  31.684  1.00  0.00     0.012 A 
ATOM     16  C   UNL     1     -11.705 -43.330  32.518  1.00  0.00     0.073 A 
ATOM     17  N   UNL     1     -10.402 -43.060  32.664  1.00  0.00    -0.252 NA
ATOM     18  C   UNL     1      -8.060 -43.673  32.645  1.00  0.00     0.056 C 
ATOM     19  C   UNL     1      -7.432 -45.891  31.690  1.00  0.00     0.005 C 
ATOM     20  C   UNL     1     -14.473 -43.773  32.290  1.00  0.00     0.001 A 
ATOM     21  C   UNL     1     -12.625 -42.472  33.106  1.00  0.00     0.029 A 
ATOM     22  C   UNL     1      -7.028 -44.429  31.815  1.00  0.00     0.007 C 
ATOM     23  C   UNL     1     -14.000 -42.679  32.998  1.00  0.00     0.002 A 
ENDBRANCH   8  10
ENDBRANCH   7   8
ENDBRANCH   6   7
ENDBRANCH   5   6
ENDBRANCH   2   5
ENDBRANCH   1   2
BRANCH   1  24
ATOM     24  C   UNL     1     -14.965 -42.966  26.525  1.00  0.00     0.089 C 
BRANCH  24  25
ATOM     25  C   UNL     1     -15.621 -43.360  25.202  1.00  0.00     0.214 C 
BRANCH  25  26
ATOM     26  O   UNL     1     -14.966 -42.678  24.140  1.00  0.00    -0.314 OA
BRANCH  26  27
ATOM     27  N   UNL     1     -15.863 -41.917  23.344  1.00  0.00     0.294 N 
ATOM     28  O   UNL     1     -17.064 -42.086  23.550  1.00  0.00    -0.109 OA
ATOM     29  O   UNL     1     -15.285 -41.236  22.503  1.00  0.00    -0.109 OA
ENDBRANCH  26  27
ENDBRANCH  25  26
ENDBRANCH  24  25
ENDBRANCH   1  24
TORSDOF 10
ENDMDL
MODEL 5
REMARK VINA RESULT:    -7.868      3.606      5.565
REMARK INTER + INTRA:         -14.038
REMARK INTER:                 -13.862
REMARK INTRA:                  -0.176
REMARK UNBOUND:                -1.570
REMARK SMILES O=[N+]([O-])OCCC[NH2+]CCCNc1c2c(nc3ccccc13)CCCC2
REMARK SMILES IDX 7 1 8 2 9 5 10 6 11 7 12 8 13 10 14 11 22 12 15 13 26 14
REMARK SMILES IDX 21 15 17 16 16 17 23 18 25 19 20 20 18 21 24 22 19 23 6 24
REMARK SMILES IDX 5 25 4 26 2 27 1 28 3 29
REMARK H PARENT 8 3 8 4 12 9
ROOT
ATOM      1  C   UNL     1     -14.066 -44.325  26.584  1.00  0.00     0.262 C 
ENDROOT
BRANCH   1   2
ATOM      2  N   UNL     1     -12.846 -43.742  27.215  1.00  0.00    -0.346 N 
ATOM      3  H   UNL     1     -12.043 -43.764  26.572  1.00  0.00     0.346 HD
ATOM      4  H   UNL     1     -13.044 -42.736  27.303  1.00  0.00     0.346 HD
BRANCH   2   5
ATOM      5  C   UNL     1     -12.456 -44.244  28.563  1.00  0.00     0.262 C 
BRANCH   5   6
ATOM      6  C   UNL     1     -12.132 -45.738  28.547  1.00  0.00     0.082 C 
BRANCH   6   7
ATOM      7  C   UNL     1     -11.053 -46.180  29.541  1.00  0.00     0.118 C 
BRANCH   7   8
ATOM      8  N   UNL     1     -11.495 -46.064  30.939  1.00  0.00    -0.384 N 
ATOM      9  H   UNL     1     -12.517 -46.143  30.986  1.00  0.00     0.160 HD
BRANCH   8  10
ATOM     10  C   UNL     1     -11.124 -44.903  31.652  1.00  0.00     0.049 A 
ATOM     11  C   UNL     1     -12.159 -44.096  32.168  1.00  0.00    -0.003 A 
ATOM     12  C   UNL     1      -9.768 -44.535  31.877  1.00  0.00     0.024 A 
ATOM     13  C   UNL     1     -11.810 -43.086  33.059  1.00  0.00     0.046 A 
ATOM     14  C   UNL     1     -13.606 -44.352  31.812  1.00  0.00     0.039 C 
ATOM     15  C   UNL     1      -8.652 -45.145  31.252  1.00  0.00     0.012 A 
ATOM     16  C   UNL     1      -9.535 -43.496  32.798  1.00  0.00     0.073 A 
ATOM     17  N   UNL     1     -10.529 -42.855  33.425  1.00  0.00    -0.252 NA
ATOM     18  C   UNL     1     -12.834 -42.149  33.648  1.00  0.00     0.056 C 
ATOM     19  C   UNL     1     -14.533 -43.183  32.140  1.00  0.00     0.005 C 
ATOM     20  C   UNL     1      -7.349 -44.759  31.559  1.00  0.00     0.001 A 
ATOM     21  C   UNL     1      -8.228 -43.134  33.095  1.00  0.00     0.029 A 
ATOM     22  C   UNL     1     -14.262 -42.677  33.549  1.00  0.00     0.007 C 
ATOM     23  C   UNL     1      -7.135 -43.755  32.490  1.00  0.00     0.002 A 
ENDBRANCH   8  10
ENDBRANCH   7   8
ENDBRANCH   6   7
ENDBRANCH   5   6
ENDBRANCH   2   5
ENDBRANCH   1   2
BRANCH   1  24
ATOM     24  C   UNL     1     -15.190 -43.311  26.391  1.00  0.00     0.089 C 
BRANCH  24  25
ATOM     25  C   UNL     1     -15.060 -42.437  25.144  1.00  0.00     0.214 C 
BRANCH  25  26
ATOM     26  O   UNL     1     -16.311 -42.410  24.468  1.00  0.00    -0.314 OA
BRANCH  26  27
ATOM     27  N   UNL     1     -16.249 -41.711  23.233  1.00  0.00     0.294 N 
ATOM     28  O   UNL     1     -17.315 -41.522  22.650  1.00  0.00    -0.109 OA
ATOM     29  O   UNL     1     -15.098 -41.452  22.896  1.00  0.00    -0.109 OA
ENDBRANCH  26  27
ENDBRANCH  25  26
ENDBRANCH  24  25
ENDBRANCH   1  24
TORSDOF 10
ENDMDL
MODEL 6
REMARK VINA RESULT:    -7.445      3.696      5.814
REMARK INTER + INTRA:         -13.368
REMARK INTER:                 -12.874
REMARK INTRA:                  -0.494
REMARK UNBOUND:                -1.570
REMARK SMILES O=[N+]([O-])OCCC[NH2+]CCCNc1c2c(nc3ccccc13)CCCC2
REMARK SMILES IDX 7 1 8 2 9 5 10 6 11 7 12 8 13 10 14 11 22 12 15 13 26 14
REMARK SMILES IDX 21 15 17 16 16 17 23 18 25 19 20 20 18 21 24 22 19 23 6 24
REMARK SMILES IDX 5 25 4 26 2 27 1 28 3 29
REMARK H PARENT 8 3 8 4 12 9
ROOT
ATOM      1  C   UNL     1     -13.809 -44.579  26.214  1.00  0.00     0.262 C 
ENDROOT
BRANCH   1   2
ATOM      2  N   UNL     1     -12.691 -43.993  27.011  1.00  0.00    -0.346 N 
ATOM      3  H   UNL     1     -11.786 -44.126  26.542  1.00  0.00     0.346 HD
ATOM      4  H   UNL     1     -12.831 -42.975  26.959  1.00  0.00     0.346 HD
BRANCH   2   5
ATOM      5  C   UNL     1     -12.600 -44.363  28.451  1.00  0.00     0.262 C 
BRANCH   5   6
ATOM      6  C   UNL     1     -12.358 -45.860  28.645  1.00  0.00     0.082 C 
BRANCH   6   7
ATOM      7  C   UNL     1     -11.178 -46.215  29.556  1.00  0.00     0.118 C 
BRANCH   7   8
ATOM      8  N   UNL     1     -11.522 -46.124  30.982  1.00  0.00    -0.384 N 
ATOM      9  H   UNL     1     -12.533 -46.247  31.103  1.00  0.00     0.160 HD
BRANCH   8  10
ATOM     10  C   UNL     1     -11.149 -44.951  31.675  1.00  0.00     0.049 A 
ATOM     11  C   UNL     1     -12.184 -44.140  32.187  1.00  0.00    -0.003 A 
ATOM     12  C   UNL     1      -9.794 -44.574  31.883  1.00  0.00     0.024 A 
ATOM     13  C   UNL     1     -11.831 -43.115  33.060  1.00  0.00     0.046 A 
ATOM     14  C   UNL     1     -13.632 -44.408  31.847  1.00  0.00     0.039 C 
ATOM     15  C   UNL     1      -8.680 -45.189  31.258  1.00  0.00     0.012 A 
ATOM     16  C   UNL     1      -9.557 -43.520  32.787  1.00  0.00     0.073 A 
ATOM     17  N   UNL     1     -10.549 -42.874  33.412  1.00  0.00    -0.252 NA
ATOM     18  C   UNL     1     -12.855 -42.174  33.644  1.00  0.00     0.056 C 
ATOM     19  C   UNL     1     -14.561 -43.237  32.165  1.00  0.00     0.005 C 
ATOM     20  C   UNL     1      -7.376 -44.794  31.549  1.00  0.00     0.001 A 
ATOM     21  C   UNL     1      -8.249 -43.149  33.068  1.00  0.00     0.029 A 
ATOM     22  C   UNL     1     -14.281 -42.709  33.565  1.00  0.00     0.007 C 
ATOM     23  C   UNL     1      -7.159 -43.775  32.463  1.00  0.00     0.002 A 
ENDBRANCH   8  10
ENDBRANCH   7   8
ENDBRANCH   6   7
ENDBRANCH   5   6
ENDBRANCH   2   5
ENDBRANCH   1   2
BRANCH   1  24
ATOM     24  C   UNL     1     -14.963 -43.607  25.985  1.00  0.00     0.089 C 
BRANCH  24  25
ATOM     25  C   UNL     1     -15.586 -43.036  27.259  1.00  0.00     0.214 C 
BRANCH  25  26
ATOM     26  O   UNL     1     -16.881 -42.535  26.954  1.00  0.00    -0.314 OA
BRANCH  26  27
ATOM     27  N   UNL     1     -17.656 -42.281  28.117  1.00  0.00     0.294 N 
ATOM     28  O   UNL     1     -17.042 -41.939  29.127  1.00  0.00    -0.109 OA
ATOM     29  O   UNL     1     -18.849 -42.512  27.948  1.00  0.00    -0.109 OA
ENDBRANCH  26  27
ENDBRANCH  25  26
ENDBRANCH  24  25
ENDBRANCH   1  24
TORSDOF 10
ENDMDL
MODEL 7
REMARK VINA RESULT:    -7.269     10.666     12.352
REMARK INTER + INTRA:         -13.088
REMARK INTER:                 -12.018
REMARK INTRA:                  -1.071
REMARK UNBOUND:                -1.570
REMARK SMILES O=[N+]([O-])OCCC[NH2+]CCCNc1c2c(nc3ccccc13)CCCC2
REMARK SMILES IDX 7 1 8 2 9 5 10 6 11 7 12 8 13 10 14 11 22 12 15 13 26 14
REMARK SMILES IDX 21 15 17 16 16 17 23 18 25 19 20 20 18 21 24 22 19 23 6 24
REMARK SMILES IDX 5 25 4 26 2 27 1 28 3 29
REMARK H PARENT 8 3 8 4 12 9
ROOT
ATOM      1  C   UNL     1     -22.253 -40.963  19.590  1.00  0.00     0.262 C 
ENDROOT
BRANCH   1   2
ATOM      2  N   UNL     1     -20.846 -40.509  19.792  1.00  0.00    -0.346 N 
ATOM      3  H   UNL     1     -20.293 -40.603  18.930  1.00  0.00     0.346 HD
ATOM      4  H   UNL     1     -20.909 -39.490  19.917  1.00  0.00     0.346 HD
BRANCH   2   5
ATOM      5  C   UNL     1     -20.102 -41.062  20.960  1.00  0.00     0.262 C 
BRANCH   5   6
ATOM      6  C   UNL     1     -18.993 -40.122  21.431  1.00  0.00     0.082 C 
BRANCH   6   7
ATOM      7  C   UNL     1     -17.774 -40.815  22.050  1.00  0.00     0.118 C 
BRANCH   7   8
ATOM      8  N   UNL     1     -18.105 -42.129  22.621  1.00  0.00    -0.384 N 
ATOM      9  H   UNL     1     -19.054 -42.399  22.340  1.00  0.00     0.160 HD
BRANCH   8  10
ATOM     10  C   UNL     1     -18.015 -42.279  24.023  1.00  0.00     0.049 A 
ATOM     11  C   UNL     1     -16.814 -42.800  24.547  1.00  0.00    -0.003 A 
ATOM     12  C   UNL     1     -19.068 -41.915  24.907  1.00  0.00     0.024 A 
ATOM     13  C   UNL     1     -16.628 -42.738  25.925  1.00  0.00     0.046 A 
ATOM     14  C   UNL     1     -15.739 -43.356  23.642  1.00  0.00     0.039 C 
ATOM     15  C   UNL     1     -20.381 -41.571  24.500  1.00  0.00     0.012 A 
ATOM     16  C   UNL     1     -18.765 -41.891  26.282  1.00  0.00     0.073 A 
ATOM     17  N   UNL     1     -17.556 -42.214  26.756  1.00  0.00    -0.252 NA
ATOM     18  C   UNL     1     -15.393 -43.290  26.591  1.00  0.00     0.056 C 
ATOM     19  C   UNL     1     -14.701 -44.205  24.375  1.00  0.00     0.005 C 
ATOM     20  C   UNL     1     -21.348 -41.180  25.425  1.00  0.00     0.001 A 
ATOM     21  C   UNL     1     -19.741 -41.490  27.185  1.00  0.00     0.029 A 
ATOM     22  C   UNL     1     -14.226 -43.487  25.630  1.00  0.00     0.007 C 
ATOM     23  C   UNL     1     -21.025 -41.132  26.772  1.00  0.00     0.002 A 
ENDBRANCH   8  10
ENDBRANCH   7   8
ENDBRANCH   6   7
ENDBRANCH   5   6
ENDBRANCH   2   5
ENDBRANCH   1   2
BRANCH   1  24
ATOM     24  C   UNL     1     -23.206 -40.486  20.683  1.00  0.00     0.089 C 
BRANCH  24  25
ATOM     25  C   UNL     1     -23.700 -39.048  20.522  1.00  0.00     0.214 C 
BRANCH  25  26
ATOM     26  O   UNL     1     -22.587 -38.206  20.250  1.00  0.00    -0.314 OA
BRANCH  26  27
ATOM     27  N   UNL     1     -22.924 -37.110  19.411  1.00  0.00     0.294 N 
ATOM     28  O   UNL     1     -22.380 -37.069  18.309  1.00  0.00    -0.109 OA
ATOM     29  O   UNL     1     -23.682 -36.314  19.958  1.00  0.00    -0.109 OA
ENDBRANCH  26  27
ENDBRANCH  25  26
ENDBRANCH  24  25
ENDBRANCH   1  24
TORSDOF 10
ENDMDL
MODEL 8
REMARK VINA RESULT:    -7.117      7.923     10.506
REMARK INTER + INTRA:         -12.848
REMARK INTER:                 -12.507
REMARK INTRA:                  -0.341
REMARK UNBOUND:                -1.570
REMARK SMILES O=[N+]([O-])OCCC[NH2+]CCCNc1c2c(nc3ccccc13)CCCC2
REMARK SMILES IDX 7 1 8 2 9 5 10 6 11 7 12 8 13 10 14 11 22 12 15 13 26 14
REMARK SMILES IDX 21 15 17 16 16 17 23 18 25 19 20 20 18 21 24 22 19 23 6 24
REMARK SMILES IDX 5 25 4 26 2 27 1 28 3 29
REMARK H PARENT 8 3 8 4 12 9
ROOT
ATOM      1  C   UNL     1     -13.620 -44.328  26.560  1.00  0.00     0.262 C 
ENDROOT
BRANCH   1   2
ATOM      2  N   UNL     1     -14.911 -44.134  25.836  1.00  0.00    -0.346 N 
ATOM      3  H   UNL     1     -15.111 -44.922  25.206  1.00  0.00     0.346 HD
ATOM      4  H   UNL     1     -15.639 -44.225  26.557  1.00  0.00     0.346 HD
BRANCH   2   5
ATOM      5  C   UNL     1     -15.125 -42.834  25.140  1.00  0.00     0.262 C 
BRANCH   5   6
ATOM      6  C   UNL     1     -15.470 -43.025  23.663  1.00  0.00     0.082 C 
BRANCH   6   7
ATOM      7  C   UNL     1     -16.327 -41.912  23.047  1.00  0.00     0.118 C 
BRANCH   7   8
ATOM      8  N   UNL     1     -17.696 -42.358  22.749  1.00  0.00    -0.384 N 
ATOM      9  H   UNL     1     -17.836 -42.391  21.733  1.00  0.00     0.160 HD
BRANCH   8  10
ATOM     10  C   UNL     1     -18.764 -41.617  23.303  1.00  0.00     0.049 A 
ATOM     11  C   UNL     1     -19.488 -40.771  22.438  1.00  0.00    -0.003 A 
ATOM     12  C   UNL     1     -19.136 -41.706  24.673  1.00  0.00     0.024 A 
ATOM     13  C   UNL     1     -20.673 -40.218  22.915  1.00  0.00     0.046 A 
ATOM     14  C   UNL     1     -19.026 -40.516  21.021  1.00  0.00     0.039 C 
ATOM     15  C   UNL     1     -18.376 -42.359  25.675  1.00  0.00     0.012 A 
ATOM     16  C   UNL     1     -20.355 -41.105  25.042  1.00  0.00     0.073 A 
ATOM     17  N   UNL     1     -21.130 -40.456  24.164  1.00  0.00    -0.252 NA
ATOM     18  C   UNL     1     -21.509 -39.279  22.082  1.00  0.00     0.056 C 
ATOM     19  C   UNL     1     -19.696 -39.309  20.367  1.00  0.00     0.005 C 
ATOM     20  C   UNL     1     -18.830 -42.442  26.990  1.00  0.00     0.001 A 
ATOM     21  C   UNL     1     -20.793 -41.209  26.355  1.00  0.00     0.029 A 
ATOM     22  C   UNL     1     -21.201 -39.358  20.591  1.00  0.00     0.007 C 
ATOM     23  C   UNL     1     -20.047 -41.872  27.330  1.00  0.00     0.002 A 
ENDBRANCH   8  10
ENDBRANCH   7   8
ENDBRANCH   6   7
ENDBRANCH   5   6
ENDBRANCH   2   5
ENDBRANCH   1   2
BRANCH   1  24
ATOM     24  C   UNL     1     -12.925 -43.017  26.918  1.00  0.00     0.089 C 
BRANCH  24  25
ATOM     25  C   UNL     1     -11.603 -43.175  27.669  1.00  0.00     0.214 C 
BRANCH  25  26
ATOM     26  O   UNL     1     -11.873 -43.652  28.981  1.00  0.00    -0.314 OA
BRANCH  26  27
ATOM     27  N   UNL     1     -10.992 -43.106  29.953  1.00  0.00     0.294 N 
ATOM     28  O   UNL     1      -9.846 -43.553  29.973  1.00  0.00    -0.109 OA
ATOM     29  O   UNL     1     -11.545 -42.293  30.687  1.00  0.00    -0.109 OA
ENDBRANCH  26  27
ENDBRANCH  25  26
ENDBRANCH  24  25
ENDBRANCH   1  24
TORSDOF 10
ENDMDL
MODEL 9
REMARK VINA RESULT:    -6.787     10.828     12.956
REMARK INTER + INTRA:         -12.325
REMARK INTER:                 -11.487
REMARK INTRA:                  -0.838
REMARK UNBOUND:                -1.570
REMARK SMILES O=[N+]([O-])OCCC[NH2+]CCCNc1c2c(nc3ccccc13)CCCC2
REMARK SMILES IDX 7 1 8 2 9 5 10 6 11 7 12 8 13 10 14 11 22 12 15 13 26 14
REMARK SMILES IDX 21 15 17 16 16 17 23 18 25 19 20 20 18 21 24 22 19 23 6 24
REMARK SMILES IDX 5 25 4 26 2 27 1 28 3 29
REMARK H PARENT 8 3 8 4 12 9
ROOT
ATOM      1  C   UNL     1     -21.142 -38.958  21.346  1.00  0.00     0.262 C 
ENDROOT
BRANCH   1   2
ATOM      2  N   UNL     1     -21.195 -40.425  21.077  1.00  0.00    -0.346 N 
ATOM      3  H   UNL     1     -21.802 -40.909  21.751  1.00  0.00     0.346 HD
ATOM      4  H   UNL     1     -21.711 -40.517  20.192  1.00  0.00     0.346 HD
BRANCH   2   5
ATOM      5  C   UNL     1     -19.900 -41.146  20.920  1.00  0.00     0.262 C 
BRANCH   5   6
ATOM      6  C   UNL     1     -18.703 -40.257  21.257  1.00  0.00     0.082 C 
BRANCH   6   7
ATOM      7  C   UNL     1     -17.560 -40.959  21.999  1.00  0.00     0.118 C 
BRANCH   7   8
ATOM      8  N   UNL     1     -18.015 -42.149  22.733  1.00  0.00    -0.384 N 
ATOM      9  H   UNL     1     -19.015 -42.303  22.558  1.00  0.00     0.160 HD
BRANCH   8  10
ATOM     10  C   UNL     1     -17.817 -42.176  24.131  1.00  0.00     0.049 A 
ATOM     11  C   UNL     1     -18.922 -41.868  24.952  1.00  0.00    -0.003 A 
ATOM     12  C   UNL     1     -16.571 -42.512  24.728  1.00  0.00     0.024 A 
ATOM     13  C   UNL     1     -18.803 -42.112  26.316  1.00  0.00     0.046 A 
ATOM     14  C   UNL     1     -20.213 -41.342  24.366  1.00  0.00     0.039 C 
ATOM     15  C   UNL     1     -15.349 -42.647  24.023  1.00  0.00     0.012 A 
ATOM     16  C   UNL     1     -16.569 -42.733  26.118  1.00  0.00     0.073 A 
ATOM     17  N   UNL     1     -17.674 -42.615  26.865  1.00  0.00    -0.252 NA
ATOM     18  C   UNL     1     -19.913 -41.794  27.287  1.00  0.00     0.056 C 
ATOM     19  C   UNL     1     -21.144 -40.715  25.402  1.00  0.00     0.005 C 
ATOM     20  C   UNL     1     -14.174 -43.024  24.673  1.00  0.00     0.001 A 
ATOM     21  C   UNL     1     -15.390 -43.117  26.744  1.00  0.00     0.029 A 
ATOM     22  C   UNL     1     -21.272 -41.627  26.614  1.00  0.00     0.007 C 
ATOM     23  C   UNL     1     -14.197 -43.267  26.037  1.00  0.00     0.002 A 
ENDBRANCH   8  10
ENDBRANCH   7   8
ENDBRANCH   6   7
ENDBRANCH   5   6
ENDBRANCH   2   5
ENDBRANCH   1   2
BRANCH   1  24
ATOM     24  C   UNL     1     -21.838 -38.122  20.274  1.00  0.00     0.089 C 
BRANCH  24  25
ATOM     25  C   UNL     1     -23.137 -38.720  19.734  1.00  0.00     0.214 C 
BRANCH  25  26
ATOM     26  O   UNL     1     -22.848 -39.457  18.553  1.00  0.00    -0.314 OA
BRANCH  26  27
ATOM     27  N   UNL     1     -23.655 -39.062  17.453  1.00  0.00     0.294 N 
ATOM     28  O   UNL     1     -23.085 -38.481  16.530  1.00  0.00    -0.109 OA
ATOM     29  O   UNL     1     -24.844 -39.311  17.627  1.00  0.00    -0.109 OA
ENDBRANCH  26  27
ENDBRANCH  25  26
ENDBRANCH  24  25
ENDBRANCH   1  24
TORSDOF 10
ENDMDL
