MODEL 1
REMARK VINA RESULT:    -9.118      0.000      0.000
REMARK INTER + INTRA:         -13.891
REMARK INTER:                 -12.583
REMARK INTRA:                  -1.309
REMARK UNBOUND:                -1.309
REMARK SMILES COc1ccc([C@H]2CC(c3cc(F)cc(F)c3)=NN2c2ccc(S(N)(=O)=O)cc2)cc1OC
REMARK SMILES IDX 20 1 21 2 22 3 23 4 28 5 29 6 19 7 7 8 8 9 9 10 18 11 6 12
REMARK SMILES IDX 3 13 4 14 31 15 5 16 30 17 2 18 1 19 32 20 33 21 10 22 11 23
REMARK SMILES IDX 17 24 12 25 15 26 14 27 13 28 16 29 24 30 26 31 27 32 25 33
REMARK H PARENT 25 34 25 35
ROOT
ATOM      1  C   UNL     1     -20.124 -40.962  23.766  1.00  0.00     0.060 A 
ATOM      2  C   UNL     1     -21.483 -40.614  23.867  1.00  0.00     0.029 A 
ATOM      3  C   UNL     1     -22.144 -39.917  22.848  1.00  0.00     0.024 A 
ATOM      4  C   UNL     1     -21.447 -39.562  21.696  1.00  0.00     0.082 A 
ATOM      5  C   UNL     1     -20.097 -39.876  21.563  1.00  0.00     0.024 A 
ATOM      6  C   UNL     1     -19.453 -40.574  22.590  1.00  0.00     0.029 A 
ENDROOT
BRANCH   1   7
ATOM      7  N   UNL     1     -19.454 -41.660  24.770  1.00  0.00    -0.257 N 
ATOM      8  C   UNL     1     -20.018 -42.054  26.064  1.00  0.00     0.144 C 
ATOM      9  C   UNL     1     -18.772 -42.396  26.885  1.00  0.00     0.091 C 
ATOM     10  C   UNL     1     -17.726 -42.396  25.805  1.00  0.00     0.071 C 
ATOM     11  N   UNL     1     -18.126 -41.953  24.651  1.00  0.00    -0.176 NA
BRANCH   8  12
ATOM     12  C   UNL     1     -20.954 -43.249  25.971  1.00  0.00    -0.019 A 
ATOM     13  C   UNL     1     -22.728 -45.463  25.881  1.00  0.00     0.160 A 
ATOM     14  C   UNL     1     -21.631 -45.381  25.014  1.00  0.00     0.051 A 
ATOM     15  C   UNL     1     -22.916 -44.440  26.826  1.00  0.00     0.161 A 
ATOM     16  C   UNL     1     -20.752 -44.293  25.062  1.00  0.00     0.010 A 
ATOM     17  C   UNL     1     -22.042 -43.342  26.850  1.00  0.00     0.056 A 
BRANCH  13  18
ATOM     18  O   UNL     1     -23.642 -46.482  25.846  1.00  0.00    -0.493 OA
ATOM     19  C   UNL     1     -24.399 -46.661  24.656  1.00  0.00     0.278 C 
ENDBRANCH  13  18
BRANCH  15  20
ATOM     20  O   UNL     1     -23.919 -44.337  27.757  1.00  0.00    -0.493 OA
ATOM     21  C   UNL     1     -23.570 -44.582  29.114  1.00  0.00     0.278 C 
ENDBRANCH  15  20
ENDBRANCH   8  12
BRANCH  10  22
ATOM     22  C   UNL     1     -16.336 -42.838  26.058  1.00  0.00     0.004 A 
ATOM     23  C   UNL     1     -15.977 -43.469  27.252  1.00  0.00     0.049 A 
ATOM     24  C   UNL     1     -15.365 -42.612  25.076  1.00  0.00     0.049 A 
ATOM     25  C   UNL     1     -14.656 -43.867  27.445  1.00  0.00     0.126 A 
ATOM     26  C   UNL     1     -14.053 -43.021  25.296  1.00  0.00     0.126 A 
ATOM     27  C   UNL     1     -13.686 -43.651  26.477  1.00  0.00     0.078 A 
ATOM     28  F   UNL     1     -14.318 -44.472  28.591  1.00  0.00    -0.207 F 
ATOM     29  F   UNL     1     -13.129 -42.805  24.352  1.00  0.00    -0.207 F 
ENDBRANCH  10  22
ENDBRANCH   1   7
BRANCH   4  30
ATOM     30  S   UNL     1     -22.269 -38.687  20.394  1.00  0.00     0.238 S 
ATOM     31  O   UNL     1     -23.203 -39.582  19.755  1.00  0.00    -0.207 OA
ATOM     32  O   UNL     1     -21.285 -37.930  19.654  1.00  0.00    -0.207 OA
BRANCH  30  33
ATOM     33  N   UNL     1     -23.154 -37.547  21.264  1.00  0.00    -0.225 NA
ATOM     34  H   UNL     1     -22.566 -36.725  21.418  1.00  0.00     0.137 HD
ATOM     35  H   UNL     1     -23.529 -37.915  22.138  1.00  0.00     0.137 HD
ENDBRANCH  30  33
ENDBRANCH   4  30
TORSDOF 7
ENDMDL
MODEL 2
REMARK VINA RESULT:    -9.081      0.452      1.498
REMARK INTER + INTRA:         -13.840
REMARK INTER:                 -12.540
REMARK INTRA:                  -1.300
REMARK UNBOUND:                -1.309
REMARK SMILES COc1ccc([C@H]2CC(c3cc(F)cc(F)c3)=NN2c2ccc(S(N)(=O)=O)cc2)cc1OC
REMARK SMILES IDX 20 1 21 2 22 3 23 4 28 5 29 6 19 7 7 8 8 9 9 10 18 11 6 12
REMARK SMILES IDX 3 13 4 14 31 15 5 16 30 17 2 18 1 19 32 20 33 21 10 22 11 23
REMARK SMILES IDX 17 24 12 25 15 26 14 27 13 28 16 29 24 30 26 31 27 32 25 33
REMARK H PARENT 25 34 25 35
ROOT
ATOM      1  C   UNL     1     -20.145 -40.952  23.712  1.00  0.00     0.060 A 
ATOM      2  C   UNL     1     -21.512 -40.634  23.806  1.00  0.00     0.029 A 
ATOM      3  C   UNL     1     -22.182 -39.950  22.784  1.00  0.00     0.024 A 
ATOM      4  C   UNL     1     -21.487 -39.578  21.636  1.00  0.00     0.082 A 
ATOM      5  C   UNL     1     -20.130 -39.863  21.511  1.00  0.00     0.024 A 
ATOM      6  C   UNL     1     -19.476 -40.548  22.541  1.00  0.00     0.029 A 
ENDROOT
BRANCH   1   7
ATOM      7  N   UNL     1     -19.466 -41.637  24.719  1.00  0.00    -0.257 N 
ATOM      8  C   UNL     1     -20.011 -41.996  26.031  1.00  0.00     0.144 C 
ATOM      9  C   UNL     1     -18.755 -42.335  26.837  1.00  0.00     0.091 C 
ATOM     10  C   UNL     1     -17.729 -42.370  25.739  1.00  0.00     0.071 C 
ATOM     11  N   UNL     1     -18.143 -41.947  24.584  1.00  0.00    -0.176 NA
BRANCH   8  12
ATOM     12  C   UNL     1     -20.962 -43.181  25.979  1.00  0.00    -0.019 A 
ATOM     13  C   UNL     1     -22.772 -45.368  25.962  1.00  0.00     0.160 A 
ATOM     14  C   UNL     1     -21.588 -45.405  25.213  1.00  0.00     0.051 A 
ATOM     15  C   UNL     1     -23.033 -44.237  26.753  1.00  0.00     0.161 A 
ATOM     16  C   UNL     1     -20.693 -44.330  25.227  1.00  0.00     0.010 A 
ATOM     17  C   UNL     1     -22.138 -43.154  26.741  1.00  0.00     0.056 A 
BRANCH  13  18
ATOM     18  O   UNL     1     -23.704 -46.372  25.949  1.00  0.00    -0.493 OA
ATOM     19  C   UNL     1     -23.700 -47.274  24.850  1.00  0.00     0.278 C 
ENDBRANCH  13  18
BRANCH  15  20
ATOM     20  O   UNL     1     -24.125 -44.010  27.553  1.00  0.00    -0.493 OA
ATOM     21  C   UNL     1     -24.298 -42.689  28.052  1.00  0.00     0.278 C 
ENDBRANCH  15  20
ENDBRANCH   8  12
BRANCH  10  22
ATOM     22  C   UNL     1     -16.339 -42.823  25.978  1.00  0.00     0.004 A 
ATOM     23  C   UNL     1     -15.337 -42.641  25.022  1.00  0.00     0.049 A 
ATOM     24  C   UNL     1     -16.031 -43.449  27.193  1.00  0.00     0.049 A 
ATOM     25  C   UNL     1     -14.044 -43.083  25.292  1.00  0.00     0.126 A 
ATOM     26  C   UNL     1     -14.731 -43.880  27.435  1.00  0.00     0.126 A 
ATOM     27  C   UNL     1     -13.728 -43.702  26.493  1.00  0.00     0.078 A 
ATOM     28  F   UNL     1     -13.088 -42.906  24.372  1.00  0.00    -0.207 F 
ATOM     29  F   UNL     1     -14.441 -44.475  28.599  1.00  0.00    -0.207 F 
ENDBRANCH  10  22
ENDBRANCH   1   7
BRANCH   4  30
ATOM     30  S   UNL     1     -22.321 -38.720  20.330  1.00  0.00     0.238 S 
ATOM     31  O   UNL     1     -23.295 -39.608  19.743  1.00  0.00    -0.207 OA
ATOM     32  O   UNL     1     -21.337 -38.012  19.542  1.00  0.00    -0.207 OA
BRANCH  30  33
ATOM     33  N   UNL     1     -23.151 -37.532  21.189  1.00  0.00    -0.225 NA
ATOM     34  H   UNL     1     -22.676 -36.638  21.054  1.00  0.00     0.137 HD
ATOM     35  H   UNL     1     -23.262 -37.758  22.177  1.00  0.00     0.137 HD
ENDBRANCH  30  33
ENDBRANCH   4  30
TORSDOF 7
ENDMDL
MODEL 3
REMARK VINA RESULT:    -8.903      3.890      6.612
REMARK INTER + INTRA:         -13.594
REMARK INTER:                 -12.231
REMARK INTRA:                  -1.364
REMARK UNBOUND:                -1.309
REMARK SMILES COc1ccc([C@H]2CC(c3cc(F)cc(F)c3)=NN2c2ccc(S(N)(=O)=O)cc2)cc1OC
REMARK SMILES IDX 20 1 21 2 22 3 23 4 28 5 29 6 19 7 7 8 8 9 9 10 18 11 6 12
REMARK SMILES IDX 3 13 4 14 31 15 5 16 30 17 2 18 1 19 32 20 33 21 10 22 11 23
REMARK SMILES IDX 17 24 12 25 15 26 14 27 13 28 16 29 24 30 26 31 27 32 25 33
REMARK H PARENT 25 34 25 35
ROOT
ATOM      1  C   UNL     1     -23.219 -40.108  27.117  1.00  0.00     0.060 A 
ATOM      2  C   UNL     1     -23.556 -38.784  26.783  1.00  0.00     0.029 A 
ATOM      3  C   UNL     1     -24.587 -38.098  27.436  1.00  0.00     0.024 A 
ATOM      4  C   UNL     1     -25.299 -38.732  28.451  1.00  0.00     0.082 A 
ATOM      5  C   UNL     1     -25.004 -40.046  28.803  1.00  0.00     0.024 A 
ATOM      6  C   UNL     1     -23.970 -40.717  28.141  1.00  0.00     0.029 A 
ENDROOT
BRANCH   1   7
ATOM      7  N   UNL     1     -22.191 -40.802  26.481  1.00  0.00    -0.257 N 
ATOM      8  C   UNL     1     -22.317 -41.575  25.242  1.00  0.00     0.144 C 
ATOM      9  C   UNL     1     -21.045 -42.426  25.243  1.00  0.00     0.091 C 
ATOM     10  C   UNL     1     -20.283 -41.772  26.362  1.00  0.00     0.071 C 
ATOM     11  N   UNL     1     -20.955 -40.899  27.050  1.00  0.00    -0.176 NA
BRANCH   8  12
ATOM     12  C   UNL     1     -22.390 -40.705  23.998  1.00  0.00    -0.019 A 
ATOM     13  C   UNL     1     -22.439 -39.055  21.688  1.00  0.00     0.160 A 
ATOM     14  C   UNL     1     -23.623 -39.417  22.342  1.00  0.00     0.051 A 
ATOM     15  C   UNL     1     -21.215 -39.497  22.219  1.00  0.00     0.161 A 
ATOM     16  C   UNL     1     -23.599 -40.225  23.484  1.00  0.00     0.010 A 
ATOM     17  C   UNL     1     -21.204 -40.326  23.352  1.00  0.00     0.056 A 
BRANCH  13  18
ATOM     18  O   UNL     1     -22.409 -38.304  20.542  1.00  0.00    -0.493 OA
ATOM     19  C   UNL     1     -23.466 -37.380  20.321  1.00  0.00     0.278 C 
ENDBRANCH  13  18
BRANCH  15  20
ATOM     20  O   UNL     1     -19.955 -39.252  21.732  1.00  0.00    -0.493 OA
ATOM     21  C   UNL     1     -19.012 -40.313  21.814  1.00  0.00     0.278 C 
ENDBRANCH  15  20
ENDBRANCH   8  12
BRANCH  10  22
ATOM     22  C   UNL     1     -18.880 -42.131  26.670  1.00  0.00     0.004 A 
ATOM     23  C   UNL     1     -17.950 -42.379  25.657  1.00  0.00     0.049 A 
ATOM     24  C   UNL     1     -18.484 -42.225  28.010  1.00  0.00     0.049 A 
ATOM     25  C   UNL     1     -16.641 -42.713  25.996  1.00  0.00     0.126 A 
ATOM     26  C   UNL     1     -17.169 -42.560  28.318  1.00  0.00     0.126 A 
ATOM     27  C   UNL     1     -16.237 -42.805  27.320  1.00  0.00     0.078 A 
ATOM     28  F   UNL     1     -15.754 -42.948  25.020  1.00  0.00    -0.207 F 
ATOM     29  F   UNL     1     -16.795 -42.645  29.602  1.00  0.00    -0.207 F 
ENDBRANCH  10  22
ENDBRANCH   1   7
BRANCH   4  30
ATOM     30  S   UNL     1     -26.601 -37.876  29.292  1.00  0.00     0.238 S 
ATOM     31  O   UNL     1     -27.165 -38.757  30.286  1.00  0.00    -0.207 OA
ATOM     32  O   UNL     1     -27.410 -37.189  28.312  1.00  0.00    -0.207 OA
BRANCH  30  33
ATOM     33  N   UNL     1     -25.743 -36.668  30.095  1.00  0.00    -0.225 NA
ATOM     34  H   UNL     1     -26.384 -35.907  30.322  1.00  0.00     0.137 HD
ATOM     35  H   UNL     1     -24.932 -36.340  29.571  1.00  0.00     0.137 HD
ENDBRANCH  30  33
ENDBRANCH   4  30
TORSDOF 7
ENDMDL
MODEL 4
REMARK VINA RESULT:    -8.816      4.733      7.700
REMARK INTER + INTRA:         -13.475
REMARK INTER:                 -12.265
REMARK INTRA:                  -1.210
REMARK UNBOUND:                -1.309
REMARK SMILES COc1ccc([C@H]2CC(c3cc(F)cc(F)c3)=NN2c2ccc(S(N)(=O)=O)cc2)cc1OC
REMARK SMILES IDX 20 1 21 2 22 3 23 4 28 5 29 6 19 7 7 8 8 9 9 10 18 11 6 12
REMARK SMILES IDX 3 13 4 14 31 15 5 16 30 17 2 18 1 19 32 20 33 21 10 22 11 23
REMARK SMILES IDX 17 24 12 25 15 26 14 27 13 28 16 29 24 30 26 31 27 32 25 33
REMARK H PARENT 25 34 25 35
ROOT
ATOM      1  C   UNL     1     -18.876 -42.172  24.223  1.00  0.00     0.060 A 
ATOM      2  C   UNL     1     -17.703 -42.556  23.549  1.00  0.00     0.029 A 
ATOM      3  C   UNL     1     -16.522 -42.858  24.237  1.00  0.00     0.024 A 
ATOM      4  C   UNL     1     -16.500 -42.787  25.628  1.00  0.00     0.082 A 
ATOM      5  C   UNL     1     -17.637 -42.399  26.331  1.00  0.00     0.024 A 
ATOM      6  C   UNL     1     -18.809 -42.102  25.628  1.00  0.00     0.029 A 
ENDROOT
BRANCH   1   7
ATOM      7  N   UNL     1     -20.061 -41.874  23.552  1.00  0.00    -0.257 N 
ATOM      8  C   UNL     1     -21.368 -42.489  23.804  1.00  0.00     0.144 C 
ATOM      9  C   UNL     1     -22.166 -42.110  22.554  1.00  0.00     0.091 C 
ATOM     10  C   UNL     1     -21.238 -41.103  21.935  1.00  0.00     0.071 C 
ATOM     11  N   UNL     1     -20.068 -41.017  22.490  1.00  0.00    -0.176 NA
BRANCH   8  12
ATOM     12  C   UNL     1     -22.044 -41.965  25.061  1.00  0.00    -0.019 A 
ATOM     13  C   UNL     1     -23.334 -41.071  27.426  1.00  0.00     0.160 A 
ATOM     14  C   UNL     1     -23.028 -40.180  26.390  1.00  0.00     0.051 A 
ATOM     15  C   UNL     1     -23.021 -42.430  27.259  1.00  0.00     0.161 A 
ATOM     16  C   UNL     1     -22.397 -40.622  25.221  1.00  0.00     0.010 A 
ATOM     17  C   UNL     1     -22.367 -42.859  26.092  1.00  0.00     0.056 A 
BRANCH  13  18
ATOM     18  O   UNL     1     -23.910 -40.684  28.607  1.00  0.00    -0.493 OA
ATOM     19  C   UNL     1     -24.687 -39.494  28.615  1.00  0.00     0.278 C 
ENDBRANCH  13  18
BRANCH  15  20
ATOM     20  O   UNL     1     -23.239 -43.454  28.147  1.00  0.00    -0.493 OA
ATOM     21  C   UNL     1     -22.491 -44.648  27.955  1.00  0.00     0.278 C 
ENDBRANCH  15  20
ENDBRANCH   8  12
BRANCH  10  22
ATOM     22  C   UNL     1     -21.629 -40.297  20.755  1.00  0.00     0.004 A 
ATOM     23  C   UNL     1     -21.251 -38.958  20.627  1.00  0.00     0.049 A 
ATOM     24  C   UNL     1     -22.397 -40.898  19.750  1.00  0.00     0.049 A 
ATOM     25  C   UNL     1     -21.642 -38.241  19.499  1.00  0.00     0.126 A 
ATOM     26  C   UNL     1     -22.773 -40.157  18.634  1.00  0.00     0.126 A 
ATOM     27  C   UNL     1     -22.401 -38.828  18.496  1.00  0.00     0.078 A 
ATOM     28  F   UNL     1     -21.276 -36.958  19.382  1.00  0.00    -0.207 F 
ATOM     29  F   UNL     1     -23.506 -40.737  17.675  1.00  0.00    -0.207 F 
ENDBRANCH  10  22
ENDBRANCH   1   7
BRANCH   4  30
ATOM     30  S   UNL     1     -15.016 -43.173  26.515  1.00  0.00     0.238 S 
ATOM     31  O   UNL     1     -14.155 -42.016  26.497  1.00  0.00    -0.207 OA
ATOM     32  O   UNL     1     -14.566 -44.486  26.110  1.00  0.00    -0.207 OA
BRANCH  30  33
ATOM     33  N   UNL     1     -15.604 -43.361  28.083  1.00  0.00    -0.225 NA
ATOM     34  H   UNL     1     -15.486 -42.479  28.584  1.00  0.00     0.137 HD
ATOM     35  H   UNL     1     -15.173 -44.142  28.579  1.00  0.00     0.137 HD
ENDBRANCH  30  33
ENDBRANCH   4  30
TORSDOF 7
ENDMDL
MODEL 5
REMARK VINA RESULT:    -8.676      4.707      7.618
REMARK INTER + INTRA:         -13.282
REMARK INTER:                 -12.056
REMARK INTRA:                  -1.226
REMARK UNBOUND:                -1.309
REMARK SMILES COc1ccc([C@H]2CC(c3cc(F)cc(F)c3)=NN2c2ccc(S(N)(=O)=O)cc2)cc1OC
REMARK SMILES IDX 20 1 21 2 22 3 23 4 28 5 29 6 19 7 7 8 8 9 9 10 18 11 6 12
REMARK SMILES IDX 3 13 4 14 31 15 5 16 30 17 2 18 1 19 32 20 33 21 10 22 11 23
REMARK SMILES IDX 17 24 12 25 15 26 14 27 13 28 16 29 24 30 26 31 27 32 25 33
REMARK H PARENT 25 34 25 35
ROOT
ATOM      1  C   UNL     1     -18.715 -42.362  24.129  1.00  0.00     0.060 A 
ATOM      2  C   UNL     1     -17.554 -42.782  23.456  1.00  0.00     0.029 A 
ATOM      3  C   UNL     1     -16.359 -43.042  24.138  1.00  0.00     0.024 A 
ATOM      4  C   UNL     1     -16.311 -42.890  25.522  1.00  0.00     0.082 A 
ATOM      5  C   UNL     1     -17.435 -42.463  26.223  1.00  0.00     0.024 A 
ATOM      6  C   UNL     1     -18.621 -42.209  25.526  1.00  0.00     0.029 A 
ENDROOT
BRANCH   1   7
ATOM      7  N   UNL     1     -19.913 -42.105  23.465  1.00  0.00    -0.257 N 
ATOM      8  C   UNL     1     -21.184 -42.800  23.689  1.00  0.00     0.144 C 
ATOM      9  C   UNL     1     -22.000 -42.421  22.450  1.00  0.00     0.091 C 
ATOM     10  C   UNL     1     -21.127 -41.342  21.871  1.00  0.00     0.071 C 
ATOM     11  N   UNL     1     -19.965 -41.212  22.434  1.00  0.00    -0.176 NA
BRANCH   8  12
ATOM     12  C   UNL     1     -21.891 -42.360  24.961  1.00  0.00    -0.019 A 
ATOM     13  C   UNL     1     -23.253 -41.618  27.339  1.00  0.00     0.160 A 
ATOM     14  C   UNL     1     -22.706 -40.649  26.487  1.00  0.00     0.051 A 
ATOM     15  C   UNL     1     -23.145 -42.971  26.975  1.00  0.00     0.161 A 
ATOM     16  C   UNL     1     -22.040 -41.014  25.312  1.00  0.00     0.010 A 
ATOM     17  C   UNL     1     -22.454 -43.327  25.805  1.00  0.00     0.056 A 
BRANCH  13  18
ATOM     18  O   UNL     1     -23.874 -41.317  28.522  1.00  0.00    -0.493 OA
ATOM     19  C   UNL     1     -24.509 -40.051  28.641  1.00  0.00     0.278 C 
ENDBRANCH  13  18
BRANCH  15  20
ATOM     20  O   UNL     1     -23.611 -44.061  27.665  1.00  0.00    -0.493 OA
ATOM     21  C   UNL     1     -22.680 -44.755  28.486  1.00  0.00     0.278 C 
ENDBRANCH  15  20
ENDBRANCH   8  12
BRANCH  10  22
ATOM     22  C   UNL     1     -21.560 -40.517  20.720  1.00  0.00     0.004 A 
ATOM     23  C   UNL     1     -22.391 -41.034  19.722  1.00  0.00     0.049 A 
ATOM     24  C   UNL     1     -21.119 -39.191  20.634  1.00  0.00     0.049 A 
ATOM     25  C   UNL     1     -22.772 -40.219  18.659  1.00  0.00     0.126 A 
ATOM     26  C   UNL     1     -21.516 -38.400  19.560  1.00  0.00     0.126 A 
ATOM     27  C   UNL     1     -22.344 -38.903  18.566  1.00  0.00     0.078 A 
ATOM     28  F   UNL     1     -23.569 -40.720  17.707  1.00  0.00    -0.207 F 
ATOM     29  F   UNL     1     -21.094 -37.132  19.485  1.00  0.00    -0.207 F 
ENDBRANCH  10  22
ENDBRANCH   1   7
BRANCH   4  30
ATOM     30  S   UNL     1     -14.809 -43.221  26.401  1.00  0.00     0.238 S 
ATOM     31  O   UNL     1     -14.027 -42.010  26.449  1.00  0.00    -0.207 OA
ATOM     32  O   UNL     1     -14.271 -44.479  25.936  1.00  0.00    -0.207 OA
BRANCH  30  33
ATOM     33  N   UNL     1     -15.392 -43.526  27.953  1.00  0.00    -0.225 NA
ATOM     34  H   UNL     1     -14.698 -43.206  28.631  1.00  0.00     0.137 HD
ATOM     35  H   UNL     1     -15.644 -44.503  28.099  1.00  0.00     0.137 HD
ENDBRANCH  30  33
ENDBRANCH   4  30
TORSDOF 7
ENDMDL
MODEL 6
REMARK VINA RESULT:    -8.675      1.516      1.833
REMARK INTER + INTRA:         -13.281
REMARK INTER:                 -12.002
REMARK INTRA:                  -1.278
REMARK UNBOUND:                -1.309
REMARK SMILES COc1ccc([C@H]2CC(c3cc(F)cc(F)c3)=NN2c2ccc(S(N)(=O)=O)cc2)cc1OC
REMARK SMILES IDX 20 1 21 2 22 3 23 4 28 5 29 6 19 7 7 8 8 9 9 10 18 11 6 12
REMARK SMILES IDX 3 13 4 14 31 15 5 16 30 17 2 18 1 19 32 20 33 21 10 22 11 23
REMARK SMILES IDX 17 24 12 25 15 26 14 27 13 28 16 29 24 30 26 31 27 32 25 33
REMARK H PARENT 25 34 25 35
ROOT
ATOM      1  C   UNL     1     -20.384 -40.516  22.941  1.00  0.00     0.060 A 
ATOM      2  C   UNL     1     -19.700 -40.138  21.772  1.00  0.00     0.029 A 
ATOM      3  C   UNL     1     -20.331 -39.424  20.746  1.00  0.00     0.024 A 
ATOM      4  C   UNL     1     -21.671 -39.067  20.881  1.00  0.00     0.082 A 
ATOM      5  C   UNL     1     -22.386 -39.435  22.018  1.00  0.00     0.024 A 
ATOM      6  C   UNL     1     -21.740 -40.146  23.034  1.00  0.00     0.029 A 
ENDROOT
BRANCH   1   7
ATOM      7  N   UNL     1     -19.767 -41.222  23.973  1.00  0.00    -0.257 N 
ATOM      8  C   UNL     1     -20.286 -41.378  25.335  1.00  0.00     0.144 C 
ATOM      9  C   UNL     1     -19.057 -41.857  26.112  1.00  0.00     0.091 C 
ATOM     10  C   UNL     1     -18.117 -42.151  24.977  1.00  0.00     0.071 C 
ATOM     11  N   UNL     1     -18.524 -41.760  23.808  1.00  0.00    -0.176 NA
BRANCH   8  12
ATOM     12  C   UNL     1     -21.419 -42.388  25.432  1.00  0.00    -0.019 A 
ATOM     13  C   UNL     1     -23.554 -44.241  25.693  1.00  0.00     0.160 A 
ATOM     14  C   UNL     1     -22.503 -44.472  24.797  1.00  0.00     0.051 A 
ATOM     15  C   UNL     1     -23.515 -43.085  26.491  1.00  0.00     0.161 A 
ATOM     16  C   UNL     1     -21.447 -43.562  24.672  1.00  0.00     0.010 A 
ATOM     17  C   UNL     1     -22.463 -42.167  26.341  1.00  0.00     0.056 A 
BRANCH  13  18
ATOM     18  O   UNL     1     -24.632 -45.075  25.823  1.00  0.00    -0.493 OA
ATOM     19  C   UNL     1     -25.719 -44.908  24.921  1.00  0.00     0.278 C 
ENDBRANCH  13  18
BRANCH  15  20
ATOM     20  O   UNL     1     -24.438 -42.681  27.424  1.00  0.00    -0.493 OA
ATOM     21  C   UNL     1     -25.358 -41.671  27.028  1.00  0.00     0.278 C 
ENDBRANCH  15  20
ENDBRANCH   8  12
BRANCH  10  22
ATOM     22  C   UNL     1     -16.808 -42.810  25.194  1.00  0.00     0.004 A 
ATOM     23  C   UNL     1     -16.234 -42.892  26.465  1.00  0.00     0.049 A 
ATOM     24  C   UNL     1     -16.136 -43.357  24.094  1.00  0.00     0.049 A 
ATOM     25  C   UNL     1     -15.001 -43.522  26.619  1.00  0.00     0.126 A 
ATOM     26  C   UNL     1     -14.906 -43.980  24.279  1.00  0.00     0.126 A 
ATOM     27  C   UNL     1     -14.328 -44.070  25.537  1.00  0.00     0.078 A 
ATOM     28  F   UNL     1     -14.456 -43.599  27.840  1.00  0.00    -0.207 F 
ATOM     29  F   UNL     1     -14.268 -44.505  23.224  1.00  0.00    -0.207 F 
ENDBRANCH  10  22
ENDBRANCH   1   7
BRANCH   4  30
ATOM     30  S   UNL     1     -22.483 -38.158  19.597  1.00  0.00     0.238 S 
ATOM     31  O   UNL     1     -23.154 -37.025  20.188  1.00  0.00    -0.207 OA
ATOM     32  O   UNL     1     -23.155 -39.093  18.724  1.00  0.00    -0.207 OA
BRANCH  30  33
ATOM     33  N   UNL     1     -21.169 -37.581  18.714  1.00  0.00    -0.225 NA
ATOM     34  H   UNL     1     -21.510 -37.204  17.828  1.00  0.00     0.137 HD
ATOM     35  H   UNL     1     -20.443 -38.284  18.574  1.00  0.00     0.137 HD
ENDBRANCH  30  33
ENDBRANCH   4  30
TORSDOF 7
ENDMDL
MODEL 7
REMARK VINA RESULT:    -8.594      3.344      5.857
REMARK INTER + INTRA:         -13.168
REMARK INTER:                 -11.991
REMARK INTRA:                  -1.176
REMARK UNBOUND:                -1.309
REMARK SMILES COc1ccc([C@H]2CC(c3cc(F)cc(F)c3)=NN2c2ccc(S(N)(=O)=O)cc2)cc1OC
REMARK SMILES IDX 20 1 21 2 22 3 23 4 28 5 29 6 19 7 7 8 8 9 9 10 18 11 6 12
REMARK SMILES IDX 3 13 4 14 31 15 5 16 30 17 2 18 1 19 32 20 33 21 10 22 11 23
REMARK SMILES IDX 17 24 12 25 15 26 14 27 13 28 16 29 24 30 26 31 27 32 25 33
REMARK H PARENT 25 34 25 35
ROOT
ATOM      1  C   UNL     1     -22.120 -40.604  25.537  1.00  0.00     0.060 A 
ATOM      2  C   UNL     1     -23.122 -40.041  24.727  1.00  0.00     0.029 A 
ATOM      3  C   UNL     1     -24.241 -39.401  25.275  1.00  0.00     0.024 A 
ATOM      4  C   UNL     1     -24.370 -39.307  26.659  1.00  0.00     0.082 A 
ATOM      5  C   UNL     1     -23.405 -39.864  27.495  1.00  0.00     0.024 A 
ATOM      6  C   UNL     1     -22.293 -40.498  26.931  1.00  0.00     0.029 A 
ENDROOT
BRANCH   1   7
ATOM      7  N   UNL     1     -20.998 -41.238  25.007  1.00  0.00    -0.257 N 
ATOM      8  C   UNL     1     -20.950 -41.984  23.746  1.00  0.00     0.144 C 
ATOM      9  C   UNL     1     -19.650 -42.781  23.873  1.00  0.00     0.091 C 
ATOM     10  C   UNL     1     -19.048 -42.126  25.086  1.00  0.00     0.071 C 
ATOM     11  N   UNL     1     -19.830 -41.300  25.711  1.00  0.00    -0.176 NA
BRANCH   8  12
ATOM     12  C   UNL     1     -20.920 -41.085  22.520  1.00  0.00    -0.019 A 
ATOM     13  C   UNL     1     -20.877 -39.479  20.179  1.00  0.00     0.160 A 
ATOM     14  C   UNL     1     -20.277 -39.041  21.367  1.00  0.00     0.051 A 
ATOM     15  C   UNL     1     -21.474 -40.750  20.157  1.00  0.00     0.161 A 
ATOM     16  C   UNL     1     -20.292 -39.835  22.519  1.00  0.00     0.010 A 
ATOM     17  C   UNL     1     -21.504 -41.529  21.325  1.00  0.00     0.056 A 
BRANCH  13  18
ATOM     18  O   UNL     1     -20.929 -38.723  19.038  1.00  0.00    -0.493 OA
ATOM     19  C   UNL     1     -21.716 -37.539  19.055  1.00  0.00     0.278 C 
ENDBRANCH  13  18
BRANCH  15  20
ATOM     20  O   UNL     1     -22.107 -41.358  19.102  1.00  0.00    -0.493 OA
ATOM     21  C   UNL     1     -23.023 -42.402  19.411  1.00  0.00     0.278 C 
ENDBRANCH  15  20
ENDBRANCH   8  12
BRANCH  10  22
ATOM     22  C   UNL     1     -17.674 -42.435  25.543  1.00  0.00     0.004 A 
ATOM     23  C   UNL     1     -17.387 -42.658  26.892  1.00  0.00     0.049 A 
ATOM     24  C   UNL     1     -16.644 -42.500  24.597  1.00  0.00     0.049 A 
ATOM     25  C   UNL     1     -16.078 -42.946  27.275  1.00  0.00     0.126 A 
ATOM     26  C   UNL     1     -15.347 -42.790  25.008  1.00  0.00     0.126 A 
ATOM     27  C   UNL     1     -15.051 -43.016  26.344  1.00  0.00     0.078 A 
ATOM     28  F   UNL     1     -15.809 -43.160  28.569  1.00  0.00    -0.207 F 
ATOM     29  F   UNL     1     -14.367 -42.854  24.098  1.00  0.00    -0.207 F 
ENDBRANCH  10  22
ENDBRANCH   1   7
BRANCH   4  30
ATOM     30  S   UNL     1     -25.774 -38.495  27.369  1.00  0.00     0.238 S 
ATOM     31  O   UNL     1     -26.932 -38.783  26.557  1.00  0.00    -0.207 OA
ATOM     32  O   UNL     1     -25.393 -37.149  27.732  1.00  0.00    -0.207 OA
BRANCH  30  33
ATOM     33  N   UNL     1     -25.940 -39.326  28.825  1.00  0.00    -0.225 NA
ATOM     34  H   UNL     1     -26.930 -39.354  29.075  1.00  0.00     0.137 HD
ATOM     35  H   UNL     1     -25.369 -38.934  29.575  1.00  0.00     0.137 HD
ENDBRANCH  30  33
ENDBRANCH   4  30
TORSDOF 7
ENDMDL
MODEL 8
REMARK VINA RESULT:    -8.587      4.637      8.056
REMARK INTER + INTRA:         -13.158
REMARK INTER:                 -11.918
REMARK INTRA:                  -1.240
REMARK UNBOUND:                -1.309
REMARK SMILES COc1ccc([C@H]2CC(c3cc(F)cc(F)c3)=NN2c2ccc(S(N)(=O)=O)cc2)cc1OC
REMARK SMILES IDX 20 1 21 2 22 3 23 4 28 5 29 6 19 7 7 8 8 9 9 10 18 11 6 12
REMARK SMILES IDX 3 13 4 14 31 15 5 16 30 17 2 18 1 19 32 20 33 21 10 22 11 23
REMARK SMILES IDX 17 24 12 25 15 26 14 27 13 28 16 29 24 30 26 31 27 32 25 33
REMARK H PARENT 25 34 25 35
ROOT
ATOM      1  C   UNL     1     -18.698 -42.337  25.884  1.00  0.00     0.060 A 
ATOM      2  C   UNL     1     -18.022 -42.524  24.665  1.00  0.00     0.029 A 
ATOM      3  C   UNL     1     -16.646 -42.778  24.616  1.00  0.00     0.024 A 
ATOM      4  C   UNL     1     -15.919 -42.856  25.801  1.00  0.00     0.082 A 
ATOM      5  C   UNL     1     -16.549 -42.663  27.028  1.00  0.00     0.024 A 
ATOM      6  C   UNL     1     -17.925 -42.413  27.059  1.00  0.00     0.029 A 
ENDROOT
BRANCH   1   7
ATOM      7  N   UNL     1     -20.068 -42.090  25.949  1.00  0.00    -0.257 N 
ATOM      8  C   UNL     1     -20.774 -40.988  25.289  1.00  0.00     0.144 C 
ATOM      9  C   UNL     1     -22.119 -40.962  26.020  1.00  0.00     0.091 C 
ATOM     10  C   UNL     1     -22.034 -42.250  26.789  1.00  0.00     0.071 C 
ATOM     11  N   UNL     1     -20.876 -42.836  26.757  1.00  0.00    -0.176 NA
BRANCH   8  12
ATOM     12  C   UNL     1     -20.968 -41.210  23.798  1.00  0.00    -0.019 A 
ATOM     13  C   UNL     1     -21.316 -41.537  20.999  1.00  0.00     0.160 A 
ATOM     14  C   UNL     1     -21.858 -42.457  21.907  1.00  0.00     0.051 A 
ATOM     15  C   UNL     1     -20.621 -40.425  21.503  1.00  0.00     0.161 A 
ATOM     16  C   UNL     1     -21.693 -42.292  23.286  1.00  0.00     0.010 A 
ATOM     17  C   UNL     1     -20.442 -40.282  22.889  1.00  0.00     0.056 A 
BRANCH  13  18
ATOM     18  O   UNL     1     -21.410 -41.675  19.640  1.00  0.00    -0.493 OA
ATOM     19  C   UNL     1     -22.646 -41.346  19.018  1.00  0.00     0.278 C 
ENDBRANCH  13  18
BRANCH  15  20
ATOM     20  O   UNL     1     -20.022 -39.418  20.787  1.00  0.00    -0.493 OA
ATOM     21  C   UNL     1     -20.859 -38.363  20.330  1.00  0.00     0.278 C 
ENDBRANCH  15  20
ENDBRANCH   8  12
BRANCH  10  22
ATOM     22  C   UNL     1     -23.185 -42.784  27.553  1.00  0.00     0.004 A 
ATOM     23  C   UNL     1     -23.174 -44.078  28.081  1.00  0.00     0.049 A 
ATOM     24  C   UNL     1     -24.307 -41.969  27.744  1.00  0.00     0.049 A 
ATOM     25  C   UNL     1     -24.280 -44.536  28.793  1.00  0.00     0.126 A 
ATOM     26  C   UNL     1     -25.397 -42.453  28.460  1.00  0.00     0.126 A 
ATOM     27  C   UNL     1     -25.396 -43.735  28.991  1.00  0.00     0.078 A 
ATOM     28  F   UNL     1     -24.264 -45.777  29.297  1.00  0.00    -0.207 F 
ATOM     29  F   UNL     1     -26.467 -41.668  28.643  1.00  0.00    -0.207 F 
ENDBRANCH  10  22
ENDBRANCH   1   7
BRANCH   4  30
ATOM     30  S   UNL     1     -14.179 -43.184  25.758  1.00  0.00     0.238 S 
ATOM     31  O   UNL     1     -13.548 -42.463  26.837  1.00  0.00    -0.207 OA
ATOM     32  O   UNL     1     -13.727 -43.089  24.388  1.00  0.00    -0.207 OA
BRANCH  30  33
ATOM     33  N   UNL     1     -14.138 -44.825  26.134  1.00  0.00    -0.225 NA
ATOM     34  H   UNL     1     -13.163 -45.117  26.219  1.00  0.00     0.137 HD
ATOM     35  H   UNL     1     -14.652 -45.401  25.466  1.00  0.00     0.137 HD
ENDBRANCH  30  33
ENDBRANCH   4  30
TORSDOF 7
ENDMDL
MODEL 9
REMARK VINA RESULT:    -8.504      3.411      6.156
REMARK INTER + INTRA:         -13.044
REMARK INTER:                 -11.928
REMARK INTRA:                  -1.115
REMARK UNBOUND:                -1.309
REMARK SMILES COc1ccc([C@H]2CC(c3cc(F)cc(F)c3)=NN2c2ccc(S(N)(=O)=O)cc2)cc1OC
REMARK SMILES IDX 20 1 21 2 22 3 23 4 28 5 29 6 19 7 7 8 8 9 9 10 18 11 6 12
REMARK SMILES IDX 3 13 4 14 31 15 5 16 30 17 2 18 1 19 32 20 33 21 10 22 11 23
REMARK SMILES IDX 17 24 12 25 15 26 14 27 13 28 16 29 24 30 26 31 27 32 25 33
REMARK H PARENT 25 34 25 35
ROOT
ATOM      1  C   UNL     1     -22.447 -40.465  25.694  1.00  0.00     0.060 A 
ATOM      2  C   UNL     1     -23.440 -39.845  24.915  1.00  0.00     0.029 A 
ATOM      3  C   UNL     1     -24.543 -39.207  25.496  1.00  0.00     0.024 A 
ATOM      4  C   UNL     1     -24.665 -39.175  26.883  1.00  0.00     0.082 A 
ATOM      5  C   UNL     1     -23.711 -39.789  27.689  1.00  0.00     0.024 A 
ATOM      6  C   UNL     1     -22.614 -40.420  27.092  1.00  0.00     0.029 A 
ENDROOT
BRANCH   1   7
ATOM      7  N   UNL     1     -21.341 -41.099  25.131  1.00  0.00    -0.257 N 
ATOM      8  C   UNL     1     -21.305 -41.763  23.825  1.00  0.00     0.144 C 
ATOM      9  C   UNL     1     -20.030 -42.606  23.909  1.00  0.00     0.091 C 
ATOM     10  C   UNL     1     -19.419 -42.048  25.164  1.00  0.00     0.071 C 
ATOM     11  N   UNL     1     -20.181 -41.240  25.836  1.00  0.00    -0.176 NA
BRANCH   8  12
ATOM     12  C   UNL     1     -21.238 -40.789  22.659  1.00  0.00    -0.019 A 
ATOM     13  C   UNL     1     -21.159 -39.029  20.434  1.00  0.00     0.160 A 
ATOM     14  C   UNL     1     -20.223 -38.924  21.471  1.00  0.00     0.051 A 
ATOM     15  C   UNL     1     -22.123 -40.049  20.498  1.00  0.00     0.161 A 
ATOM     16  C   UNL     1     -20.258 -39.795  22.565  1.00  0.00     0.010 A 
ATOM     17  C   UNL     1     -22.162 -40.904  21.612  1.00  0.00     0.056 A 
BRANCH  13  18
ATOM     18  O   UNL     1     -21.198 -38.175  19.364  1.00  0.00    -0.493 OA
ATOM     19  C   UNL     1     -22.235 -37.203  19.321  1.00  0.00     0.278 C 
ENDBRANCH  13  18
BRANCH  15  20
ATOM     20  O   UNL     1     -23.116 -40.319  19.590  1.00  0.00    -0.493 OA
ATOM     21  C   UNL     1     -24.175 -41.165  20.022  1.00  0.00     0.278 C 
ENDBRANCH  15  20
ENDBRANCH   8  12
BRANCH  10  22
ATOM     22  C   UNL     1     -18.058 -42.428  25.609  1.00  0.00     0.004 A 
ATOM     23  C   UNL     1     -17.062 -42.779  24.694  1.00  0.00     0.049 A 
ATOM     24  C   UNL     1     -17.772 -42.435  26.980  1.00  0.00     0.049 A 
ATOM     25  C   UNL     1     -15.796 -43.128  25.161  1.00  0.00     0.126 A 
ATOM     26  C   UNL     1     -16.499 -42.788  27.416  1.00  0.00     0.126 A 
ATOM     27  C   UNL     1     -15.502 -43.135  26.517  1.00  0.00     0.078 A 
ATOM     28  F   UNL     1     -14.846 -43.462  24.279  1.00  0.00    -0.207 F 
ATOM     29  F   UNL     1     -16.231 -42.791  28.728  1.00  0.00    -0.207 F 
ENDBRANCH  10  22
ENDBRANCH   1   7
BRANCH   4  30
ATOM     30  S   UNL     1     -26.050 -38.366  27.635  1.00  0.00     0.238 S 
ATOM     31  O   UNL     1     -27.179 -38.462  26.742  1.00  0.00    -0.207 OA
ATOM     32  O   UNL     1     -25.603 -37.111  28.194  1.00  0.00    -0.207 OA
BRANCH  30  33
ATOM     33  N   UNL     1     -26.345 -39.369  28.956  1.00  0.00    -0.225 NA
ATOM     34  H   UNL     1     -25.745 -40.192  28.882  1.00  0.00     0.137 HD
ATOM     35  H   UNL     1     -27.329 -39.623  29.053  1.00  0.00     0.137 HD
ENDBRANCH  30  33
ENDBRANCH   4  30
TORSDOF 7
ENDMDL
