MODEL 1
REMARK VINA RESULT:   -11.432      0.000      0.000
REMARK INTER + INTRA:         -16.053
REMARK INTER:                 -15.776
REMARK INTRA:                  -0.277
REMARK UNBOUND:                -0.277
REMARK SMILES COc1cc2c(cc1OC)C(O)=C(C[C@H]1CC[N@@H+](Cc3ccccc3)CC1)C2
REMARK SMILES IDX 14 1 13 2 11 3 6 4 28 5 7 6 5 7 8 8 4 9 3 10 12 11 9 13
REMARK SMILES IDX 10 14 2 15 1 16 15 17 16 18 27 19 17 20 26 21 18 22 19 24
REMARK SMILES IDX 20 25 21 26 25 27 22 28 24 29 23 30
REMARK H PARENT 12 12 18 23
ROOT
ATOM      1  C   UNL     1     -13.399 -43.506  26.924  1.00  0.00     0.039 C 
ENDROOT
BRANCH   1   2
ATOM      2  C   UNL     1     -14.699 -43.142  26.287  1.00  0.00    -0.023 C 
ATOM      3  C   UNL     1     -15.014 -43.204  24.984  1.00  0.00     0.122 C 
ATOM      4  C   UNL     1     -16.409 -42.838  24.796  1.00  0.00     0.024 A 
ATOM      5  C   UNL     1     -15.921 -42.808  27.126  1.00  0.00     0.071 C 
ATOM      6  C   UNL     1     -17.169 -42.681  23.646  1.00  0.00     0.062 A 
ATOM      7  C   UNL     1     -16.953 -42.586  26.061  1.00  0.00    -0.029 A 
ATOM      8  C   UNL     1     -18.508 -42.272  23.769  1.00  0.00     0.161 A 
ATOM      9  C   UNL     1     -18.266 -42.183  26.206  1.00  0.00     0.055 A 
ATOM     10  C   UNL     1     -19.053 -42.039  25.056  1.00  0.00     0.161 A 
BRANCH   3  11
ATOM     11  O   UNL     1     -14.191 -43.550  23.962  1.00  0.00    -0.507 OA
ATOM     12  H   UNL     1     -13.312 -43.171  24.152  1.00  0.00     0.293 HD
ENDBRANCH   3  11
BRANCH   8  13
ATOM     13  O   UNL     1     -19.322 -42.022  22.695  1.00  0.00    -0.493 OA
ATOM     14  C   UNL     1     -19.196 -40.767  22.039  1.00  0.00     0.278 C 
ENDBRANCH   8  13
BRANCH  10  15
ATOM     15  O   UNL     1     -20.328 -41.602  25.312  1.00  0.00    -0.493 OA
ATOM     16  C   UNL     1     -20.600 -41.312  26.681  1.00  0.00     0.278 C 
ENDBRANCH  10  15
ENDBRANCH   1   2
BRANCH   1  17
ATOM     17  C   UNL     1     -13.279 -44.886  27.613  1.00  0.00     0.004 C 
ATOM     18  C   UNL     1     -14.145 -45.056  28.867  1.00  0.00     0.065 C 
ATOM     19  C   UNL     1     -11.831 -45.339  27.856  1.00  0.00     0.065 C 
ATOM     20  C   UNL     1     -13.486 -44.605  30.164  1.00  0.00     0.262 C 
ATOM     21  C   UNL     1     -11.222 -44.899  29.180  1.00  0.00     0.262 C 
ATOM     22  N   UNL     1     -12.145 -45.267  30.314  1.00  0.00    -0.331 N 
ATOM     23  H   UNL     1     -12.280 -46.284  30.280  1.00  0.00     0.348 HD
BRANCH  22  24
ATOM     24  C   UNL     1     -11.538 -44.966  31.670  1.00  0.00     0.299 C 
BRANCH  24  25
ATOM     25  C   UNL     1     -10.042 -45.123  31.694  1.00  0.00     0.006 A 
ATOM     26  C   UNL     1      -9.219 -44.054  32.082  1.00  0.00     0.009 A 
ATOM     27  C   UNL     1      -9.447 -46.334  31.311  1.00  0.00     0.009 A 
ATOM     28  C   UNL     1      -7.831 -44.194  32.079  1.00  0.00     0.001 A 
ATOM     29  C   UNL     1      -8.058 -46.470  31.311  1.00  0.00     0.001 A 
ATOM     30  C   UNL     1      -7.252 -45.400  31.692  1.00  0.00     0.000 A 
ENDBRANCH  24  25
ENDBRANCH  22  24
ENDBRANCH   1  17
TORSDOF 7
ENDMDL
MODEL 2
REMARK VINA RESULT:   -11.256      3.839      8.921
REMARK INTER + INTRA:         -15.810
REMARK INTER:                 -14.859
REMARK INTRA:                  -0.951
REMARK UNBOUND:                -0.277
REMARK SMILES COc1cc2c(cc1OC)C(O)=C(C[C@H]1CC[N@@H+](Cc3ccccc3)CC1)C2
REMARK SMILES IDX 14 1 13 2 11 3 6 4 28 5 7 6 5 7 8 8 4 9 3 10 12 11 9 13
REMARK SMILES IDX 10 14 2 15 1 16 15 17 16 18 27 19 17 20 26 21 18 22 19 24
REMARK SMILES IDX 20 25 21 26 25 27 22 28 24 29 23 30
REMARK H PARENT 12 12 18 23
ROOT
ATOM      1  C   UNL     1     -11.538 -46.521  29.531  1.00  0.00     0.039 C 
ENDROOT
BRANCH   1   2
ATOM      2  C   UNL     1     -11.793 -45.447  30.536  1.00  0.00    -0.023 C 
ATOM      3  C   UNL     1     -12.979 -45.053  31.024  1.00  0.00     0.122 C 
ATOM      4  C   UNL     1     -12.780 -44.035  32.042  1.00  0.00     0.024 A 
ATOM      5  C   UNL     1     -10.650 -44.771  31.275  1.00  0.00     0.071 C 
ATOM      6  C   UNL     1     -13.685 -43.277  32.772  1.00  0.00     0.062 A 
ATOM      7  C   UNL     1     -11.400 -43.849  32.188  1.00  0.00    -0.029 A 
ATOM      8  C   UNL     1     -13.194 -42.319  33.675  1.00  0.00     0.161 A 
ATOM      9  C   UNL     1     -10.895 -42.913  33.069  1.00  0.00     0.055 A 
ATOM     10  C   UNL     1     -11.795 -42.154  33.828  1.00  0.00     0.161 A 
BRANCH   3  11
ATOM     11  O   UNL     1     -14.205 -45.507  30.655  1.00  0.00    -0.507 OA
ATOM     12  H   UNL     1     -14.861 -44.844  30.938  1.00  0.00     0.293 HD
ENDBRANCH   3  11
BRANCH   8  13
ATOM     13  O   UNL     1     -14.001 -41.474  34.391  1.00  0.00    -0.493 OA
ATOM     14  C   UNL     1     -15.318 -41.240  33.910  1.00  0.00     0.278 C 
ENDBRANCH   8  13
BRANCH  10  15
ATOM     15  O   UNL     1     -11.188 -41.233  34.644  1.00  0.00    -0.493 OA
ATOM     16  C   UNL     1      -9.891 -41.602  35.106  1.00  0.00     0.278 C 
ENDBRANCH  10  15
ENDBRANCH   1   2
BRANCH   1  17
ATOM     17  C   UNL     1     -11.496 -46.133  28.035  1.00  0.00     0.004 C 
ATOM     18  C   UNL     1     -10.865 -44.766  27.743  1.00  0.00     0.065 C 
ATOM     19  C   UNL     1     -12.838 -46.307  27.306  1.00  0.00     0.065 C 
ATOM     20  C   UNL     1     -11.834 -43.592  27.786  1.00  0.00     0.262 C 
ATOM     21  C   UNL     1     -13.762 -45.098  27.342  1.00  0.00     0.262 C 
ATOM     22  N   UNL     1     -13.012 -43.868  26.894  1.00  0.00    -0.331 N 
ATOM     23  H   UNL     1     -12.665 -44.051  25.945  1.00  0.00     0.348 HD
BRANCH  22  24
ATOM     24  C   UNL     1     -13.912 -42.653  26.789  1.00  0.00     0.299 C 
BRANCH  24  25
ATOM     25  C   UNL     1     -15.028 -42.830  25.796  1.00  0.00     0.006 A 
ATOM     26  C   UNL     1     -14.750 -43.180  24.466  1.00  0.00     0.009 A 
ATOM     27  C   UNL     1     -16.363 -42.633  26.182  1.00  0.00     0.009 A 
ATOM     28  C   UNL     1     -15.786 -43.319  23.541  1.00  0.00     0.001 A 
ATOM     29  C   UNL     1     -17.395 -42.775  25.254  1.00  0.00     0.001 A 
ATOM     30  C   UNL     1     -17.106 -43.115  23.934  1.00  0.00     0.000 A 
ENDBRANCH  24  25
ENDBRANCH  22  24
ENDBRANCH   1  17
TORSDOF 7
ENDMDL
MODEL 3
REMARK VINA RESULT:   -11.210      0.954      2.283
REMARK INTER + INTRA:         -15.746
REMARK INTER:                 -15.498
REMARK INTRA:                  -0.248
REMARK UNBOUND:                -0.277
REMARK SMILES COc1cc2c(cc1OC)C(O)=C(C[C@H]1CC[N@@H+](Cc3ccccc3)CC1)C2
REMARK SMILES IDX 14 1 13 2 11 3 6 4 28 5 7 6 5 7 8 8 4 9 3 10 12 11 9 13
REMARK SMILES IDX 10 14 2 15 1 16 15 17 16 18 27 19 17 20 26 21 18 22 19 24
REMARK SMILES IDX 20 25 21 26 25 27 22 28 24 29 23 30
REMARK H PARENT 12 12 18 23
ROOT
ATOM      1  C   UNL     1     -13.534 -43.530  27.101  1.00  0.00     0.039 C 
ENDROOT
BRANCH   1   2
ATOM      2  C   UNL     1     -14.851 -43.227  26.469  1.00  0.00    -0.023 C 
ATOM      3  C   UNL     1     -15.980 -42.840  27.083  1.00  0.00     0.122 C 
ATOM      4  C   UNL     1     -17.012 -42.569  26.094  1.00  0.00     0.024 A 
ATOM      5  C   UNL     1     -15.004 -43.159  24.959  1.00  0.00     0.071 C 
ATOM      6  C   UNL     1     -18.348 -42.221  26.233  1.00  0.00     0.062 A 
ATOM      7  C   UNL     1     -16.446 -42.771  24.829  1.00  0.00    -0.029 A 
ATOM      8  C   UNL     1     -19.130 -42.061  25.078  1.00  0.00     0.161 A 
ATOM      9  C   UNL     1     -17.196 -42.620  23.679  1.00  0.00     0.055 A 
ATOM     10  C   UNL     1     -18.542 -42.249  23.803  1.00  0.00     0.161 A 
BRANCH   3  11
ATOM     11  O   UNL     1     -16.177 -42.705  28.420  1.00  0.00    -0.507 OA
ATOM     12  H   UNL     1     -15.498 -43.240  28.871  1.00  0.00     0.293 HD
ENDBRANCH   3  11
BRANCH   8  13
ATOM     13  O   UNL     1     -20.473 -41.786  25.108  1.00  0.00    -0.493 OA
ATOM     14  C   UNL     1     -21.023 -41.274  26.314  1.00  0.00     0.278 C 
ENDBRANCH   8  13
BRANCH  10  15
ATOM     15  O   UNL     1     -19.201 -42.161  22.602  1.00  0.00    -0.493 OA
ATOM     16  C   UNL     1     -19.135 -40.884  21.972  1.00  0.00     0.278 C 
ENDBRANCH  10  15
ENDBRANCH   1   2
BRANCH   1  17
ATOM     17  C   UNL     1     -13.350 -44.899  27.797  1.00  0.00     0.004 C 
ATOM     18  C   UNL     1     -14.152 -45.073  29.093  1.00  0.00     0.065 C 
ATOM     19  C   UNL     1     -11.881 -45.316  27.977  1.00  0.00     0.065 C 
ATOM     20  C   UNL     1     -13.443 -44.594  30.353  1.00  0.00     0.262 C 
ATOM     21  C   UNL     1     -11.222 -44.847  29.266  1.00  0.00     0.262 C 
ATOM     22  N   UNL     1     -12.082 -45.224  30.446  1.00  0.00    -0.331 N 
ATOM     23  H   UNL     1     -12.194 -46.244  30.429  1.00  0.00     0.348 HD
BRANCH  22  24
ATOM     24  C   UNL     1     -11.419 -44.894  31.769  1.00  0.00     0.299 C 
BRANCH  24  25
ATOM     25  C   UNL     1      -9.925 -45.065  31.738  1.00  0.00     0.006 A 
ATOM     26  C   UNL     1      -9.355 -46.284  31.337  1.00  0.00     0.009 A 
ATOM     27  C   UNL     1      -9.079 -44.015  32.125  1.00  0.00     0.009 A 
ATOM     28  C   UNL     1      -7.969 -46.448  31.333  1.00  0.00     0.001 A 
ATOM     29  C   UNL     1      -7.694 -44.184  32.118  1.00  0.00     0.001 A 
ATOM     30  C   UNL     1      -7.140 -45.400  31.725  1.00  0.00     0.000 A 
ENDBRANCH  24  25
ENDBRANCH  22  24
ENDBRANCH   1  17
TORSDOF 7
ENDMDL
MODEL 4
REMARK VINA RESULT:   -10.670      4.060      8.886
REMARK INTER + INTRA:         -15.001
REMARK INTER:                 -14.149
REMARK INTRA:                  -0.852
REMARK UNBOUND:                -0.277
REMARK SMILES COc1cc2c(cc1OC)C(O)=C(C[C@H]1CC[N@@H+](Cc3ccccc3)CC1)C2
REMARK SMILES IDX 14 1 13 2 11 3 6 4 28 5 7 6 5 7 8 8 4 9 3 10 12 11 9 13
REMARK SMILES IDX 10 14 2 15 1 16 15 17 16 18 27 19 17 20 26 21 18 22 19 24
REMARK SMILES IDX 20 25 21 26 25 27 22 28 24 29 23 30
REMARK H PARENT 12 12 18 23
ROOT
ATOM      1  C   UNL     1     -11.642 -46.531  29.486  1.00  0.00     0.039 C 
ENDROOT
BRANCH   1   2
ATOM      2  C   UNL     1     -11.840 -45.502  30.550  1.00  0.00    -0.023 C 
ATOM      3  C   UNL     1     -10.895 -44.778  31.170  1.00  0.00     0.122 C 
ATOM      4  C   UNL     1     -11.517 -43.832  32.081  1.00  0.00     0.024 A 
ATOM      5  C   UNL     1     -13.230 -45.026  30.937  1.00  0.00     0.071 C 
ATOM      6  C   UNL     1     -10.970 -42.933  32.986  1.00  0.00     0.062 A 
ATOM      7  C   UNL     1     -12.904 -43.981  31.962  1.00  0.00    -0.029 A 
ATOM      8  C   UNL     1     -11.833 -42.161  33.780  1.00  0.00     0.161 A 
ATOM      9  C   UNL     1     -13.772 -43.233  32.733  1.00  0.00     0.055 A 
ATOM     10  C   UNL     1     -13.235 -42.307  33.637  1.00  0.00     0.161 A 
BRANCH   3  11
ATOM     11  O   UNL     1      -9.551 -44.878  31.003  1.00  0.00    -0.507 OA
ATOM     12  H   UNL     1      -9.296 -45.794  31.218  1.00  0.00     0.293 HD
ENDBRANCH   3  11
BRANCH   8  13
ATOM     13  O   UNL     1     -11.395 -41.297  34.750  1.00  0.00    -0.493 OA
ATOM     14  C   UNL     1     -10.073 -41.463  35.246  1.00  0.00     0.278 C 
ENDBRANCH   8  13
BRANCH  10  15
ATOM     15  O   UNL     1     -14.183 -41.644  34.374  1.00  0.00    -0.493 OA
ATOM     16  C   UNL     1     -15.337 -41.237  33.643  1.00  0.00     0.278 C 
ENDBRANCH  10  15
ENDBRANCH   1   2
BRANCH   1  17
ATOM     17  C   UNL     1     -11.552 -46.059  28.016  1.00  0.00     0.004 C 
ATOM     18  C   UNL     1     -10.926 -44.672  27.823  1.00  0.00     0.065 C 
ATOM     19  C   UNL     1     -12.865 -46.204  27.231  1.00  0.00     0.065 C 
ATOM     20  C   UNL     1     -11.909 -43.511  27.896  1.00  0.00     0.262 C 
ATOM     21  C   UNL     1     -13.803 -45.007  27.301  1.00  0.00     0.262 C 
ATOM     22  N   UNL     1     -13.052 -43.747  26.950  1.00  0.00    -0.331 N 
ATOM     23  H   UNL     1     -12.670 -43.874  26.005  1.00  0.00     0.348 HD
BRANCH  22  24
ATOM     24  C   UNL     1     -13.961 -42.536  26.880  1.00  0.00     0.299 C 
BRANCH  24  25
ATOM     25  C   UNL     1     -15.058 -42.681  25.862  1.00  0.00     0.006 A 
ATOM     26  C   UNL     1     -14.752 -42.868  24.505  1.00  0.00     0.009 A 
ATOM     27  C   UNL     1     -16.405 -42.615  26.252  1.00  0.00     0.009 A 
ATOM     28  C   UNL     1     -15.773 -42.977  23.559  1.00  0.00     0.001 A 
ATOM     29  C   UNL     1     -17.421 -42.725  25.303  1.00  0.00     0.001 A 
ATOM     30  C   UNL     1     -17.105 -42.903  23.958  1.00  0.00     0.000 A 
ENDBRANCH  24  25
ENDBRANCH  22  24
ENDBRANCH   1  17
TORSDOF 7
ENDMDL
MODEL 5
REMARK VINA RESULT:   -10.521      2.014      3.658
REMARK INTER + INTRA:         -14.795
REMARK INTER:                 -15.160
REMARK INTRA:                   0.364
REMARK UNBOUND:                -0.277
REMARK SMILES COc1cc2c(cc1OC)C(O)=C(C[C@H]1CC[N@@H+](Cc3ccccc3)CC1)C2
REMARK SMILES IDX 14 1 13 2 11 3 6 4 28 5 7 6 5 7 8 8 4 9 3 10 12 11 9 13
REMARK SMILES IDX 10 14 2 15 1 16 15 17 16 18 27 19 17 20 26 21 18 22 19 24
REMARK SMILES IDX 20 25 21 26 25 27 22 28 24 29 23 30
REMARK H PARENT 12 12 18 23
ROOT
ATOM      1  C   UNL     1     -12.737 -45.485  28.848  1.00  0.00     0.039 C 
ENDROOT
BRANCH   1   2
ATOM      2  C   UNL     1     -13.789 -44.799  28.042  1.00  0.00    -0.023 C 
ATOM      3  C   UNL     1     -14.840 -44.100  28.499  1.00  0.00     0.122 C 
ATOM      4  C   UNL     1     -15.574 -43.526  27.383  1.00  0.00     0.024 A 
ATOM      5  C   UNL     1     -13.671 -44.675  26.532  1.00  0.00     0.071 C 
ATOM      6  C   UNL     1     -16.755 -42.799  27.339  1.00  0.00     0.062 A 
ATOM      7  C   UNL     1     -14.897 -43.875  26.209  1.00  0.00    -0.029 A 
ATOM      8  C   UNL     1     -17.260 -42.403  26.089  1.00  0.00     0.161 A 
ATOM      9  C   UNL     1     -15.375 -43.497  24.969  1.00  0.00     0.055 A 
ATOM     10  C   UNL     1     -16.555 -42.745  24.909  1.00  0.00     0.161 A 
BRANCH   3  11
ATOM     11  O   UNL     1     -15.201 -43.926  29.797  1.00  0.00    -0.507 OA
ATOM     12  H   UNL     1     -15.653 -43.065  29.863  1.00  0.00     0.293 HD
ENDBRANCH   3  11
BRANCH   8  13
ATOM     13  O   UNL     1     -18.451 -41.742  25.932  1.00  0.00    -0.493 OA
ATOM     14  C   UNL     1     -19.630 -42.361  26.430  1.00  0.00     0.278 C 
ENDBRANCH   8  13
BRANCH  10  15
ATOM     15  O   UNL     1     -16.958 -42.454  23.630  1.00  0.00    -0.493 OA
ATOM     16  C   UNL     1     -16.055 -41.639  22.886  1.00  0.00     0.278 C 
ENDBRANCH  10  15
ENDBRANCH   1   2
BRANCH   1  17
ATOM     17  C   UNL     1     -11.261 -45.337  28.408  1.00  0.00     0.004 C 
ATOM     18  C   UNL     1     -10.308 -46.388  28.991  1.00  0.00     0.065 C 
ATOM     19  C   UNL     1     -10.702 -43.914  28.564  1.00  0.00     0.065 C 
ATOM     20  C   UNL     1      -9.705 -46.025  30.341  1.00  0.00     0.262 C 
ATOM     21  C   UNL     1     -10.076 -43.603  29.916  1.00  0.00     0.262 C 
ATOM     22  N   UNL     1      -9.065 -44.667  30.268  1.00  0.00    -0.331 N 
ATOM     23  H   UNL     1      -8.363 -44.679  29.519  1.00  0.00     0.348 HD
BRANCH  22  24
ATOM     24  C   UNL     1      -8.315 -44.348  31.546  1.00  0.00     0.299 C 
BRANCH  24  25
ATOM     25  C   UNL     1      -9.134 -43.553  32.526  1.00  0.00     0.006 A 
ATOM     26  C   UNL     1     -10.534 -43.535  32.436  1.00  0.00     0.009 A 
ATOM     27  C   UNL     1      -8.508 -42.803  33.534  1.00  0.00     0.009 A 
ATOM     28  C   UNL     1     -11.290 -42.776  33.332  1.00  0.00     0.001 A 
ATOM     29  C   UNL     1      -9.268 -42.047  34.427  1.00  0.00     0.001 A 
ATOM     30  C   UNL     1     -10.657 -42.032  34.324  1.00  0.00     0.000 A 
ENDBRANCH  24  25
ENDBRANCH  22  24
ENDBRANCH   1  17
TORSDOF 7
ENDMDL
MODEL 6
REMARK VINA RESULT:   -10.329      1.635      2.974
REMARK INTER + INTRA:         -14.531
REMARK INTER:                 -13.788
REMARK INTRA:                  -0.744
REMARK UNBOUND:                -0.277
REMARK SMILES COc1cc2c(cc1OC)C(O)=C(C[C@H]1CC[N@@H+](Cc3ccccc3)CC1)C2
REMARK SMILES IDX 14 1 13 2 11 3 6 4 28 5 7 6 5 7 8 8 4 9 3 10 12 11 9 13
REMARK SMILES IDX 10 14 2 15 1 16 15 17 16 18 27 19 17 20 26 21 18 22 19 24
REMARK SMILES IDX 20 25 21 26 25 27 22 28 24 29 23 30
REMARK H PARENT 12 12 18 23
ROOT
ATOM      1  C   UNL     1     -14.967 -43.404  24.981  1.00  0.00     0.039 C 
ENDROOT
BRANCH   1   2
ATOM      2  C   UNL     1     -16.108 -42.717  24.308  1.00  0.00    -0.023 C 
ATOM      3  C   UNL     1     -16.046 -41.818  23.314  1.00  0.00     0.122 C 
ATOM      4  C   UNL     1     -17.390 -41.458  22.890  1.00  0.00     0.024 A 
ATOM      5  C   UNL     1     -17.546 -43.121  24.586  1.00  0.00     0.071 C 
ATOM      6  C   UNL     1     -17.842 -40.528  21.964  1.00  0.00     0.062 A 
ATOM      7  C   UNL     1     -18.289 -42.215  23.650  1.00  0.00    -0.029 A 
ATOM      8  C   UNL     1     -19.226 -40.364  21.790  1.00  0.00     0.161 A 
ATOM      9  C   UNL     1     -19.654 -42.071  23.496  1.00  0.00     0.055 A 
ATOM     10  C   UNL     1     -20.126 -41.151  22.551  1.00  0.00     0.161 A 
BRANCH   3  11
ATOM     11  O   UNL     1     -14.924 -41.296  22.755  1.00  0.00    -0.507 OA
ATOM     12  H   UNL     1     -14.313 -42.035  22.579  1.00  0.00     0.293 HD
ENDBRANCH   3  11
BRANCH   8  13
ATOM     13  O   UNL     1     -19.775 -39.428  20.953  1.00  0.00    -0.493 OA
ATOM     14  C   UNL     1     -20.066 -39.814  19.616  1.00  0.00     0.278 C 
ENDBRANCH   8  13
BRANCH  10  15
ATOM     15  O   UNL     1     -21.495 -41.062  22.505  1.00  0.00    -0.493 OA
ATOM     16  C   UNL     1     -22.095 -40.440  23.638  1.00  0.00     0.278 C 
ENDBRANCH  10  15
ENDBRANCH   1   2
BRANCH   1  17
ATOM     17  C   UNL     1     -14.399 -42.786  26.280  1.00  0.00     0.004 C 
ATOM     18  C   UNL     1     -12.931 -43.128  26.567  1.00  0.00     0.065 C 
ATOM     19  C   UNL     1     -15.286 -43.005  27.516  1.00  0.00     0.065 C 
ATOM     20  C   UNL     1     -12.717 -44.413  27.355  1.00  0.00     0.262 C 
ATOM     21  C   UNL     1     -15.015 -44.283  28.296  1.00  0.00     0.262 C 
ATOM     22  N   UNL     1     -13.543 -44.388  28.610  1.00  0.00    -0.331 N 
ATOM     23  H   UNL     1     -13.286 -43.553  29.151  1.00  0.00     0.348 HD
BRANCH  22  24
ATOM     24  C   UNL     1     -13.227 -45.578  29.494  1.00  0.00     0.299 C 
BRANCH  24  25
ATOM     25  C   UNL     1     -11.953 -45.409  30.277  1.00  0.00     0.006 A 
ATOM     26  C   UNL     1     -10.840 -46.222  30.011  1.00  0.00     0.009 A 
ATOM     27  C   UNL     1     -11.865 -44.448  31.296  1.00  0.00     0.009 A 
ATOM     28  C   UNL     1      -9.668 -46.080  30.755  1.00  0.00     0.001 A 
ATOM     29  C   UNL     1     -10.691 -44.310  32.037  1.00  0.00     0.001 A 
ATOM     30  C   UNL     1      -9.595 -45.127  31.768  1.00  0.00     0.000 A 
ENDBRANCH  24  25
ENDBRANCH  22  24
ENDBRANCH   1  17
TORSDOF 7
ENDMDL
MODEL 7
REMARK VINA RESULT:   -10.250      3.329     10.422
REMARK INTER + INTRA:         -14.422
REMARK INTER:                 -14.028
REMARK INTRA:                  -0.394
REMARK UNBOUND:                -0.277
REMARK SMILES COc1cc2c(cc1OC)C(O)=C(C[C@H]1CC[N@@H+](Cc3ccccc3)CC1)C2
REMARK SMILES IDX 14 1 13 2 11 3 6 4 28 5 7 6 5 7 8 8 4 9 3 10 12 11 9 13
REMARK SMILES IDX 10 14 2 15 1 16 15 17 16 18 27 19 17 20 26 21 18 22 19 24
REMARK SMILES IDX 20 25 21 26 25 27 22 28 24 29 23 30
REMARK H PARENT 12 12 18 23
ROOT
ATOM      1  C   UNL     1     -14.107 -44.443  25.967  1.00  0.00     0.039 C 
ENDROOT
BRANCH   1   2
ATOM      2  C   UNL     1     -13.139 -44.561  27.097  1.00  0.00    -0.023 C 
ATOM      3  C   UNL     1     -12.638 -45.687  27.627  1.00  0.00     0.122 C 
ATOM      4  C   UNL     1     -11.665 -45.357  28.656  1.00  0.00     0.024 A 
ATOM      5  C   UNL     1     -12.457 -43.335  27.681  1.00  0.00     0.071 C 
ATOM      6  C   UNL     1     -10.944 -46.161  29.528  1.00  0.00     0.062 A 
ATOM      7  C   UNL     1     -11.562 -43.962  28.707  1.00  0.00    -0.029 A 
ATOM      8  C   UNL     1     -10.092 -45.551  30.463  1.00  0.00     0.161 A 
ATOM      9  C   UNL     1     -10.731 -43.341  29.619  1.00  0.00     0.055 A 
ATOM     10  C   UNL     1      -9.980 -44.139  30.492  1.00  0.00     0.161 A 
BRANCH   3  11
ATOM     11  O   UNL     1     -12.958 -46.962  27.285  1.00  0.00    -0.507 OA
ATOM     12  H   UNL     1     -13.680 -47.250  27.873  1.00  0.00     0.293 HD
ENDBRANCH   3  11
BRANCH   8  13
ATOM     13  O   UNL     1      -9.389 -46.249  31.411  1.00  0.00    -0.493 OA
ATOM     14  C   UNL     1      -7.996 -46.443  31.203  1.00  0.00     0.278 C 
ENDBRANCH   8  13
BRANCH  10  15
ATOM     15  O   UNL     1      -9.217 -43.419  31.377  1.00  0.00    -0.493 OA
ATOM     16  C   UNL     1      -9.720 -43.378  32.710  1.00  0.00     0.278 C 
ENDBRANCH  10  15
ENDBRANCH   1   2
BRANCH   1  17
ATOM     17  C   UNL     1     -14.582 -43.031  25.550  1.00  0.00     0.004 C 
ATOM     18  C   UNL     1     -15.696 -42.444  26.426  1.00  0.00     0.065 C 
ATOM     19  C   UNL     1     -14.906 -42.897  24.053  1.00  0.00     0.065 C 
ATOM     20  C   UNL     1     -17.110 -42.800  25.987  1.00  0.00     0.262 C 
ATOM     21  C   UNL     1     -16.339 -43.228  23.662  1.00  0.00     0.262 C 
ATOM     22  N   UNL     1     -17.298 -42.458  24.536  1.00  0.00    -0.331 N 
ATOM     23  H   UNL     1     -17.092 -41.460  24.408  1.00  0.00     0.348 HD
BRANCH  22  24
ATOM     24  C   UNL     1     -18.741 -42.650  24.113  1.00  0.00     0.299 C 
BRANCH  24  25
ATOM     25  C   UNL     1     -19.297 -41.471  23.363  1.00  0.00     0.006 A 
ATOM     26  C   UNL     1     -20.526 -40.904  23.735  1.00  0.00     0.009 A 
ATOM     27  C   UNL     1     -18.603 -40.930  22.269  1.00  0.00     0.009 A 
ATOM     28  C   UNL     1     -21.051 -39.826  23.022  1.00  0.00     0.001 A 
ATOM     29  C   UNL     1     -19.132 -39.852  21.560  1.00  0.00     0.001 A 
ATOM     30  C   UNL     1     -20.356 -39.302  21.935  1.00  0.00     0.000 A 
ENDBRANCH  24  25
ENDBRANCH  22  24
ENDBRANCH   1  17
TORSDOF 7
ENDMDL
MODEL 8
REMARK VINA RESULT:   -10.130      3.332     10.938
REMARK INTER + INTRA:         -14.256
REMARK INTER:                 -13.512
REMARK INTRA:                  -0.744
REMARK UNBOUND:                -0.277
REMARK SMILES COc1cc2c(cc1OC)C(O)=C(C[C@H]1CC[N@@H+](Cc3ccccc3)CC1)C2
REMARK SMILES IDX 14 1 13 2 11 3 6 4 28 5 7 6 5 7 8 8 4 9 3 10 12 11 9 13
REMARK SMILES IDX 10 14 2 15 1 16 15 17 16 18 27 19 17 20 26 21 18 22 19 24
REMARK SMILES IDX 20 25 21 26 25 27 22 28 24 29 23 30
REMARK H PARENT 12 12 18 23
ROOT
ATOM      1  C   UNL     1     -16.011 -42.338  24.895  1.00  0.00     0.039 C 
ENDROOT
BRANCH   1   2
ATOM      2  C   UNL     1     -15.271 -43.112  25.935  1.00  0.00    -0.023 C 
ATOM      3  C   UNL     1     -15.521 -43.155  27.252  1.00  0.00     0.122 C 
ATOM      4  C   UNL     1     -14.618 -44.095  27.896  1.00  0.00     0.024 A 
ATOM      5  C   UNL     1     -14.202 -44.123  25.553  1.00  0.00     0.071 C 
ATOM      6  C   UNL     1     -14.437 -44.426  29.232  1.00  0.00     0.062 A 
ATOM      7  C   UNL     1     -13.819 -44.664  26.897  1.00  0.00    -0.029 A 
ATOM      8  C   UNL     1     -13.441 -45.356  29.570  1.00  0.00     0.161 A 
ATOM      9  C   UNL     1     -12.833 -45.580  27.207  1.00  0.00     0.055 A 
ATOM     10  C   UNL     1     -12.652 -45.940  28.548  1.00  0.00     0.161 A 
BRANCH   3  11
ATOM     11  O   UNL     1     -16.465 -42.448  27.926  1.00  0.00    -0.507 OA
ATOM     12  H   UNL     1     -17.337 -42.755  27.618  1.00  0.00     0.293 HD
ENDBRANCH   3  11
BRANCH   8  13
ATOM     13  O   UNL     1     -13.137 -45.699  30.862  1.00  0.00    -0.493 OA
ATOM     14  C   UNL     1     -12.913 -44.652  31.797  1.00  0.00     0.278 C 
ENDBRANCH   8  13
BRANCH  10  15
ATOM     15  O   UNL     1     -11.625 -46.829  28.746  1.00  0.00    -0.493 OA
ATOM     16  C   UNL     1     -10.326 -46.244  28.799  1.00  0.00     0.278 C 
ENDBRANCH  10  15
ENDBRANCH   1   2
BRANCH   1  17
ATOM     17  C   UNL     1     -17.240 -42.996  24.225  1.00  0.00     0.004 C 
ATOM     18  C   UNL     1     -17.511 -42.536  22.787  1.00  0.00     0.065 C 
ATOM     19  C   UNL     1     -18.514 -42.958  25.084  1.00  0.00     0.065 C 
ATOM     20  C   UNL     1     -18.392 -41.300  22.667  1.00  0.00     0.262 C 
ATOM     21  C   UNL     1     -19.385 -41.723  24.906  1.00  0.00     0.262 C 
ATOM     22  N   UNL     1     -19.664 -41.500  23.440  1.00  0.00    -0.331 N 
ATOM     23  H   UNL     1     -20.130 -42.345  23.087  1.00  0.00     0.348 HD
BRANCH  22  24
ATOM     24  C   UNL     1     -20.630 -40.356  23.206  1.00  0.00     0.299 C 
BRANCH  24  25
ATOM     25  C   UNL     1     -20.881 -40.085  21.748  1.00  0.00     0.006 A 
ATOM     26  C   UNL     1     -21.468 -41.063  20.932  1.00  0.00     0.009 A 
ATOM     27  C   UNL     1     -20.515 -38.855  21.179  1.00  0.00     0.009 A 
ATOM     28  C   UNL     1     -21.677 -40.819  19.574  1.00  0.00     0.001 A 
ATOM     29  C   UNL     1     -20.727 -38.614  19.821  1.00  0.00     0.001 A 
ATOM     30  C   UNL     1     -21.304 -39.596  19.019  1.00  0.00     0.000 A 
ENDBRANCH  24  25
ENDBRANCH  22  24
ENDBRANCH   1  17
TORSDOF 7
ENDMDL
MODEL 9
REMARK VINA RESULT:    -9.818      2.450      4.920
REMARK INTER + INTRA:         -13.826
REMARK INTER:                 -13.160
REMARK INTRA:                  -0.666
REMARK UNBOUND:                -0.277
REMARK SMILES COc1cc2c(cc1OC)C(O)=C(C[C@H]1CC[N@@H+](Cc3ccccc3)CC1)C2
REMARK SMILES IDX 14 1 13 2 11 3 6 4 28 5 7 6 5 7 8 8 4 9 3 10 12 11 9 13
REMARK SMILES IDX 10 14 2 15 1 16 15 17 16 18 27 19 17 20 26 21 18 22 19 24
REMARK SMILES IDX 20 25 21 26 25 27 22 28 24 29 23 30
REMARK H PARENT 12 12 18 23
ROOT
ATOM      1  C   UNL     1     -17.566 -43.038  25.197  1.00  0.00     0.039 C 
ENDROOT
BRANCH   1   2
ATOM      2  C   UNL     1     -18.460 -42.167  24.378  1.00  0.00    -0.023 C 
ATOM      3  C   UNL     1     -19.640 -41.641  24.740  1.00  0.00     0.122 C 
ATOM      4  C   UNL     1     -20.146 -40.785  23.678  1.00  0.00     0.024 A 
ATOM      5  C   UNL     1     -18.010 -41.618  23.034  1.00  0.00     0.071 C 
ATOM      6  C   UNL     1     -21.341 -40.092  23.549  1.00  0.00     0.062 A 
ATOM      7  C   UNL     1     -19.192 -40.777  22.654  1.00  0.00    -0.029 A 
ATOM      8  C   UNL     1     -21.578 -39.365  22.371  1.00  0.00     0.161 A 
ATOM      9  C   UNL     1     -19.403 -40.070  21.487  1.00  0.00     0.055 A 
ATOM     10  C   UNL     1     -20.596 -39.348  21.349  1.00  0.00     0.161 A 
BRANCH   3  11
ATOM     11  O   UNL     1     -20.301 -41.848  25.908  1.00  0.00    -0.507 OA
ATOM     12  H   UNL     1     -20.036 -42.723  26.245  1.00  0.00     0.293 HD
ENDBRANCH   3  11
BRANCH   8  13
ATOM     13  O   UNL     1     -22.751 -38.704  22.116  1.00  0.00    -0.493 OA
ATOM     14  C   UNL     1     -23.874 -39.470  21.700  1.00  0.00     0.278 C 
ENDBRANCH   8  13
BRANCH  10  15
ATOM     15  O   UNL     1     -20.719 -38.712  20.139  1.00  0.00    -0.493 OA
ATOM     16  C   UNL     1     -21.224 -39.524  19.082  1.00  0.00     0.278 C 
ENDBRANCH  10  15
ENDBRANCH   1   2
BRANCH   1  17
ATOM     17  C   UNL     1     -16.096 -42.601  25.397  1.00  0.00     0.004 C 
ATOM     18  C   UNL     1     -15.084 -43.316  24.493  1.00  0.00     0.065 C 
ATOM     19  C   UNL     1     -15.641 -42.594  26.865  1.00  0.00     0.065 C 
ATOM     20  C   UNL     1     -14.534 -44.620  25.055  1.00  0.00     0.262 C 
ATOM     21  C   UNL     1     -15.064 -43.907  27.377  1.00  0.00     0.262 C 
ATOM     22  N   UNL     1     -13.990 -44.394  26.436  1.00  0.00    -0.331 N 
ATOM     23  H   UNL     1     -13.273 -43.660  26.387  1.00  0.00     0.348 HD
BRANCH  22  24
ATOM     24  C   UNL     1     -13.290 -45.634  26.956  1.00  0.00     0.299 C 
BRANCH  24  25
ATOM     25  C   UNL     1     -12.082 -45.320  27.797  1.00  0.00     0.006 A 
ATOM     26  C   UNL     1     -11.332 -46.353  28.380  1.00  0.00     0.009 A 
ATOM     27  C   UNL     1     -11.699 -43.989  28.024  1.00  0.00     0.009 A 
ATOM     28  C   UNL     1     -10.227 -46.058  29.180  1.00  0.00     0.001 A 
ATOM     29  C   UNL     1     -10.593 -43.700  28.824  1.00  0.00     0.001 A 
ATOM     30  C   UNL     1      -9.860 -44.733  29.403  1.00  0.00     0.000 A 
ENDBRANCH  24  25
ENDBRANCH  22  24
ENDBRANCH   1  17
TORSDOF 7
ENDMDL
