MODEL 1
REMARK VINA RESULT:    -9.313      0.000      0.000
REMARK INTER + INTRA:         -11.079
REMARK INTER:                 -10.947
REMARK INTRA:                  -0.132
REMARK UNBOUND:                -0.132
REMARK SMILES C#CCNc1c2c(nc3cc(Cl)ccc13)CCCC2
REMARK SMILES IDX 3 1 2 2 1 3 4 4 5 6 6 7 15 8 7 9 19 10 14 11 9 12 8 13 16 14
REMARK SMILES IDX 18 15 13 16 10 17 17 18 11 19 12 20
REMARK H PARENT 4 5
ROOT
ATOM      1  C   UNL     1     -10.554 -46.177  29.248  1.00  0.00     0.203 C 
ENDROOT
BRANCH   1   2
ATOM      2  C   UNL     1     -11.732 -46.216  28.371  1.00  0.00    -0.085 C 
ATOM      3  C   UNL     1     -12.697 -46.250  27.656  1.00  0.00     0.006 C 
ENDBRANCH   1   2
BRANCH   1   4
ATOM      4  N   UNL     1     -10.995 -46.344  30.636  1.00  0.00    -0.373 N 
ATOM      5  H   UNL     1     -10.467 -47.096  31.071  1.00  0.00     0.161 HD
BRANCH   4   6
ATOM      6  C   UNL     1     -10.846 -45.143  31.389  1.00  0.00     0.049 A 
ATOM      7  C   UNL     1      -9.555 -44.767  31.808  1.00  0.00    -0.003 A 
ATOM      8  C   UNL     1     -11.974 -44.367  31.785  1.00  0.00     0.024 A 
ATOM      9  C   UNL     1      -9.433 -43.608  32.575  1.00  0.00     0.046 A 
ATOM     10  C   UNL     1      -8.330 -45.522  31.343  1.00  0.00     0.039 C 
ATOM     11  C   UNL     1     -13.316 -44.663  31.434  1.00  0.00     0.014 A 
ATOM     12  C   UNL     1     -11.724 -43.229  32.580  1.00  0.00     0.074 A 
ATOM     13  N   UNL     1     -10.495 -42.866  32.965  1.00  0.00    -0.252 NA
ATOM     14  C   UNL     1      -8.095 -43.124  33.075  1.00  0.00     0.056 C 
ATOM     15  C   UNL     1      -7.057 -45.176  32.113  1.00  0.00     0.005 C 
ATOM     16  C   UNL     1     -14.369 -43.854  31.860  1.00  0.00     0.021 A 
ATOM     17  C   UNL     1     -12.785 -42.437  32.993  1.00  0.00     0.049 A 
ATOM     18  C   UNL     1      -6.921 -43.669  32.270  1.00  0.00     0.007 C 
ATOM     19  C   UNL     1     -14.096 -42.742  32.640  1.00  0.00     0.043 A 
ATOM     20  Cl  UNL     1     -15.385 -41.735  33.175  1.00  0.00    -0.084 Cl
ENDBRANCH   4   6
ENDBRANCH   1   4
TORSDOF 3
ENDMDL
MODEL 2
REMARK VINA RESULT:    -8.973      2.288      4.769
REMARK INTER + INTRA:         -10.679
REMARK INTER:                 -10.385
REMARK INTRA:                  -0.293
REMARK UNBOUND:                -0.132
REMARK SMILES C#CCNc1c2c(nc3cc(Cl)ccc13)CCCC2
REMARK SMILES IDX 3 1 2 2 1 3 4 4 5 6 6 7 15 8 7 9 19 10 14 11 9 12 8 13 16 14
REMARK SMILES IDX 18 15 13 16 10 17 17 18 11 19 12 20
REMARK H PARENT 4 5
ROOT
ATOM      1  C   UNL     1     -10.398 -46.181  29.013  1.00  0.00     0.203 C 
ENDROOT
BRANCH   1   2
ATOM      2  C   UNL     1     -11.525 -46.380  28.091  1.00  0.00    -0.085 C 
ATOM      3  C   UNL     1     -12.447 -46.541  27.338  1.00  0.00     0.006 C 
ENDBRANCH   1   2
BRANCH   1   4
ATOM      4  N   UNL     1     -10.844 -46.492  30.375  1.00  0.00    -0.373 N 
ATOM      5  H   UNL     1     -10.282 -47.252  30.750  1.00  0.00     0.161 HD
BRANCH   4   6
ATOM      6  C   UNL     1     -10.765 -45.356  31.232  1.00  0.00     0.049 A 
ATOM      7  C   UNL     1     -11.951 -44.659  31.537  1.00  0.00    -0.003 A 
ATOM      8  C   UNL     1      -9.514 -44.872  31.715  1.00  0.00     0.024 A 
ATOM      9  C   UNL     1     -11.849 -43.527  32.347  1.00  0.00     0.046 A 
ATOM     10  C   UNL     1     -13.301 -45.185  31.105  1.00  0.00     0.039 C 
ATOM     11  C   UNL     1      -8.262 -45.485  31.456  1.00  0.00     0.014 A 
ATOM     12  C   UNL     1      -9.538 -43.705  32.507  1.00  0.00     0.074 A 
ATOM     13  N   UNL     1     -10.668 -43.053  32.807  1.00  0.00    -0.252 NA
ATOM     14  C   UNL     1     -13.058 -42.713  32.728  1.00  0.00     0.056 C 
ATOM     15  C   UNL     1     -14.438 -44.176  31.255  1.00  0.00     0.005 C 
ATOM     16  C   UNL     1      -7.078 -44.953  31.966  1.00  0.00     0.021 A 
ATOM     17  C   UNL     1      -8.351 -43.192  33.005  1.00  0.00     0.049 A 
ATOM     18  C   UNL     1     -14.366 -43.488  32.610  1.00  0.00     0.007 C 
ATOM     19  C   UNL     1      -7.130 -43.805  32.740  1.00  0.00     0.043 A 
ATOM     20  Cl  UNL     1      -5.678 -43.136  33.375  1.00  0.00    -0.084 Cl
ENDBRANCH   4   6
ENDBRANCH   1   4
TORSDOF 3
ENDMDL
MODEL 3
REMARK VINA RESULT:    -8.960      8.222     10.280
REMARK INTER + INTRA:         -10.664
REMARK INTER:                 -10.413
REMARK INTRA:                  -0.251
REMARK UNBOUND:                -0.132
REMARK SMILES C#CCNc1c2c(nc3cc(Cl)ccc13)CCCC2
REMARK SMILES IDX 3 1 2 2 1 3 4 4 5 6 6 7 15 8 7 9 19 10 14 11 9 12 8 13 16 14
REMARK SMILES IDX 18 15 13 16 10 17 17 18 11 19 12 20
REMARK H PARENT 4 5
ROOT
ATOM      1  C   UNL     1     -17.393 -41.018  22.077  1.00  0.00     0.203 C 
ENDROOT
BRANCH   1   2
ATOM      2  C   UNL     1     -18.514 -40.357  21.393  1.00  0.00    -0.085 C 
ATOM      3  C   UNL     1     -19.430 -39.820  20.832  1.00  0.00     0.006 C 
ENDBRANCH   1   2
BRANCH   1   4
ATOM      4  N   UNL     1     -17.870 -42.280  22.650  1.00  0.00    -0.373 N 
ATOM      5  H   UNL     1     -17.284 -43.044  22.322  1.00  0.00     0.161 HD
BRANCH   4   6
ATOM      6  C   UNL     1     -17.878 -42.246  24.075  1.00  0.00     0.049 A 
ATOM      7  C   UNL     1     -16.752 -42.734  24.766  1.00  0.00    -0.003 A 
ATOM      8  C   UNL     1     -19.021 -41.806  24.803  1.00  0.00     0.024 A 
ATOM      9  C   UNL     1     -16.793 -42.728  26.161  1.00  0.00     0.046 A 
ATOM     10  C   UNL     1     -15.495 -43.138  24.029  1.00  0.00     0.039 C 
ATOM     11  C   UNL     1     -20.211 -41.312  24.210  1.00  0.00     0.014 A 
ATOM     12  C   UNL     1     -18.951 -41.869  26.211  1.00  0.00     0.074 A 
ATOM     13  N   UNL     1     -17.874 -42.320  26.866  1.00  0.00    -0.252 NA
ATOM     14  C   UNL     1     -15.641 -43.232  26.991  1.00  0.00     0.056 C 
ATOM     15  C   UNL     1     -14.494 -43.912  24.885  1.00  0.00     0.005 C 
ATOM     16  C   UNL     1     -21.290 -40.897  24.990  1.00  0.00     0.021 A 
ATOM     17  C   UNL     1     -20.034 -41.452  26.969  1.00  0.00     0.049 A 
ATOM     18  C   UNL     1     -14.315 -43.239  26.237  1.00  0.00     0.007 C 
ATOM     19  C   UNL     1     -21.194 -40.971  26.371  1.00  0.00     0.043 A 
ATOM     20  Cl  UNL     1     -22.517 -40.464  27.347  1.00  0.00    -0.084 Cl
ENDBRANCH   4   6
ENDBRANCH   1   4
TORSDOF 3
ENDMDL
MODEL 4
REMARK VINA RESULT:    -8.945      2.539      4.854
REMARK INTER + INTRA:         -10.647
REMARK INTER:                 -10.326
REMARK INTRA:                  -0.321
REMARK UNBOUND:                -0.132
REMARK SMILES C#CCNc1c2c(nc3cc(Cl)ccc13)CCCC2
REMARK SMILES IDX 3 1 2 2 1 3 4 4 5 6 6 7 15 8 7 9 19 10 14 11 9 12 8 13 16 14
REMARK SMILES IDX 18 15 13 16 10 17 17 18 11 19 12 20
REMARK H PARENT 4 5
ROOT
ATOM      1  C   UNL     1     -13.681 -45.028  29.205  1.00  0.00     0.203 C 
ENDROOT
BRANCH   1   2
ATOM      2  C   UNL     1     -13.074 -45.857  28.154  1.00  0.00    -0.085 C 
ATOM      3  C   UNL     1     -12.578 -46.536  27.296  1.00  0.00     0.006 C 
ENDBRANCH   1   2
BRANCH   1   4
ATOM      4  N   UNL     1     -13.469 -45.682  30.500  1.00  0.00    -0.373 N 
ATOM      5  H   UNL     1     -13.102 -46.619  30.351  1.00  0.00     0.161 HD
BRANCH   4   6
ATOM      6  C   UNL     1     -12.584 -44.936  31.332  1.00  0.00     0.049 A 
ATOM      7  C   UNL     1     -13.109 -43.869  32.087  1.00  0.00    -0.003 A 
ATOM      8  C   UNL     1     -11.183 -45.198  31.353  1.00  0.00     0.024 A 
ATOM      9  C   UNL     1     -12.221 -43.127  32.867  1.00  0.00     0.046 A 
ATOM     10  C   UNL     1     -14.598 -43.611  32.148  1.00  0.00     0.039 C 
ATOM     11  C   UNL     1     -10.548 -46.233  30.620  1.00  0.00     0.014 A 
ATOM     12  C   UNL     1     -10.385 -44.363  32.163  1.00  0.00     0.074 A 
ATOM     13  N   UNL     1     -10.889 -43.359  32.891  1.00  0.00    -0.252 NA
ATOM     14  C   UNL     1     -12.685 -41.965  33.708  1.00  0.00     0.056 C 
ATOM     15  C   UNL     1     -14.970 -42.261  32.759  1.00  0.00     0.005 C 
ATOM     16  C   UNL     1      -9.169 -46.428  30.693  1.00  0.00     0.021 A 
ATOM     17  C   UNL     1      -9.016 -44.574  32.222  1.00  0.00     0.049 A 
ATOM     18  C   UNL     1     -14.174 -42.013  34.031  1.00  0.00     0.007 C 
ATOM     19  C   UNL     1      -8.409 -45.594  31.496  1.00  0.00     0.043 A 
ATOM     20  Cl  UNL     1      -6.706 -45.821  31.595  1.00  0.00    -0.084 Cl
ENDBRANCH   4   6
ENDBRANCH   1   4
TORSDOF 3
ENDMDL
MODEL 5
REMARK VINA RESULT:    -8.787      7.803     10.735
REMARK INTER + INTRA:         -10.461
REMARK INTER:                 -10.208
REMARK INTRA:                  -0.253
REMARK UNBOUND:                -0.132
REMARK SMILES C#CCNc1c2c(nc3cc(Cl)ccc13)CCCC2
REMARK SMILES IDX 3 1 2 2 1 3 4 4 5 6 6 7 15 8 7 9 19 10 14 11 9 12 8 13 16 14
REMARK SMILES IDX 18 15 13 16 10 17 17 18 11 19 12 20
REMARK H PARENT 4 5
ROOT
ATOM      1  C   UNL     1     -17.263 -41.264  22.253  1.00  0.00     0.203 C 
ENDROOT
BRANCH   1   2
ATOM      2  C   UNL     1     -18.367 -40.509  21.644  1.00  0.00    -0.085 C 
ATOM      3  C   UNL     1     -19.268 -39.890  21.145  1.00  0.00     0.006 C 
ENDBRANCH   1   2
BRANCH   1   4
ATOM      4  N   UNL     1     -17.798 -42.508  22.816  1.00  0.00    -0.373 N 
ATOM      5  H   UNL     1     -17.298 -43.300  22.422  1.00  0.00     0.161 HD
BRANCH   4   6
ATOM      6  C   UNL     1     -17.708 -42.529  24.238  1.00  0.00     0.049 A 
ATOM      7  C   UNL     1     -18.801 -42.053  24.989  1.00  0.00    -0.003 A 
ATOM      8  C   UNL     1     -16.518 -42.944  24.903  1.00  0.00     0.024 A 
ATOM      9  C   UNL     1     -18.679 -42.047  26.379  1.00  0.00     0.046 A 
ATOM     10  C   UNL     1     -20.105 -41.677  24.322  1.00  0.00     0.039 C 
ATOM     11  C   UNL     1     -15.356 -43.423  24.246  1.00  0.00     0.014 A 
ATOM     12  C   UNL     1     -16.508 -42.870  26.311  1.00  0.00     0.074 A 
ATOM     13  N   UNL     1     -17.553 -42.431  27.024  1.00  0.00    -0.252 NA
ATOM     14  C   UNL     1     -19.791 -41.554  27.270  1.00  0.00     0.056 C 
ATOM     15  C   UNL     1     -21.068 -40.913  25.228  1.00  0.00     0.005 C 
ATOM     16  C   UNL     1     -14.227 -43.813  24.966  1.00  0.00     0.021 A 
ATOM     17  C   UNL     1     -15.377 -43.262  27.010  1.00  0.00     0.049 A 
ATOM     18  C   UNL     1     -21.157 -41.577  26.594  1.00  0.00     0.007 C 
ATOM     19  C   UNL     1     -14.244 -43.729  26.349  1.00  0.00     0.043 A 
ATOM     20  Cl  UNL     1     -12.859 -44.205  27.252  1.00  0.00    -0.084 Cl
ENDBRANCH   4   6
ENDBRANCH   1   4
TORSDOF 3
ENDMDL
MODEL 6
REMARK VINA RESULT:    -8.669      2.335      4.392
REMARK INTER + INTRA:         -10.322
REMARK INTER:                 -10.080
REMARK INTRA:                  -0.242
REMARK UNBOUND:                -0.132
REMARK SMILES C#CCNc1c2c(nc3cc(Cl)ccc13)CCCC2
REMARK SMILES IDX 3 1 2 2 1 3 4 4 5 6 6 7 15 8 7 9 19 10 14 11 9 12 8 13 16 14
REMARK SMILES IDX 18 15 13 16 10 17 17 18 11 19 12 20
REMARK H PARENT 4 5
ROOT
ATOM      1  C   UNL     1     -12.439 -43.164  32.888  1.00  0.00     0.203 C 
ENDROOT
BRANCH   1   2
ATOM      2  C   UNL     1     -13.782 -42.567  32.873  1.00  0.00    -0.085 C 
ATOM      3  C   UNL     1     -14.880 -42.079  32.858  1.00  0.00     0.006 C 
ENDBRANCH   1   2
BRANCH   1   4
ATOM      4  N   UNL     1     -11.684 -42.652  31.740  1.00  0.00    -0.373 N 
ATOM      5  H   UNL     1     -11.085 -41.888  32.043  1.00  0.00     0.161 HD
BRANCH   4   6
ATOM      6  C   UNL     1     -10.904 -43.671  31.120  1.00  0.00     0.049 A 
ATOM      7  C   UNL     1      -9.569 -43.842  31.535  1.00  0.00    -0.003 A 
ATOM      8  C   UNL     1     -11.420 -44.456  30.048  1.00  0.00     0.024 A 
ATOM      9  C   UNL     1      -8.809 -44.820  30.891  1.00  0.00     0.046 A 
ATOM     10  C   UNL     1      -9.012 -43.081  32.717  1.00  0.00     0.039 C 
ATOM     11  C   UNL     1     -12.740 -44.355  29.541  1.00  0.00     0.014 A 
ATOM     12  C   UNL     1     -10.547 -45.397  29.462  1.00  0.00     0.074 A 
ATOM     13  N   UNL     1      -9.283 -45.568  29.868  1.00  0.00    -0.252 NA
ATOM     14  C   UNL     1      -7.371 -45.077  31.260  1.00  0.00     0.056 C 
ATOM     15  C   UNL     1      -7.492 -43.159  32.847  1.00  0.00     0.005 C 
ATOM     16  C   UNL     1     -13.174 -45.161  28.489  1.00  0.00     0.021 A 
ATOM     17  C   UNL     1     -10.997 -46.189  28.417  1.00  0.00     0.049 A 
ATOM     18  C   UNL     1      -7.013 -44.591  32.660  1.00  0.00     0.007 C 
ATOM     19  C   UNL     1     -12.296 -46.076  27.931  1.00  0.00     0.043 A 
ATOM     20  Cl  UNL     1     -12.816 -47.075  26.631  1.00  0.00    -0.084 Cl
ENDBRANCH   4   6
ENDBRANCH   1   4
TORSDOF 3
ENDMDL
MODEL 7
REMARK VINA RESULT:    -8.516      2.712      4.049
REMARK INTER + INTRA:         -10.142
REMARK INTER:                 -10.361
REMARK INTRA:                   0.219
REMARK UNBOUND:                -0.132
REMARK SMILES C#CCNc1c2c(nc3cc(Cl)ccc13)CCCC2
REMARK SMILES IDX 3 1 2 2 1 3 4 4 5 6 6 7 15 8 7 9 19 10 14 11 9 12 8 13 16 14
REMARK SMILES IDX 18 15 13 16 10 17 17 18 11 19 12 20
REMARK H PARENT 4 5
ROOT
ATOM      1  C   UNL     1     -13.459 -45.893  31.424  1.00  0.00     0.203 C 
ENDROOT
BRANCH   1   2
ATOM      2  C   UNL     1     -13.197 -44.584  32.039  1.00  0.00    -0.085 C 
ATOM      3  C   UNL     1     -12.982 -43.515  32.543  1.00  0.00     0.006 C 
ENDBRANCH   1   2
BRANCH   1   4
ATOM      4  N   UNL     1     -12.226 -46.369  30.789  1.00  0.00    -0.373 N 
ATOM      5  H   UNL     1     -12.433 -47.187  30.220  1.00  0.00     0.161 HD
BRANCH   4   6
ATOM      6  C   UNL     1     -11.615 -45.359  29.991  1.00  0.00     0.049 A 
ATOM      7  C   UNL     1     -10.350 -44.872  30.375  1.00  0.00    -0.003 A 
ATOM      8  C   UNL     1     -12.286 -44.785  28.873  1.00  0.00     0.024 A 
ATOM      9  C   UNL     1      -9.784 -43.856  29.603  1.00  0.00     0.046 A 
ATOM     10  C   UNL     1      -9.577 -45.508  31.508  1.00  0.00     0.039 C 
ATOM     11  C   UNL     1     -13.566 -45.186  28.411  1.00  0.00     0.014 A 
ATOM     12  C   UNL     1     -11.621 -43.748  28.186  1.00  0.00     0.074 A 
ATOM     13  N   UNL     1     -10.413 -43.297  28.544  1.00  0.00    -0.252 NA
ATOM     14  C   UNL     1      -8.437 -43.266  29.933  1.00  0.00     0.056 C 
ATOM     15  C   UNL     1      -8.379 -44.686  31.981  1.00  0.00     0.005 C 
ATOM     16  C   UNL     1     -14.159 -44.577  27.306  1.00  0.00     0.021 A 
ATOM     17  C   UNL     1     -12.227 -43.155  27.089  1.00  0.00     0.049 A 
ATOM     18  C   UNL     1      -7.574 -44.183  30.792  1.00  0.00     0.007 C 
ATOM     19  C   UNL     1     -13.484 -43.560  26.649  1.00  0.00     0.043 A 
ATOM     20  Cl  UNL     1     -14.204 -42.798  25.286  1.00  0.00    -0.084 Cl
ENDBRANCH   4   6
ENDBRANCH   1   4
TORSDOF 3
ENDMDL
MODEL 8
REMARK VINA RESULT:    -8.386      2.533      5.569
REMARK INTER + INTRA:          -9.989
REMARK INTER:                  -9.843
REMARK INTRA:                  -0.146
REMARK UNBOUND:                -0.132
REMARK SMILES C#CCNc1c2c(nc3cc(Cl)ccc13)CCCC2
REMARK SMILES IDX 3 1 2 2 1 3 4 4 5 6 6 7 15 8 7 9 19 10 14 11 9 12 8 13 16 14
REMARK SMILES IDX 18 15 13 16 10 17 17 18 11 19 12 20
REMARK H PARENT 4 5
ROOT
ATOM      1  C   UNL     1     -13.086 -43.394  32.627  1.00  0.00     0.203 C 
ENDROOT
BRANCH   1   2
ATOM      2  C   UNL     1     -14.238 -42.534  32.934  1.00  0.00    -0.085 C 
ATOM      3  C   UNL     1     -15.178 -41.831  33.187  1.00  0.00     0.006 C 
ENDBRANCH   1   2
BRANCH   1   4
ATOM      4  N   UNL     1     -12.470 -42.928  31.381  1.00  0.00    -0.373 N 
ATOM      5  H   UNL     1     -12.120 -41.981  31.510  1.00  0.00     0.161 HD
BRANCH   4   6
ATOM      6  C   UNL     1     -11.415 -43.787  30.956  1.00  0.00     0.049 A 
ATOM      7  C   UNL     1     -11.677 -44.719  29.933  1.00  0.00    -0.003 A 
ATOM      8  C   UNL     1     -10.140 -43.772  31.594  1.00  0.00     0.024 A 
ATOM      9  C   UNL     1     -10.643 -45.577  29.557  1.00  0.00     0.046 A 
ATOM     10  C   UNL     1     -12.991 -44.712  29.185  1.00  0.00     0.039 C 
ATOM     11  C   UNL     1      -9.776 -42.889  32.642  1.00  0.00     0.014 A 
ATOM     12  C   UNL     1      -9.184 -44.704  31.139  1.00  0.00     0.074 A 
ATOM     13  N   UNL     1      -9.430 -45.580  30.158  1.00  0.00    -0.252 NA
ATOM     14  C   UNL     1     -10.824 -46.611  28.476  1.00  0.00     0.056 C 
ATOM     15  C   UNL     1     -13.224 -45.954  28.327  1.00  0.00     0.005 C 
ATOM     16  C   UNL     1      -8.506 -42.934  33.216  1.00  0.00     0.021 A 
ATOM     17  C   UNL     1      -7.927 -44.734  31.723  1.00  0.00     0.049 A 
ATOM     18  C   UNL     1     -11.975 -46.293  27.528  1.00  0.00     0.007 C 
ATOM     19  C   UNL     1      -7.585 -43.861  32.752  1.00  0.00     0.043 A 
ATOM     20  Cl  UNL     1      -6.015 -43.930  33.451  1.00  0.00    -0.084 Cl
ENDBRANCH   4   6
ENDBRANCH   1   4
TORSDOF 3
ENDMDL
MODEL 9
REMARK VINA RESULT:    -8.045      3.058      5.899
REMARK INTER + INTRA:          -9.588
REMARK INTER:                  -9.703
REMARK INTRA:                   0.115
REMARK UNBOUND:                -0.132
REMARK SMILES C#CCNc1c2c(nc3cc(Cl)ccc13)CCCC2
REMARK SMILES IDX 3 1 2 2 1 3 4 4 5 6 6 7 15 8 7 9 19 10 14 11 9 12 8 13 16 14
REMARK SMILES IDX 18 15 13 16 10 17 17 18 11 19 12 20
REMARK H PARENT 4 5
ROOT
ATOM      1  C   UNL     1     -13.752 -45.469  32.085  1.00  0.00     0.203 C 
ENDROOT
BRANCH   1   2
ATOM      2  C   UNL     1     -14.167 -44.074  32.284  1.00  0.00    -0.085 C 
ATOM      3  C   UNL     1     -14.508 -42.934  32.450  1.00  0.00     0.006 C 
ENDBRANCH   1   2
BRANCH   1   4
ATOM      4  N   UNL     1     -13.854 -45.791  30.658  1.00  0.00    -0.373 N 
ATOM      5  H   UNL     1     -14.778 -45.534  30.319  1.00  0.00     0.161 HD
BRANCH   4   6
ATOM      6  C   UNL     1     -12.851 -45.131  29.891  1.00  0.00     0.049 A 
ATOM      7  C   UNL     1     -13.234 -44.468  28.709  1.00  0.00    -0.003 A 
ATOM      8  C   UNL     1     -11.474 -45.196  30.253  1.00  0.00     0.024 A 
ATOM      9  C   UNL     1     -12.232 -43.860  27.952  1.00  0.00     0.046 A 
ATOM     10  C   UNL     1     -14.691 -44.315  28.334  1.00  0.00     0.039 C 
ATOM     11  C   UNL     1     -10.977 -45.849  31.410  1.00  0.00     0.014 A 
ATOM     12  C   UNL     1     -10.552 -44.560  29.395  1.00  0.00     0.074 A 
ATOM     13  N   UNL     1     -10.921 -43.919  28.279  1.00  0.00    -0.252 NA
ATOM     14  C   UNL     1     -12.540 -43.129  26.669  1.00  0.00     0.056 C 
ATOM     15  C   UNL     1     -14.917 -43.842  26.899  1.00  0.00     0.005 C 
ATOM     16  C   UNL     1      -9.613 -45.868  31.700  1.00  0.00     0.021 A 
ATOM     17  C   UNL     1      -9.200 -44.591  29.699  1.00  0.00     0.049 A 
ATOM     18  C   UNL     1     -13.993 -42.680  26.568  1.00  0.00     0.007 C 
ATOM     19  C   UNL     1      -8.729 -45.237  30.838  1.00  0.00     0.043 A 
ATOM     20  Cl  UNL     1      -7.044 -45.254  31.181  1.00  0.00    -0.084 Cl
ENDBRANCH   4   6
ENDBRANCH   1   4
TORSDOF 3
ENDMDL
