MODEL 1
REMARK VINA RESULT:    -8.419      0.000      0.000
REMARK INTER + INTRA:         -10.645
REMARK INTER:                 -10.387
REMARK INTRA:                  -0.258
REMARK UNBOUND:                -0.258
REMARK SMILES COc1ccc2c(c1)CC[C@H](NS(=O)(=O)N(C)C)C2
REMARK SMILES IDX 12 1 11 3 3 4 4 5 8 6 5 7 7 8 6 9 9 10 19 11 10 12 2 13 1 14
REMARK SMILES IDX 13 15 14 16 15 17 16 18 17 19 18 20
REMARK H PARENT 12 2
ROOT
ATOM      1  N   UNL     1     -14.092 -44.052  27.965  1.00  0.00    -0.199 NA
ATOM      2  H   UNL     1     -14.523 -43.772  28.847  1.00  0.00     0.142 HD
ENDROOT
BRANCH   1   3
ATOM      3  C   UNL     1     -14.667 -43.381  26.775  1.00  0.00     0.075 C 
ATOM      4  C   UNL     1     -18.294 -42.123  23.330  1.00  0.00     0.119 A 
ATOM      5  C   UNL     1     -18.854 -41.875  24.582  1.00  0.00     0.047 A 
ATOM      6  C   UNL     1     -17.025 -42.699  23.255  1.00  0.00     0.050 A 
ATOM      7  C   UNL     1     -18.159 -42.194  25.749  1.00  0.00     0.008 A 
ATOM      8  C   UNL     1     -16.316 -43.036  24.423  1.00  0.00    -0.041 A 
ATOM      9  C   UNL     1     -16.881 -42.765  25.681  1.00  0.00    -0.043 A 
ATOM     10  C   UNL     1     -14.934 -43.627  24.292  1.00  0.00     0.037 C 
ATOM     11  C   UNL     1     -16.170 -43.125  26.965  1.00  0.00     0.056 C 
ATOM     12  C   UNL     1     -14.446 -44.299  25.571  1.00  0.00     0.025 C 
BRANCH   4  13
ATOM     13  O   UNL     1     -19.079 -41.759  22.271  1.00  0.00    -0.497 OA
ATOM     14  C   UNL     1     -18.858 -40.467  21.719  1.00  0.00     0.278 C 
ENDBRANCH   4  13
ENDBRANCH   1   3
BRANCH   1  15
ATOM     15  S   UNL     1     -12.430 -44.058  28.167  1.00  0.00     0.279 S 
ATOM     16  O   UNL     1     -11.970 -42.840  27.545  1.00  0.00    -0.195 OA
ATOM     17  O   UNL     1     -11.922 -45.349  27.776  1.00  0.00    -0.195 OA
BRANCH  15  18
ATOM     18  N   UNL     1     -12.317 -43.886  29.831  1.00  0.00    -0.195 NA
ATOM     19  C   UNL     1     -13.160 -44.773  30.648  1.00  0.00     0.125 C 
ATOM     20  C   UNL     1     -11.000 -43.624  30.420  1.00  0.00     0.125 C 
ENDBRANCH  15  18
ENDBRANCH   1  15
TORSDOF 4
ENDMDL
MODEL 2
REMARK VINA RESULT:    -8.378      4.394      8.413
REMARK INTER + INTRA:         -10.594
REMARK INTER:                 -10.262
REMARK INTRA:                  -0.333
REMARK UNBOUND:                -0.258
REMARK SMILES COc1ccc2c(c1)CC[C@H](NS(=O)(=O)N(C)C)C2
REMARK SMILES IDX 12 1 11 3 3 4 4 5 8 6 5 7 7 8 6 9 9 10 19 11 10 12 2 13 1 14
REMARK SMILES IDX 13 15 14 16 15 17 16 18 17 19 18 20
REMARK H PARENT 12 2
ROOT
ATOM      1  N   UNL     1     -19.327 -41.729  21.732  1.00  0.00    -0.199 NA
ATOM      2  H   UNL     1     -18.924 -42.292  20.982  1.00  0.00     0.142 HD
ENDROOT
BRANCH   1   3
ATOM      3  C   UNL     1     -18.484 -41.659  22.951  1.00  0.00     0.075 C 
ATOM      4  C   UNL     1     -15.203 -43.358  26.550  1.00  0.00     0.119 A 
ATOM      5  C   UNL     1     -14.597 -43.626  25.324  1.00  0.00     0.047 A 
ATOM      6  C   UNL     1     -16.494 -42.826  26.569  1.00  0.00     0.050 A 
ATOM      7  C   UNL     1     -15.266 -43.366  24.127  1.00  0.00     0.008 A 
ATOM      8  C   UNL     1     -17.185 -42.568  25.370  1.00  0.00    -0.041 A 
ATOM      9  C   UNL     1     -16.558 -42.825  24.138  1.00  0.00    -0.043 A 
ATOM     10  C   UNL     1     -18.565 -41.963  25.441  1.00  0.00     0.037 C 
ATOM     11  C   UNL     1     -17.264 -42.584  22.824  1.00  0.00     0.056 C 
ATOM     12  C   UNL     1     -19.346 -42.098  24.137  1.00  0.00     0.025 C 
BRANCH   4  13
ATOM     13  O   UNL     1     -14.437 -43.655  27.643  1.00  0.00    -0.497 OA
ATOM     14  C   UNL     1     -13.660 -44.844  27.582  1.00  0.00     0.278 C 
ENDBRANCH   4  13
ENDBRANCH   1   3
BRANCH   1  15
ATOM     15  S   UNL     1     -19.913 -40.307  21.072  1.00  0.00     0.279 S 
ATOM     16  O   UNL     1     -19.221 -40.161  19.815  1.00  0.00    -0.195 OA
ATOM     17  O   UNL     1     -19.878 -39.279  22.082  1.00  0.00    -0.195 OA
BRANCH  15  18
ATOM     18  N   UNL     1     -21.503 -40.740  20.761  1.00  0.00    -0.195 NA
ATOM     19  C   UNL     1     -21.805 -41.223  19.405  1.00  0.00     0.125 C 
ATOM     20  C   UNL     1     -22.259 -41.432  21.811  1.00  0.00     0.125 C 
ENDBRANCH  15  18
ENDBRANCH   1  15
TORSDOF 4
ENDMDL
MODEL 3
REMARK VINA RESULT:    -8.214      3.159      5.125
REMARK INTER + INTRA:         -10.392
REMARK INTER:                 -10.111
REMARK INTRA:                  -0.281
REMARK UNBOUND:                -0.258
REMARK SMILES COc1ccc2c(c1)CC[C@H](NS(=O)(=O)N(C)C)C2
REMARK SMILES IDX 12 1 11 3 3 4 4 5 8 6 5 7 7 8 6 9 9 10 19 11 10 12 2 13 1 14
REMARK SMILES IDX 13 15 14 16 15 17 16 18 17 19 18 20
REMARK H PARENT 12 2
ROOT
ATOM      1  N   UNL     1      -9.313 -45.266  29.776  1.00  0.00    -0.199 NA
ATOM      2  H   UNL     1      -8.987 -46.019  29.169  1.00  0.00     0.142 HD
ENDROOT
BRANCH   1   3
ATOM      3  C   UNL     1     -10.476 -44.520  29.237  1.00  0.00     0.075 C 
ATOM      4  C   UNL     1     -14.222 -43.351  25.891  1.00  0.00     0.119 A 
ATOM      5  C   UNL     1     -14.356 -44.713  26.153  1.00  0.00     0.047 A 
ATOM      6  C   UNL     1     -13.150 -42.653  26.448  1.00  0.00     0.050 A 
ATOM      7  C   UNL     1     -13.434 -45.376  26.964  1.00  0.00     0.008 A 
ATOM      8  C   UNL     1     -12.206 -43.310  27.260  1.00  0.00    -0.041 A 
ATOM      9  C   UNL     1     -12.360 -44.680  27.533  1.00  0.00    -0.043 A 
ATOM     10  C   UNL     1     -11.082 -42.507  27.866  1.00  0.00     0.037 C 
ATOM     11  C   UNL     1     -11.364 -45.436  28.381  1.00  0.00     0.056 C 
ATOM     12  C   UNL     1      -9.936 -43.374  28.379  1.00  0.00     0.025 C 
BRANCH   4  13
ATOM     13  O   UNL     1     -15.196 -42.826  25.086  1.00  0.00    -0.497 OA
ATOM     14  C   UNL     1     -16.519 -42.802  25.606  1.00  0.00     0.278 C 
ENDBRANCH   4  13
ENDBRANCH   1   3
BRANCH   1  15
ATOM     15  S   UNL     1      -9.378 -45.841  31.346  1.00  0.00     0.279 S 
ATOM     16  O   UNL     1      -8.339 -46.840  31.425  1.00  0.00    -0.195 OA
ATOM     17  O   UNL     1     -10.749 -46.144  31.671  1.00  0.00    -0.195 OA
BRANCH  15  18
ATOM     18  N   UNL     1      -8.881 -44.484  32.196  1.00  0.00    -0.195 NA
ATOM     19  C   UNL     1      -7.596 -43.887  31.800  1.00  0.00     0.125 C 
ATOM     20  C   UNL     1      -9.891 -43.494  32.588  1.00  0.00     0.125 C 
ENDBRANCH  15  18
ENDBRANCH   1  15
TORSDOF 4
ENDMDL
MODEL 4
REMARK VINA RESULT:    -8.116      3.276      5.261
REMARK INTER + INTRA:         -10.272
REMARK INTER:                 -10.664
REMARK INTRA:                   0.392
REMARK UNBOUND:                -0.258
REMARK SMILES COc1ccc2c(c1)CC[C@H](NS(=O)(=O)N(C)C)C2
REMARK SMILES IDX 12 1 11 3 3 4 4 5 8 6 5 7 7 8 6 9 9 10 19 11 10 12 2 13 1 14
REMARK SMILES IDX 13 15 14 16 15 17 16 18 17 19 18 20
REMARK H PARENT 12 2
ROOT
ATOM      1  N   UNL     1      -9.289 -45.069  30.158  1.00  0.00    -0.199 NA
ATOM      2  H   UNL     1      -9.618 -45.592  30.970  1.00  0.00     0.142 HD
ENDROOT
BRANCH   1   3
ATOM      3  C   UNL     1     -10.183 -45.161  28.979  1.00  0.00     0.075 C 
ATOM      4  C   UNL     1     -14.240 -44.023  26.005  1.00  0.00     0.119 A 
ATOM      5  C   UNL     1     -13.625 -42.806  26.293  1.00  0.00     0.047 A 
ATOM      6  C   UNL     1     -13.751 -45.189  26.596  1.00  0.00     0.050 A 
ATOM      7  C   UNL     1     -12.532 -42.749  27.158  1.00  0.00     0.008 A 
ATOM      8  C   UNL     1     -12.656 -45.145  27.479  1.00  0.00    -0.041 A 
ATOM      9  C   UNL     1     -12.031 -43.915  27.748  1.00  0.00    -0.043 A 
ATOM     10  C   UNL     1     -12.143 -46.436  28.068  1.00  0.00     0.037 C 
ATOM     11  C   UNL     1     -10.865 -43.812  28.704  1.00  0.00     0.056 C 
ATOM     12  C   UNL     1     -11.241 -46.224  29.280  1.00  0.00     0.025 C 
BRANCH   4  13
ATOM     13  O   UNL     1     -15.296 -43.939  25.139  1.00  0.00    -0.497 OA
ATOM     14  C   UNL     1     -16.233 -42.894  25.365  1.00  0.00     0.278 C 
ENDBRANCH   4  13
ENDBRANCH   1   3
BRANCH   1  15
ATOM     15  S   UNL     1      -8.781 -43.559  30.672  1.00  0.00     0.279 S 
ATOM     16  O   UNL     1      -9.865 -43.050  31.478  1.00  0.00    -0.195 OA
ATOM     17  O   UNL     1      -8.272 -42.831  29.538  1.00  0.00    -0.195 OA
BRANCH  15  18
ATOM     18  N   UNL     1      -7.515 -43.984  31.686  1.00  0.00    -0.195 NA
ATOM     19  C   UNL     1      -7.442 -43.290  32.982  1.00  0.00     0.125 C 
ATOM     20  C   UNL     1      -7.114 -45.393  31.753  1.00  0.00     0.125 C 
ENDBRANCH  15  18
ENDBRANCH   1  15
TORSDOF 4
ENDMDL
MODEL 5
REMARK VINA RESULT:    -8.115      2.816      8.007
REMARK INTER + INTRA:         -10.270
REMARK INTER:                 -10.479
REMARK INTRA:                   0.209
REMARK UNBOUND:                -0.258
REMARK SMILES COc1ccc2c(c1)CC[C@H](NS(=O)(=O)N(C)C)C2
REMARK SMILES IDX 12 1 11 3 3 4 4 5 8 6 5 7 7 8 6 9 9 10 19 11 10 12 2 13 1 14
REMARK SMILES IDX 13 15 14 16 15 17 16 18 17 19 18 20
REMARK H PARENT 12 2
ROOT
ATOM      1  N   UNL     1     -14.343 -44.446  26.094  1.00  0.00    -0.199 NA
ATOM      2  H   UNL     1     -14.080 -45.055  25.319  1.00  0.00     0.142 HD
ENDROOT
BRANCH   1   3
ATOM      3  C   UNL     1     -13.447 -44.548  27.271  1.00  0.00     0.075 C 
ATOM      4  C   UNL     1      -9.026 -44.220  29.907  1.00  0.00     0.119 A 
ATOM      5  C   UNL     1      -9.198 -42.980  29.294  1.00  0.00     0.047 A 
ATOM      6  C   UNL     1      -9.937 -45.243  29.639  1.00  0.00     0.050 A 
ATOM      7  C   UNL     1     -10.266 -42.758  28.425  1.00  0.00     0.008 A 
ATOM      8  C   UNL     1     -11.014 -45.037  28.757  1.00  0.00    -0.041 A 
ATOM      9  C   UNL     1     -11.189 -43.777  28.158  1.00  0.00    -0.043 A 
ATOM     10  C   UNL     1     -11.991 -46.162  28.524  1.00  0.00     0.037 C 
ATOM     11  C   UNL     1     -12.317 -43.511  27.189  1.00  0.00     0.056 C 
ATOM     12  C   UNL     1     -12.855 -45.959  27.283  1.00  0.00     0.025 C 
BRANCH   4  13
ATOM     13  O   UNL     1      -7.942 -44.301  30.738  1.00  0.00    -0.497 OA
ATOM     14  C   UNL     1      -7.969 -43.500  31.912  1.00  0.00     0.278 C 
ENDBRANCH   4  13
ENDBRANCH   1   3
BRANCH   1  15
ATOM     15  S   UNL     1     -14.702 -42.931  25.480  1.00  0.00     0.279 S 
ATOM     16  O   UNL     1     -13.831 -42.770  24.340  1.00  0.00    -0.195 OA
ATOM     17  O   UNL     1     -14.714 -41.983  26.565  1.00  0.00    -0.195 OA
BRANCH  15  18
ATOM     18  N   UNL     1     -16.265 -43.181  24.928  1.00  0.00    -0.195 NA
ATOM     19  C   UNL     1     -17.353 -42.612  25.739  1.00  0.00     0.125 C 
ATOM     20  C   UNL     1     -16.517 -43.118  23.484  1.00  0.00     0.125 C 
ENDBRANCH  15  18
ENDBRANCH   1  15
TORSDOF 4
ENDMDL
MODEL 6
REMARK VINA RESULT:    -7.176      4.874      7.879
REMARK INTER + INTRA:          -9.111
REMARK INTER:                  -8.732
REMARK INTRA:                  -0.379
REMARK UNBOUND:                -0.258
REMARK SMILES COc1ccc2c(c1)CC[C@H](NS(=O)(=O)N(C)C)C2
REMARK SMILES IDX 12 1 11 3 3 4 4 5 8 6 5 7 7 8 6 9 9 10 19 11 10 12 2 13 1 14
REMARK SMILES IDX 13 15 14 16 15 17 16 18 17 19 18 20
REMARK H PARENT 12 2
ROOT
ATOM      1  N   UNL     1     -21.898 -41.058  25.900  1.00  0.00    -0.199 NA
ATOM      2  H   UNL     1     -21.741 -40.151  26.341  1.00  0.00     0.142 HD
ENDROOT
BRANCH   1   3
ATOM      3  C   UNL     1     -20.666 -41.866  25.732  1.00  0.00     0.075 C 
ATOM      4  C   UNL     1     -15.689 -43.097  26.293  1.00  0.00     0.119 A 
ATOM      5  C   UNL     1     -16.171 -42.859  27.579  1.00  0.00     0.047 A 
ATOM      6  C   UNL     1     -16.531 -42.883  25.201  1.00  0.00     0.050 A 
ATOM      7  C   UNL     1     -17.478 -42.415  27.778  1.00  0.00     0.008 A 
ATOM      8  C   UNL     1     -17.849 -42.425  25.386  1.00  0.00    -0.041 A 
ATOM      9  C   UNL     1     -18.331 -42.206  26.688  1.00  0.00    -0.043 A 
ATOM     10  C   UNL     1     -18.732 -42.238  24.177  1.00  0.00     0.037 C 
ATOM     11  C   UNL     1     -19.731 -41.695  26.939  1.00  0.00     0.056 C 
ATOM     12  C   UNL     1     -19.964 -41.385  24.461  1.00  0.00     0.025 C 
BRANCH   4  13
ATOM     13  O   UNL     1     -14.394 -43.534  26.240  1.00  0.00    -0.497 OA
ATOM     14  C   UNL     1     -14.050 -44.634  27.072  1.00  0.00     0.278 C 
ENDBRANCH   4  13
ENDBRANCH   1   3
BRANCH   1  15
ATOM     15  S   UNL     1     -23.240 -41.766  26.606  1.00  0.00     0.279 S 
ATOM     16  O   UNL     1     -24.346 -41.417  25.748  1.00  0.00    -0.195 OA
ATOM     17  O   UNL     1     -23.242 -41.453  28.013  1.00  0.00    -0.195 OA
BRANCH  15  18
ATOM     18  N   UNL     1     -22.886 -43.391  26.389  1.00  0.00    -0.195 NA
ATOM     19  C   UNL     1     -22.767 -44.212  27.604  1.00  0.00     0.125 C 
ATOM     20  C   UNL     1     -23.504 -44.098  25.262  1.00  0.00     0.125 C 
ENDBRANCH  15  18
ENDBRANCH   1  15
TORSDOF 4
ENDMDL
MODEL 7
REMARK VINA RESULT:    -7.062      4.793      7.951
REMARK INTER + INTRA:          -8.971
REMARK INTER:                  -8.757
REMARK INTRA:                  -0.214
REMARK UNBOUND:                -0.258
REMARK SMILES COc1ccc2c(c1)CC[C@H](NS(=O)(=O)N(C)C)C2
REMARK SMILES IDX 12 1 11 3 3 4 4 5 8 6 5 7 7 8 6 9 9 10 19 11 10 12 2 13 1 14
REMARK SMILES IDX 13 15 14 16 15 17 16 18 17 19 18 20
REMARK H PARENT 12 2
ROOT
ATOM      1  N   UNL     1     -21.331 -42.075  25.836  1.00  0.00    -0.199 NA
ATOM      2  H   UNL     1     -21.596 -41.910  24.864  1.00  0.00     0.142 HD
ENDROOT
BRANCH   1   3
ATOM      3  C   UNL     1     -19.886 -41.883  26.108  1.00  0.00     0.075 C 
ATOM      4  C   UNL     1     -14.836 -42.892  25.838  1.00  0.00     0.119 A 
ATOM      5  C   UNL     1     -15.287 -42.848  24.520  1.00  0.00     0.047 A 
ATOM      6  C   UNL     1     -15.759 -42.766  26.878  1.00  0.00     0.050 A 
ATOM      7  C   UNL     1     -16.642 -42.678  24.237  1.00  0.00     0.008 A 
ATOM      8  C   UNL     1     -17.130 -42.605  26.608  1.00  0.00    -0.041 A 
ATOM      9  C   UNL     1     -17.573 -42.543  25.275  1.00  0.00    -0.043 A 
ATOM     10  C   UNL     1     -18.086 -42.442  27.764  1.00  0.00     0.037 C 
ATOM     11  C   UNL     1     -19.037 -42.392  24.932  1.00  0.00     0.056 C 
ATOM     12  C   UNL     1     -19.543 -42.670  27.374  1.00  0.00     0.025 C 
BRANCH   4  13
ATOM     13  O   UNL     1     -13.484 -43.057  25.974  1.00  0.00    -0.497 OA
ATOM     14  C   UNL     1     -13.028 -43.678  27.169  1.00  0.00     0.278 C 
ENDBRANCH   4  13
ENDBRANCH   1   3
BRANCH   1  15
ATOM     15  S   UNL     1     -22.449 -41.318  26.825  1.00  0.00     0.279 S 
ATOM     16  O   UNL     1     -21.727 -40.235  27.450  1.00  0.00    -0.195 OA
ATOM     17  O   UNL     1     -23.134 -42.320  27.601  1.00  0.00    -0.195 OA
BRANCH  15  18
ATOM     18  N   UNL     1     -23.493 -40.675  25.682  1.00  0.00    -0.195 NA
ATOM     19  C   UNL     1     -24.032 -39.334  25.956  1.00  0.00     0.125 C 
ATOM     20  C   UNL     1     -23.210 -40.914  24.262  1.00  0.00     0.125 C 
ENDBRANCH  15  18
ENDBRANCH   1  15
TORSDOF 4
ENDMDL
MODEL 8
REMARK VINA RESULT:    -6.847      5.176      9.015
REMARK INTER + INTRA:          -8.706
REMARK INTER:                  -8.380
REMARK INTRA:                  -0.326
REMARK UNBOUND:                -0.258
REMARK SMILES COc1ccc2c(c1)CC[C@H](NS(=O)(=O)N(C)C)C2
REMARK SMILES IDX 12 1 11 3 3 4 4 5 8 6 5 7 7 8 6 9 9 10 19 11 10 12 2 13 1 14
REMARK SMILES IDX 13 15 14 16 15 17 16 18 17 19 18 20
REMARK H PARENT 12 2
ROOT
ATOM      1  N   UNL     1     -21.363 -40.931  22.632  1.00  0.00    -0.199 NA
ATOM      2  H   UNL     1     -21.399 -41.845  22.179  1.00  0.00     0.142 HD
ENDROOT
BRANCH   1   3
ATOM      3  C   UNL     1     -20.491 -40.887  23.831  1.00  0.00     0.075 C 
ATOM      4  C   UNL     1     -17.056 -42.628  27.262  1.00  0.00     0.119 A 
ATOM      5  C   UNL     1     -16.474 -42.816  26.010  1.00  0.00     0.047 A 
ATOM      6  C   UNL     1     -18.364 -42.146  27.339  1.00  0.00     0.050 A 
ATOM      7  C   UNL     1     -17.184 -42.526  24.844  1.00  0.00     0.008 A 
ATOM      8  C   UNL     1     -19.096 -41.858  26.171  1.00  0.00    -0.041 A 
ATOM      9  C   UNL     1     -18.493 -42.034  24.913  1.00  0.00    -0.043 A 
ATOM     10  C   UNL     1     -20.494 -41.309  26.305  1.00  0.00     0.037 C 
ATOM     11  C   UNL     1     -19.242 -41.759  23.630  1.00  0.00     0.056 C 
ATOM     12  C   UNL     1     -21.304 -41.412  25.016  1.00  0.00     0.025 C 
BRANCH   4  13
ATOM     13  O   UNL     1     -16.251 -42.946  28.321  1.00  0.00    -0.497 OA
ATOM     14  C   UNL     1     -16.778 -42.723  29.622  1.00  0.00     0.278 C 
ENDBRANCH   4  13
ENDBRANCH   1   3
BRANCH   1  15
ATOM     15  S   UNL     1     -21.172 -39.761  21.450  1.00  0.00     0.279 S 
ATOM     16  O   UNL     1     -20.935 -40.493  20.229  1.00  0.00    -0.195 OA
ATOM     17  O   UNL     1     -20.248 -38.765  21.930  1.00  0.00    -0.195 OA
BRANCH  15  18
ATOM     18  N   UNL     1     -22.720 -39.118  21.396  1.00  0.00    -0.195 NA
ATOM     19  C   UNL     1     -23.649 -39.706  20.419  1.00  0.00     0.125 C 
ATOM     20  C   UNL     1     -23.363 -38.732  22.657  1.00  0.00     0.125 C 
ENDBRANCH  15  18
ENDBRANCH   1  15
TORSDOF 4
ENDMDL
MODEL 9
REMARK VINA RESULT:    -6.548      5.529      8.498
REMARK INTER + INTRA:          -8.337
REMARK INTER:                  -8.032
REMARK INTRA:                  -0.305
REMARK UNBOUND:                -0.258
REMARK SMILES COc1ccc2c(c1)CC[C@H](NS(=O)(=O)N(C)C)C2
REMARK SMILES IDX 12 1 11 3 3 4 4 5 8 6 5 7 7 8 6 9 9 10 19 11 10 12 2 13 1 14
REMARK SMILES IDX 13 15 14 16 15 17 16 18 17 19 18 20
REMARK H PARENT 12 2
ROOT
ATOM      1  N   UNL     1     -22.389 -40.422  25.711  1.00  0.00    -0.199 NA
ATOM      2  H   UNL     1     -22.044 -39.636  26.264  1.00  0.00     0.142 HD
ENDROOT
BRANCH   1   3
ATOM      3  C   UNL     1     -21.319 -41.218  25.063  1.00  0.00     0.075 C 
ATOM      4  C   UNL     1     -16.503 -42.801  24.113  1.00  0.00     0.119 A 
ATOM      5  C   UNL     1     -16.668 -42.889  25.494  1.00  0.00     0.047 A 
ATOM      6  C   UNL     1     -17.531 -42.262  23.337  1.00  0.00     0.050 A 
ATOM      7  C   UNL     1     -17.845 -42.448  26.099  1.00  0.00     0.008 A 
ATOM      8  C   UNL     1     -18.720 -41.805  23.935  1.00  0.00    -0.041 A 
ATOM      9  C   UNL     1     -18.885 -41.915  25.327  1.00  0.00    -0.043 A 
ATOM     10  C   UNL     1     -19.816 -41.260  23.054  1.00  0.00     0.037 C 
ATOM     11  C   UNL     1     -20.133 -41.420  26.020  1.00  0.00     0.056 C 
ATOM     12  C   UNL     1     -20.858 -40.451  23.822  1.00  0.00     0.025 C 
BRANCH   4  13
ATOM     13  O   UNL     1     -15.305 -43.272  23.649  1.00  0.00    -0.497 OA
ATOM     14  C   UNL     1     -14.636 -44.235  24.453  1.00  0.00     0.278 C 
ENDBRANCH   4  13
ENDBRANCH   1   3
BRANCH   1  15
ATOM     15  S   UNL     1     -23.564 -41.219  26.598  1.00  0.00     0.279 S 
ATOM     16  O   UNL     1     -23.204 -41.006  27.979  1.00  0.00    -0.195 OA
ATOM     17  O   UNL     1     -23.737 -42.542  26.054  1.00  0.00    -0.195 OA
BRANCH  15  18
ATOM     18  N   UNL     1     -24.909 -40.281  26.245  1.00  0.00    -0.195 NA
ATOM     19  C   UNL     1     -24.765 -38.827  26.409  1.00  0.00     0.125 C 
ATOM     20  C   UNL     1     -25.749 -40.662  25.104  1.00  0.00     0.125 C 
ENDBRANCH  15  18
ENDBRANCH   1  15
TORSDOF 4
ENDMDL
