MODEL 1
REMARK VINA RESULT:   -11.084      0.000      0.000
REMARK INTER + INTRA:         -17.321
REMARK INTER:                 -16.591
REMARK INTRA:                  -0.730
REMARK UNBOUND:                -0.730
REMARK SMILES COc1cc2c(cc1OC)S[C@H](C(O)=CCc1cc[n+](Cc3ccc(F)cc3)cc1)C2
REMARK SMILES IDX 15 1 13 2 14 3 12 5 31 6 11 7 5 8 6 9 4 10 7 11 3 12 8 13
REMARK SMILES IDX 2 14 1 15 9 16 10 17 16 18 17 19 18 20 30 21 19 22 29 23
REMARK SMILES IDX 20 24 21 25 22 26 23 27 28 28 24 29 27 30 25 31 26 32
REMARK H PARENT 14 4
ROOT
ATOM      1  C   UNL     1     -14.280 -43.990  25.925  1.00  0.00     0.020 C 
ENDROOT
BRANCH   1   2
ATOM      2  C   UNL     1     -14.905 -43.556  24.817  1.00  0.00     0.102 C 
BRANCH   2   3
ATOM      3  O   UNL     1     -14.547 -44.079  23.583  1.00  0.00    -0.511 OA
ATOM      4  H   UNL     1     -15.364 -44.400  23.150  1.00  0.00     0.293 HD
ENDBRANCH   2   3
BRANCH   2   5
ATOM      5  C   UNL     1     -15.971 -42.482  24.835  1.00  0.00     0.121 C 
ATOM      6  C   UNL     1     -16.992 -42.654  25.978  1.00  0.00     0.059 C 
ATOM      7  S   UNL     1     -16.928 -42.518  23.274  1.00  0.00    -0.114 SA
ATOM      8  C   UNL     1     -18.302 -42.107  25.486  1.00  0.00    -0.029 A 
ATOM      9  C   UNL     1     -18.412 -42.019  24.099  1.00  0.00     0.015 A 
ATOM     10  C   UNL     1     -19.379 -41.766  26.298  1.00  0.00     0.055 A 
ATOM     11  C   UNL     1     -19.581 -41.585  23.492  1.00  0.00     0.065 A 
ATOM     12  C   UNL     1     -20.569 -41.319  25.708  1.00  0.00     0.161 A 
ATOM     13  C   UNL     1     -20.669 -41.228  24.297  1.00  0.00     0.161 A 
BRANCH  12  14
ATOM     14  O   UNL     1     -21.689 -40.952  26.411  1.00  0.00    -0.493 OA
ATOM     15  C   UNL     1     -22.548 -41.981  26.879  1.00  0.00     0.278 C 
ENDBRANCH  12  14
BRANCH  13  16
ATOM     16  O   UNL     1     -21.874 -40.781  23.812  1.00  0.00    -0.493 OA
ATOM     17  C   UNL     1     -21.855 -39.809  22.777  1.00  0.00     0.278 C 
ENDBRANCH  13  16
ENDBRANCH   2   5
ENDBRANCH   1   2
BRANCH   1  18
ATOM     18  C   UNL     1     -13.745 -45.379  26.120  1.00  0.00     0.067 C 
BRANCH  18  19
ATOM     19  C   UNL     1     -13.163 -45.570  27.502  1.00  0.00    -0.032 A 
ATOM     20  C   UNL     1     -12.006 -46.320  27.704  1.00  0.00     0.075 A 
ATOM     21  C   UNL     1     -13.807 -45.026  28.615  1.00  0.00     0.075 A 
ATOM     22  C   UNL     1     -11.517 -46.497  28.994  1.00  0.00     0.308 A 
ATOM     23  C   UNL     1     -13.285 -45.230  29.886  1.00  0.00     0.308 A 
ATOM     24  N   UNL     1     -12.154 -45.951  30.058  1.00  0.00    -0.201 N 
BRANCH  24  25
ATOM     25  C   UNL     1     -11.617 -46.168  31.424  1.00  0.00     0.393 C 
BRANCH  25  26
ATOM     26  C   UNL     1     -10.368 -45.353  31.658  1.00  0.00     0.017 A 
ATOM     27  C   UNL     1     -10.449 -44.021  32.102  1.00  0.00     0.013 A 
ATOM     28  C   UNL     1      -9.101 -45.925  31.447  1.00  0.00     0.013 A 
ATOM     29  C   UNL     1      -9.287 -43.276  32.312  1.00  0.00     0.040 A 
ATOM     30  C   UNL     1      -7.943 -45.174  31.659  1.00  0.00     0.040 A 
ATOM     31  C   UNL     1      -8.045 -43.858  32.088  1.00  0.00     0.123 A 
ATOM     32  F   UNL     1      -6.934 -43.140  32.288  1.00  0.00    -0.207 F 
ENDBRANCH  25  26
ENDBRANCH  24  25
ENDBRANCH  18  19
ENDBRANCH   1  18
TORSDOF 9
ENDMDL
MODEL 2
REMARK VINA RESULT:   -10.900      1.123      2.399
REMARK INTER + INTRA:         -17.047
REMARK INTER:                 -16.328
REMARK INTRA:                  -0.719
REMARK UNBOUND:                -0.730
REMARK SMILES COc1cc2c(cc1OC)S[C@H](C(O)=CCc1cc[n+](Cc3ccc(F)cc3)cc1)C2
REMARK SMILES IDX 15 1 13 2 14 3 12 5 31 6 11 7 5 8 6 9 4 10 7 11 3 12 8 13
REMARK SMILES IDX 2 14 1 15 9 16 10 17 16 18 17 19 18 20 30 21 19 22 29 23
REMARK SMILES IDX 20 24 21 25 22 26 23 27 28 28 24 29 27 30 25 31 26 32
REMARK H PARENT 14 4
ROOT
ATOM      1  C   UNL     1     -14.794 -43.260  25.742  1.00  0.00     0.020 C 
ENDROOT
BRANCH   1   2
ATOM      2  C   UNL     1     -15.518 -42.767  24.724  1.00  0.00     0.102 C 
BRANCH   2   3
ATOM      3  O   UNL     1     -14.878 -42.089  23.697  1.00  0.00    -0.511 OA
ATOM      4  H   UNL     1     -15.569 -41.750  23.091  1.00  0.00     0.293 HD
ENDBRANCH   2   3
BRANCH   2   5
ATOM      5  C   UNL     1     -17.026 -42.881  24.650  1.00  0.00     0.121 C 
ATOM      6  C   UNL     1     -17.661 -41.928  23.617  1.00  0.00     0.059 C 
ATOM      7  S   UNL     1     -17.770 -42.462  26.270  1.00  0.00    -0.114 SA
ATOM      8  C   UNL     1     -19.024 -41.563  24.133  1.00  0.00    -0.029 A 
ATOM      9  C   UNL     1     -19.200 -41.757  25.502  1.00  0.00     0.015 A 
ATOM     10  C   UNL     1     -20.043 -41.005  23.367  1.00  0.00     0.055 A 
ATOM     11  C   UNL     1     -20.386 -41.416  26.135  1.00  0.00     0.065 A 
ATOM     12  C   UNL     1     -21.252 -40.658  23.983  1.00  0.00     0.161 A 
ATOM     13  C   UNL     1     -21.424 -40.865  25.374  1.00  0.00     0.161 A 
BRANCH  12  14
ATOM     14  O   UNL     1     -22.324 -40.108  23.324  1.00  0.00    -0.493 OA
ATOM     15  C   UNL     1     -22.146 -39.718  21.970  1.00  0.00     0.278 C 
ENDBRANCH  12  14
BRANCH  13  16
ATOM     16  O   UNL     1     -22.642 -40.491  25.888  1.00  0.00    -0.493 OA
ATOM     17  C   UNL     1     -22.732 -40.262  27.286  1.00  0.00     0.278 C 
ENDBRANCH  13  16
ENDBRANCH   2   5
ENDBRANCH   1   2
BRANCH   1  18
ATOM     18  C   UNL     1     -14.129 -44.606  25.750  1.00  0.00     0.067 C 
BRANCH  18  19
ATOM     19  C   UNL     1     -13.739 -45.034  27.146  1.00  0.00    -0.032 A 
ATOM     20  C   UNL     1     -14.279 -44.416  28.272  1.00  0.00     0.075 A 
ATOM     21  C   UNL     1     -12.788 -46.040  27.331  1.00  0.00     0.075 A 
ATOM     22  C   UNL     1     -13.874 -44.819  29.540  1.00  0.00     0.308 A 
ATOM     23  C   UNL     1     -12.410 -46.409  28.615  1.00  0.00     0.308 A 
ATOM     24  N   UNL     1     -12.957 -45.804  29.694  1.00  0.00    -0.201 N 
BRANCH  24  25
ATOM     25  C   UNL     1     -12.533 -46.203  31.059  1.00  0.00     0.393 C 
BRANCH  25  26
ATOM     26  C   UNL     1     -11.113 -45.772  31.339  1.00  0.00     0.017 A 
ATOM     27  C   UNL     1     -10.034 -46.639  31.091  1.00  0.00     0.013 A 
ATOM     28  C   UNL     1     -10.851 -44.486  31.844  1.00  0.00     0.013 A 
ATOM     29  C   UNL     1      -8.726 -46.231  31.358  1.00  0.00     0.040 A 
ATOM     30  C   UNL     1      -9.541 -44.085  32.109  1.00  0.00     0.040 A 
ATOM     31  C   UNL     1      -8.490 -44.960  31.865  1.00  0.00     0.123 A 
ATOM     32  F   UNL     1      -7.235 -44.573  32.122  1.00  0.00    -0.207 F 
ENDBRANCH  25  26
ENDBRANCH  24  25
ENDBRANCH  18  19
ENDBRANCH   1  18
TORSDOF 9
ENDMDL
MODEL 3
REMARK VINA RESULT:   -10.773      1.462      2.436
REMARK INTER + INTRA:         -16.856
REMARK INTER:                 -16.166
REMARK INTRA:                  -0.690
REMARK UNBOUND:                -0.730
REMARK SMILES COc1cc2c(cc1OC)S[C@H](C(O)=CCc1cc[n+](Cc3ccc(F)cc3)cc1)C2
REMARK SMILES IDX 15 1 13 2 14 3 12 5 31 6 11 7 5 8 6 9 4 10 7 11 3 12 8 13
REMARK SMILES IDX 2 14 1 15 9 16 10 17 16 18 17 19 18 20 30 21 19 22 29 23
REMARK SMILES IDX 20 24 21 25 22 26 23 27 28 28 24 29 27 30 25 31 26 32
REMARK H PARENT 14 4
ROOT
ATOM      1  C   UNL     1     -14.938 -43.245  25.510  1.00  0.00     0.020 C 
ENDROOT
BRANCH   1   2
ATOM      2  C   UNL     1     -15.327 -42.614  24.390  1.00  0.00     0.102 C 
BRANCH   2   3
ATOM      3  O   UNL     1     -14.429 -41.796  23.721  1.00  0.00    -0.511 OA
ATOM      4  H   UNL     1     -14.477 -42.021  22.769  1.00  0.00     0.293 HD
ENDBRANCH   2   3
BRANCH   2   5
ATOM      5  C   UNL     1     -16.728 -42.717  23.826  1.00  0.00     0.121 C 
ATOM      6  C   UNL     1     -17.023 -41.676  22.727  1.00  0.00     0.059 C 
ATOM      7  S   UNL     1     -17.962 -42.438  25.151  1.00  0.00    -0.114 SA
ATOM      8  C   UNL     1     -18.489 -41.354  22.806  1.00  0.00    -0.029 A 
ATOM      9  C   UNL     1     -19.089 -41.667  24.025  1.00  0.00     0.015 A 
ATOM     10  C   UNL     1     -19.222 -40.730  21.802  1.00  0.00     0.055 A 
ATOM     11  C   UNL     1     -20.423 -41.378  24.269  1.00  0.00     0.065 A 
ATOM     12  C   UNL     1     -20.574 -40.434  22.024  1.00  0.00     0.161 A 
ATOM     13  C   UNL     1     -21.177 -40.761  23.264  1.00  0.00     0.161 A 
BRANCH  12  14
ATOM     14  O   UNL     1     -21.392 -39.827  21.104  1.00  0.00    -0.493 OA
ATOM     15  C   UNL     1     -20.928 -38.636  20.484  1.00  0.00     0.278 C 
ENDBRANCH  12  14
BRANCH  13  16
ATOM     16  O   UNL     1     -22.505 -40.430  23.388  1.00  0.00    -0.493 OA
ATOM     17  C   UNL     1     -23.461 -41.476  23.295  1.00  0.00     0.278 C 
ENDBRANCH  13  16
ENDBRANCH   2   5
ENDBRANCH   1   2
BRANCH   1  18
ATOM     18  C   UNL     1     -14.210 -44.558  25.546  1.00  0.00     0.067 C 
BRANCH  18  19
ATOM     19  C   UNL     1     -13.818 -44.947  26.953  1.00  0.00    -0.032 A 
ATOM     20  C   UNL     1     -12.902 -45.970  27.194  1.00  0.00     0.075 A 
ATOM     21  C   UNL     1     -14.407 -44.309  28.046  1.00  0.00     0.075 A 
ATOM     22  C   UNL     1     -12.588 -46.318  28.504  1.00  0.00     0.308 A 
ATOM     23  C   UNL     1     -14.066 -44.690  29.337  1.00  0.00     0.308 A 
ATOM     24  N   UNL     1     -13.165 -45.677  29.548  1.00  0.00    -0.201 N 
BRANCH  24  25
ATOM     25  C   UNL     1     -12.822 -46.079  30.934  1.00  0.00     0.393 C 
BRANCH  25  26
ATOM     26  C   UNL     1     -11.427 -45.637  31.305  1.00  0.00     0.017 A 
ATOM     27  C   UNL     1     -11.196 -44.365  31.858  1.00  0.00     0.013 A 
ATOM     28  C   UNL     1     -10.336 -46.503  31.111  1.00  0.00     0.013 A 
ATOM     29  C   UNL     1      -9.901 -43.966  32.193  1.00  0.00     0.040 A 
ATOM     30  C   UNL     1      -9.043 -46.097  31.448  1.00  0.00     0.040 A 
ATOM     31  C   UNL     1      -8.837 -44.833  31.985  1.00  0.00     0.123 A 
ATOM     32  F   UNL     1      -7.596 -44.446  32.305  1.00  0.00    -0.207 F 
ENDBRANCH  25  26
ENDBRANCH  24  25
ENDBRANCH  18  19
ENDBRANCH   1  18
TORSDOF 9
ENDMDL
MODEL 4
REMARK VINA RESULT:   -10.528      1.491      2.158
REMARK INTER + INTRA:         -16.489
REMARK INTER:                 -15.921
REMARK INTRA:                  -0.568
REMARK UNBOUND:                -0.730
REMARK SMILES COc1cc2c(cc1OC)S[C@H](C(O)=CCc1cc[n+](Cc3ccc(F)cc3)cc1)C2
REMARK SMILES IDX 15 1 13 2 14 3 12 5 31 6 11 7 5 8 6 9 4 10 7 11 3 12 8 13
REMARK SMILES IDX 2 14 1 15 9 16 10 17 16 18 17 19 18 20 30 21 19 22 29 23
REMARK SMILES IDX 20 24 21 25 22 26 23 27 28 28 24 29 27 30 25 31 26 32
REMARK H PARENT 14 4
ROOT
ATOM      1  C   UNL     1     -14.901 -43.757  26.049  1.00  0.00     0.020 C 
ENDROOT
BRANCH   1   2
ATOM      2  C   UNL     1     -15.324 -43.404  24.824  1.00  0.00     0.102 C 
BRANCH   2   3
ATOM      3  O   UNL     1     -14.810 -44.051  23.711  1.00  0.00    -0.511 OA
ATOM      4  H   UNL     1     -15.514 -44.630  23.353  1.00  0.00     0.293 HD
ENDBRANCH   2   3
BRANCH   2   5
ATOM      5  C   UNL     1     -16.324 -42.292  24.583  1.00  0.00     0.121 C 
ATOM      6  C   UNL     1     -17.788 -42.735  24.777  1.00  0.00     0.059 C 
ATOM      7  S   UNL     1     -16.187 -41.685  22.861  1.00  0.00    -0.114 SA
ATOM      8  C   UNL     1     -18.625 -41.913  23.838  1.00  0.00    -0.029 A 
ATOM      9  C   UNL     1     -17.922 -41.343  22.778  1.00  0.00     0.015 A 
ATOM     10  C   UNL     1     -20.005 -41.758  23.929  1.00  0.00     0.055 A 
ATOM     11  C   UNL     1     -18.566 -40.603  21.798  1.00  0.00     0.065 A 
ATOM     12  C   UNL     1     -20.676 -41.009  22.954  1.00  0.00     0.161 A 
ATOM     13  C   UNL     1     -19.951 -40.428  21.883  1.00  0.00     0.161 A 
BRANCH  12  14
ATOM     14  O   UNL     1     -22.031 -40.786  22.948  1.00  0.00    -0.493 OA
ATOM     15  C   UNL     1     -22.618 -40.218  24.109  1.00  0.00     0.278 C 
ENDBRANCH  12  14
BRANCH  13  16
ATOM     16  O   UNL     1     -20.697 -39.714  20.975  1.00  0.00    -0.493 OA
ATOM     17  C   UNL     1     -20.044 -39.239  19.807  1.00  0.00     0.278 C 
ENDBRANCH  13  16
ENDBRANCH   2   5
ENDBRANCH   1   2
BRANCH   1  18
ATOM     18  C   UNL     1     -13.846 -44.789  26.328  1.00  0.00     0.067 C 
BRANCH  18  19
ATOM     19  C   UNL     1     -13.309 -44.680  27.736  1.00  0.00    -0.032 A 
ATOM     20  C   UNL     1     -14.078 -45.052  28.837  1.00  0.00     0.075 A 
ATOM     21  C   UNL     1     -12.033 -44.159  27.961  1.00  0.00     0.075 A 
ATOM     22  C   UNL     1     -13.559 -44.911  30.119  1.00  0.00     0.308 A 
ATOM     23  C   UNL     1     -11.556 -44.032  29.259  1.00  0.00     0.308 A 
ATOM     24  N   UNL     1     -12.315 -44.412  30.312  1.00  0.00    -0.201 N 
BRANCH  24  25
ATOM     25  C   UNL     1     -11.793 -44.258  31.693  1.00  0.00     0.393 C 
BRANCH  25  26
ATOM     26  C   UNL     1     -10.333 -44.633  31.771  1.00  0.00     0.017 A 
ATOM     27  C   UNL     1      -9.896 -45.917  31.399  1.00  0.00     0.013 A 
ATOM     28  C   UNL     1      -9.384 -43.692  32.209  1.00  0.00     0.013 A 
ATOM     29  C   UNL     1      -8.543 -46.252  31.479  1.00  0.00     0.040 A 
ATOM     30  C   UNL     1      -8.033 -44.034  32.287  1.00  0.00     0.040 A 
ATOM     31  C   UNL     1      -7.624 -45.310  31.923  1.00  0.00     0.123 A 
ATOM     32  F   UNL     1      -6.329 -45.636  32.001  1.00  0.00    -0.207 F 
ENDBRANCH  25  26
ENDBRANCH  24  25
ENDBRANCH  18  19
ENDBRANCH   1  18
TORSDOF 9
ENDMDL
MODEL 5
REMARK VINA RESULT:   -10.240      5.229     10.135
REMARK INTER + INTRA:         -16.059
REMARK INTER:                 -15.078
REMARK INTRA:                  -0.981
REMARK UNBOUND:                -0.730
REMARK SMILES COc1cc2c(cc1OC)S[C@H](C(O)=CCc1cc[n+](Cc3ccc(F)cc3)cc1)C2
REMARK SMILES IDX 15 1 13 2 14 3 12 5 31 6 11 7 5 8 6 9 4 10 7 11 3 12 8 13
REMARK SMILES IDX 2 14 1 15 9 16 10 17 16 18 17 19 18 20 30 21 19 22 29 23
REMARK SMILES IDX 20 24 21 25 22 26 23 27 28 28 24 29 27 30 25 31 26 32
REMARK H PARENT 14 4
ROOT
ATOM      1  C   UNL     1     -12.769 -46.525  28.055  1.00  0.00     0.020 C 
ENDROOT
BRANCH   1   2
ATOM      2  C   UNL     1     -11.645 -46.397  28.778  1.00  0.00     0.102 C 
BRANCH   2   3
ATOM      3  O   UNL     1     -10.424 -46.717  28.204  1.00  0.00    -0.511 OA
ATOM      4  H   UNL     1      -9.806 -45.981  28.393  1.00  0.00     0.293 HD
ENDBRANCH   2   3
BRANCH   2   5
ATOM      5  C   UNL     1     -11.638 -45.949  30.224  1.00  0.00     0.121 C 
ATOM      6  C   UNL     1     -12.796 -44.993  30.574  1.00  0.00     0.059 C 
ATOM      7  S   UNL     1     -10.088 -45.046  30.597  1.00  0.00    -0.114 SA
ATOM      8  C   UNL     1     -12.299 -44.073  31.653  1.00  0.00    -0.029 A 
ATOM      9  C   UNL     1     -10.911 -43.982  31.747  1.00  0.00     0.015 A 
ATOM     10  C   UNL     1     -13.110 -43.297  32.474  1.00  0.00     0.055 A 
ATOM     11  C   UNL     1     -10.302 -43.132  32.658  1.00  0.00     0.065 A 
ATOM     12  C   UNL     1     -12.517 -42.435  33.407  1.00  0.00     0.161 A 
ATOM     13  C   UNL     1     -11.105 -42.354  33.499  1.00  0.00     0.161 A 
BRANCH  12  14
ATOM     14  O   UNL     1     -13.219 -41.630  34.269  1.00  0.00    -0.493 OA
ATOM     15  C   UNL     1     -14.638 -41.669  34.212  1.00  0.00     0.278 C 
ENDBRANCH  12  14
BRANCH  13  16
ATOM     16  O   UNL     1     -10.618 -41.480  34.441  1.00  0.00    -0.493 OA
ATOM     17  C   UNL     1      -9.438 -41.848  35.141  1.00  0.00     0.278 C 
ENDBRANCH  13  16
ENDBRANCH   2   5
ENDBRANCH   1   2
BRANCH   1  18
ATOM     18  C   UNL     1     -12.868 -46.294  26.574  1.00  0.00     0.067 C 
BRANCH  18  19
ATOM     19  C   UNL     1     -13.824 -45.171  26.242  1.00  0.00    -0.032 A 
ATOM     20  C   UNL     1     -14.381 -44.373  27.239  1.00  0.00     0.075 A 
ATOM     21  C   UNL     1     -14.201 -44.941  24.917  1.00  0.00     0.075 A 
ATOM     22  C   UNL     1     -15.279 -43.368  26.895  1.00  0.00     0.308 A 
ATOM     23  C   UNL     1     -15.103 -43.928  24.619  1.00  0.00     0.308 A 
ATOM     24  N   UNL     1     -15.622 -43.157  25.602  1.00  0.00    -0.201 N 
BRANCH  24  25
ATOM     25  C   UNL     1     -16.593 -42.088  25.266  1.00  0.00     0.393 C 
BRANCH  25  26
ATOM     26  C   UNL     1     -17.997 -42.478  25.661  1.00  0.00     0.017 A 
ATOM     27  C   UNL     1     -18.494 -42.186  26.943  1.00  0.00     0.013 A 
ATOM     28  C   UNL     1     -18.834 -43.133  24.740  1.00  0.00     0.013 A 
ATOM     29  C   UNL     1     -19.793 -42.555  27.298  1.00  0.00     0.040 A 
ATOM     30  C   UNL     1     -20.132 -43.499  25.100  1.00  0.00     0.040 A 
ATOM     31  C   UNL     1     -20.600 -43.209  26.375  1.00  0.00     0.123 A 
ATOM     32  F   UNL     1     -21.843 -43.564  26.720  1.00  0.00    -0.207 F 
ENDBRANCH  25  26
ENDBRANCH  24  25
ENDBRANCH  18  19
ENDBRANCH   1  18
TORSDOF 9
ENDMDL
MODEL 6
REMARK VINA RESULT:    -9.659      2.138      3.613
REMARK INTER + INTRA:         -15.189
REMARK INTER:                 -15.654
REMARK INTRA:                   0.465
REMARK UNBOUND:                -0.730
REMARK SMILES COc1cc2c(cc1OC)S[C@H](C(O)=CCc1cc[n+](Cc3ccc(F)cc3)cc1)C2
REMARK SMILES IDX 15 1 13 2 14 3 12 5 31 6 11 7 5 8 6 9 4 10 7 11 3 12 8 13
REMARK SMILES IDX 2 14 1 15 9 16 10 17 16 18 17 19 18 20 30 21 19 22 29 23
REMARK SMILES IDX 20 24 21 25 22 26 23 27 28 28 24 29 27 30 25 31 26 32
REMARK H PARENT 14 4
ROOT
ATOM      1  C   UNL     1     -15.894 -42.850  24.388  1.00  0.00     0.020 C 
ENDROOT
BRANCH   1   2
ATOM      2  C   UNL     1     -16.217 -42.087  23.332  1.00  0.00     0.102 C 
BRANCH   2   3
ATOM      3  O   UNL     1     -15.241 -41.303  22.733  1.00  0.00    -0.511 OA
ATOM      4  H   UNL     1     -15.652 -40.854  21.966  1.00  0.00     0.293 HD
ENDBRANCH   2   3
BRANCH   2   5
ATOM      5  C   UNL     1     -17.619 -42.003  22.768  1.00  0.00     0.121 C 
ATOM      6  C   UNL     1     -17.884 -40.706  21.978  1.00  0.00     0.059 C 
ATOM      7  S   UNL     1     -18.847 -42.044  24.127  1.00  0.00    -0.114 SA
ATOM      8  C   UNL     1     -19.340 -40.376  22.146  1.00  0.00    -0.029 A 
ATOM      9  C   UNL     1     -19.951 -40.977  23.245  1.00  0.00     0.015 A 
ATOM     10  C   UNL     1     -20.055 -39.494  21.342  1.00  0.00     0.055 A 
ATOM     11  C   UNL     1     -21.277 -40.726  23.563  1.00  0.00     0.065 A 
ATOM     12  C   UNL     1     -21.399 -39.229  21.640  1.00  0.00     0.161 A 
ATOM     13  C   UNL     1     -22.012 -39.850  22.757  1.00  0.00     0.161 A 
BRANCH  12  14
ATOM     14  O   UNL     1     -22.198 -38.383  20.913  1.00  0.00    -0.493 OA
ATOM     15  C   UNL     1     -22.363 -38.647  19.527  1.00  0.00     0.278 C 
ENDBRANCH  12  14
BRANCH  13  16
ATOM     16  O   UNL     1     -23.331 -39.527  22.969  1.00  0.00    -0.493 OA
ATOM     17  C   UNL     1     -24.315 -40.488  22.618  1.00  0.00     0.278 C 
ENDBRANCH  13  16
ENDBRANCH   2   5
ENDBRANCH   1   2
BRANCH   1  18
ATOM     18  C   UNL     1     -14.709 -43.770  24.453  1.00  0.00     0.067 C 
BRANCH  18  19
ATOM     19  C   UNL     1     -14.436 -44.239  25.864  1.00  0.00    -0.032 A 
ATOM     20  C   UNL     1     -14.973 -43.575  26.966  1.00  0.00     0.075 A 
ATOM     21  C   UNL     1     -13.597 -45.332  26.089  1.00  0.00     0.075 A 
ATOM     22  C   UNL     1     -14.675 -44.020  28.249  1.00  0.00     0.308 A 
ATOM     23  C   UNL     1     -13.324 -45.740  27.388  1.00  0.00     0.308 A 
ATOM     24  N   UNL     1     -13.866 -45.089  28.442  1.00  0.00    -0.201 N 
BRANCH  24  25
ATOM     25  C   UNL     1     -13.554 -45.532  29.824  1.00  0.00     0.393 C 
BRANCH  25  26
ATOM     26  C   UNL     1     -12.089 -45.861  29.976  1.00  0.00     0.017 A 
ATOM     27  C   UNL     1     -11.299 -46.173  28.855  1.00  0.00     0.013 A 
ATOM     28  C   UNL     1     -11.489 -45.848  31.248  1.00  0.00     0.013 A 
ATOM     29  C   UNL     1      -9.945 -46.479  29.009  1.00  0.00     0.040 A 
ATOM     30  C   UNL     1     -10.136 -46.155  31.395  1.00  0.00     0.040 A 
ATOM     31  C   UNL     1      -9.376 -46.469  30.276  1.00  0.00     0.123 A 
ATOM     32  F   UNL     1      -8.079 -46.766  30.420  1.00  0.00    -0.207 F 
ENDBRANCH  25  26
ENDBRANCH  24  25
ENDBRANCH  18  19
ENDBRANCH   1  18
TORSDOF 9
ENDMDL
MODEL 7
REMARK VINA RESULT:    -9.604      5.232     11.537
REMARK INTER + INTRA:         -15.106
REMARK INTER:                 -14.290
REMARK INTRA:                  -0.816
REMARK UNBOUND:                -0.730
REMARK SMILES COc1cc2c(cc1OC)S[C@H](C(O)=CCc1cc[n+](Cc3ccc(F)cc3)cc1)C2
REMARK SMILES IDX 15 1 13 2 14 3 12 5 31 6 11 7 5 8 6 9 4 10 7 11 3 12 8 13
REMARK SMILES IDX 2 14 1 15 9 16 10 17 16 18 17 19 18 20 30 21 19 22 29 23
REMARK SMILES IDX 20 24 21 25 22 26 23 27 28 28 24 29 27 30 25 31 26 32
REMARK H PARENT 14 4
ROOT
ATOM      1  C   UNL     1     -15.586 -43.666  27.178  1.00  0.00     0.020 C 
ENDROOT
BRANCH   1   2
ATOM      2  C   UNL     1     -14.732 -44.115  28.112  1.00  0.00     0.102 C 
BRANCH   2   3
ATOM      3  O   UNL     1     -15.212 -44.465  29.365  1.00  0.00    -0.511 OA
ATOM      4  H   UNL     1     -16.172 -44.637  29.276  1.00  0.00     0.293 HD
ENDBRANCH   2   3
BRANCH   2   5
ATOM      5  C   UNL     1     -13.239 -44.228  27.882  1.00  0.00     0.121 C 
ATOM      6  C   UNL     1     -12.419 -44.243  29.187  1.00  0.00     0.059 C 
ATOM      7  S   UNL     1     -12.642 -42.797  26.908  1.00  0.00    -0.114 SA
ATOM      8  C   UNL     1     -11.094 -43.605  28.883  1.00  0.00    -0.029 A 
ATOM      9  C   UNL     1     -11.083 -42.799  27.745  1.00  0.00     0.015 A 
ATOM     10  C   UNL     1      -9.955 -43.716  29.674  1.00  0.00     0.055 A 
ATOM     11  C   UNL     1      -9.947 -42.099  27.365  1.00  0.00     0.065 A 
ATOM     12  C   UNL     1      -8.793 -43.024  29.307  1.00  0.00     0.161 A 
ATOM     13  C   UNL     1      -8.791 -42.212  28.145  1.00  0.00     0.161 A 
BRANCH  12  14
ATOM     14  O   UNL     1      -7.615 -43.066  30.009  1.00  0.00    -0.493 OA
ATOM     15  C   UNL     1      -7.439 -44.111  30.954  1.00  0.00     0.278 C 
ENDBRANCH  12  14
BRANCH  13  16
ATOM     16  O   UNL     1      -7.607 -41.571  27.868  1.00  0.00    -0.493 OA
ATOM     17  C   UNL     1      -7.368 -41.168  26.527  1.00  0.00     0.278 C 
ENDBRANCH  13  16
ENDBRANCH   2   5
ENDBRANCH   1   2
BRANCH   1  18
ATOM     18  C   UNL     1     -16.448 -42.444  27.320  1.00  0.00     0.067 C 
BRANCH  18  19
ATOM     19  C   UNL     1     -17.601 -42.451  26.342  1.00  0.00    -0.032 A 
ATOM     20  C   UNL     1     -17.407 -42.748  24.995  1.00  0.00     0.075 A 
ATOM     21  C   UNL     1     -18.886 -42.115  26.772  1.00  0.00     0.075 A 
ATOM     22  C   UNL     1     -18.488 -42.717  24.120  1.00  0.00     0.308 A 
ATOM     23  C   UNL     1     -19.937 -42.092  25.864  1.00  0.00     0.308 A 
ATOM     24  N   UNL     1     -19.728 -42.397  24.563  1.00  0.00    -0.201 N 
BRANCH  24  25
ATOM     25  C   UNL     1     -20.860 -42.357  23.604  1.00  0.00     0.393 C 
BRANCH  25  26
ATOM     26  C   UNL     1     -20.632 -41.321  22.530  1.00  0.00     0.017 A 
ATOM     27  C   UNL     1     -20.528 -39.956  22.854  1.00  0.00     0.013 A 
ATOM     28  C   UNL     1     -20.509 -41.712  21.185  1.00  0.00     0.013 A 
ATOM     29  C   UNL     1     -20.321 -39.007  21.851  1.00  0.00     0.040 A 
ATOM     30  C   UNL     1     -20.302 -40.758  20.187  1.00  0.00     0.040 A 
ATOM     31  C   UNL     1     -20.211 -39.415  20.528  1.00  0.00     0.123 A 
ATOM     32  F   UNL     1     -20.015 -38.502  19.569  1.00  0.00    -0.207 F 
ENDBRANCH  25  26
ENDBRANCH  24  25
ENDBRANCH  18  19
ENDBRANCH   1  18
TORSDOF 9
ENDMDL
MODEL 8
REMARK VINA RESULT:    -9.301      5.274     11.128
REMARK INTER + INTRA:         -14.653
REMARK INTER:                 -13.919
REMARK INTRA:                  -0.735
REMARK UNBOUND:                -0.730
REMARK SMILES COc1cc2c(cc1OC)S[C@H](C(O)=CCc1cc[n+](Cc3ccc(F)cc3)cc1)C2
REMARK SMILES IDX 15 1 13 2 14 3 12 5 31 6 11 7 5 8 6 9 4 10 7 11 3 12 8 13
REMARK SMILES IDX 2 14 1 15 9 16 10 17 16 18 17 19 18 20 30 21 19 22 29 23
REMARK SMILES IDX 20 24 21 25 22 26 23 27 28 28 24 29 27 30 25 31 26 32
REMARK H PARENT 14 4
ROOT
ATOM      1  C   UNL     1     -12.443 -46.097  28.133  1.00  0.00     0.020 C 
ENDROOT
BRANCH   1   2
ATOM      2  C   UNL     1     -11.150 -45.930  28.458  1.00  0.00     0.102 C 
BRANCH   2   3
ATOM      3  O   UNL     1     -10.226 -46.900  28.101  1.00  0.00    -0.511 OA
ATOM      4  H   UNL     1      -9.340 -46.482  28.111  1.00  0.00     0.293 HD
ENDBRANCH   2   3
BRANCH   2   5
ATOM      5  C   UNL     1     -10.642 -44.736  29.238  1.00  0.00     0.121 C 
ATOM      6  C   UNL     1      -9.235 -44.950  29.833  1.00  0.00     0.059 C 
ATOM      7  S   UNL     1     -11.755 -44.386  30.650  1.00  0.00    -0.114 SA
ATOM      8  C   UNL     1      -9.169 -44.155  31.106  1.00  0.00    -0.029 A 
ATOM      9  C   UNL     1     -10.408 -43.829  31.654  1.00  0.00     0.015 A 
ATOM     10  C   UNL     1      -7.995 -43.806  31.767  1.00  0.00     0.055 A 
ATOM     11  C   UNL     1     -10.510 -43.145  32.856  1.00  0.00     0.065 A 
ATOM     12  C   UNL     1      -8.073 -43.109  32.981  1.00  0.00     0.161 A 
ATOM     13  C   UNL     1      -9.339 -42.777  33.527  1.00  0.00     0.161 A 
BRANCH  12  14
ATOM     14  O   UNL     1      -6.983 -42.710  33.714  1.00  0.00    -0.493 OA
ATOM     15  C   UNL     1      -5.701 -43.154  33.295  1.00  0.00     0.278 C 
ENDBRANCH  12  14
BRANCH  13  16
ATOM     16  O   UNL     1      -9.313 -42.096  34.720  1.00  0.00    -0.493 OA
ATOM     17  C   UNL     1     -10.548 -41.631  35.246  1.00  0.00     0.278 C 
ENDBRANCH  13  16
ENDBRANCH   2   5
ENDBRANCH   1   2
BRANCH   1  18
ATOM     18  C   UNL     1     -12.960 -46.272  26.734  1.00  0.00     0.067 C 
BRANCH  18  19
ATOM     19  C   UNL     1     -13.895 -45.154  26.335  1.00  0.00    -0.032 A 
ATOM     20  C   UNL     1     -14.486 -44.327  27.288  1.00  0.00     0.075 A 
ATOM     21  C   UNL     1     -14.217 -44.955  24.990  1.00  0.00     0.075 A 
ATOM     22  C   UNL     1     -15.363 -43.327  26.884  1.00  0.00     0.308 A 
ATOM     23  C   UNL     1     -15.100 -43.946  24.631  1.00  0.00     0.308 A 
ATOM     24  N   UNL     1     -15.653 -43.147  25.573  1.00  0.00    -0.201 N 
BRANCH  24  25
ATOM     25  C   UNL     1     -16.603 -42.081  25.171  1.00  0.00     0.393 C 
BRANCH  25  26
ATOM     26  C   UNL     1     -18.020 -42.438  25.552  1.00  0.00     0.017 A 
ATOM     27  C   UNL     1     -18.848 -43.149  24.666  1.00  0.00     0.013 A 
ATOM     28  C   UNL     1     -18.527 -42.071  26.812  1.00  0.00     0.013 A 
ATOM     29  C   UNL     1     -20.158 -43.470  25.028  1.00  0.00     0.040 A 
ATOM     30  C   UNL     1     -19.837 -42.395  27.168  1.00  0.00     0.040 A 
ATOM     31  C   UNL     1     -20.641 -43.090  26.274  1.00  0.00     0.123 A 
ATOM     32  F   UNL     1     -21.898 -43.397  26.616  1.00  0.00    -0.207 F 
ENDBRANCH  25  26
ENDBRANCH  24  25
ENDBRANCH  18  19
ENDBRANCH   1  18
TORSDOF 9
ENDMDL
MODEL 9
REMARK VINA RESULT:    -9.296      5.098     10.353
REMARK INTER + INTRA:         -14.645
REMARK INTER:                 -15.585
REMARK INTRA:                   0.939
REMARK UNBOUND:                -0.730
REMARK SMILES COc1cc2c(cc1OC)S[C@H](C(O)=CCc1cc[n+](Cc3ccc(F)cc3)cc1)C2
REMARK SMILES IDX 15 1 13 2 14 3 12 5 31 6 11 7 5 8 6 9 4 10 7 11 3 12 8 13
REMARK SMILES IDX 2 14 1 15 9 16 10 17 16 18 17 19 18 20 30 21 19 22 29 23
REMARK SMILES IDX 20 24 21 25 22 26 23 27 28 28 24 29 27 30 25 31 26 32
REMARK H PARENT 14 4
ROOT
ATOM      1  C   UNL     1     -13.764 -45.062  26.611  1.00  0.00     0.020 C 
ENDROOT
BRANCH   1   2
ATOM      2  C   UNL     1     -12.985 -45.901  27.313  1.00  0.00     0.102 C 
BRANCH   2   3
ATOM      3  O   UNL     1     -12.424 -47.001  26.682  1.00  0.00    -0.511 OA
ATOM      4  H   UNL     1     -12.422 -46.820  25.719  1.00  0.00     0.293 HD
ENDBRANCH   2   3
BRANCH   2   5
ATOM      5  C   UNL     1     -12.710 -45.731  28.792  1.00  0.00     0.121 C 
ATOM      6  C   UNL     1     -13.884 -45.096  29.564  1.00  0.00     0.059 C 
ATOM      7  S   UNL     1     -11.267 -44.631  29.042  1.00  0.00    -0.114 SA
ATOM      8  C   UNL     1     -13.292 -44.310  30.699  1.00  0.00    -0.029 A 
ATOM      9  C   UNL     1     -11.949 -43.972  30.536  1.00  0.00     0.015 A 
ATOM     10  C   UNL     1     -13.997 -43.867  31.814  1.00  0.00     0.055 A 
ATOM     11  C   UNL     1     -11.278 -43.202  31.474  1.00  0.00     0.065 A 
ATOM     12  C   UNL     1     -13.338 -43.092  32.778  1.00  0.00     0.161 A 
ATOM     13  C   UNL     1     -11.971 -42.759  32.606  1.00  0.00     0.161 A 
BRANCH  12  14
ATOM     14  O   UNL     1     -13.932 -42.607  33.916  1.00  0.00    -0.493 OA
ATOM     15  C   UNL     1     -15.010 -41.694  33.768  1.00  0.00     0.278 C 
ENDBRANCH  12  14
BRANCH  13  16
ATOM     16  O   UNL     1     -11.413 -41.994  33.603  1.00  0.00    -0.493 OA
ATOM     17  C   UNL     1     -10.123 -42.355  34.074  1.00  0.00     0.278 C 
ENDBRANCH  13  16
ENDBRANCH   2   5
ENDBRANCH   1   2
BRANCH   1  18
ATOM     18  C   UNL     1     -14.060 -43.641  26.994  1.00  0.00     0.067 C 
BRANCH  18  19
ATOM     19  C   UNL     1     -15.466 -43.235  26.616  1.00  0.00    -0.032 A 
ATOM     20  C   UNL     1     -15.894 -43.255  25.290  1.00  0.00     0.075 A 
ATOM     21  C   UNL     1     -16.355 -42.789  27.596  1.00  0.00     0.075 A 
ATOM     22  C   UNL     1     -17.186 -42.847  24.977  1.00  0.00     0.308 A 
ATOM     23  C   UNL     1     -17.636 -42.389  27.239  1.00  0.00     0.308 A 
ATOM     24  N   UNL     1     -18.034 -42.428  25.947  1.00  0.00    -0.201 N 
BRANCH  24  25
ATOM     25  C   UNL     1     -19.402 -41.985  25.582  1.00  0.00     0.393 C 
BRANCH  25  26
ATOM     26  C   UNL     1     -19.427 -41.353  24.212  1.00  0.00     0.017 A 
ATOM     27  C   UNL     1     -20.516 -40.563  23.801  1.00  0.00     0.013 A 
ATOM     28  C   UNL     1     -18.349 -41.537  23.328  1.00  0.00     0.013 A 
ATOM     29  C   UNL     1     -20.529 -39.986  22.530  1.00  0.00     0.040 A 
ATOM     30  C   UNL     1     -18.369 -40.957  22.058  1.00  0.00     0.040 A 
ATOM     31  C   UNL     1     -19.458 -40.188  21.670  1.00  0.00     0.123 A 
ATOM     32  F   UNL     1     -19.475 -39.636  20.451  1.00  0.00    -0.207 F 
ENDBRANCH  25  26
ENDBRANCH  24  25
ENDBRANCH  18  19
ENDBRANCH   1  18
TORSDOF 9
ENDMDL
