MODEL 1
REMARK VINA RESULT:   -12.484      0.000      0.000
REMARK INTER + INTRA:         -16.723
REMARK INTER:                 -16.133
REMARK INTRA:                  -0.590
REMARK UNBOUND:                -0.590
REMARK SMILES O=C1CC(=NCCN=c2c3c([nH]c4cc(Cl)ccc24)CCCC3)C(=O)c2ccccc21
REMARK SMILES IDX 7 1 8 2 9 3 12 4 11 5 13 6 10 7 20 8 14 9 19 10 23 11 21 12
REMARK SMILES IDX 15 13 18 14 22 15 17 16 16 18 6 19 5 20 4 21 3 22 24 23 2 24
REMARK SMILES IDX 26 25 31 26 27 27 30 28 28 29 29 30 25 31 1 32
REMARK H PARENT 12 17
ROOT
ATOM      1  C   UNL     1     -12.793 -46.058  29.012  1.00  0.00     0.166 C 
ENDROOT
BRANCH   1   2
ATOM      2  N   UNL     1     -12.805 -46.152  30.462  1.00  0.00    -0.282 NA
BRANCH   2   3
ATOM      3  C   UNL     1     -12.313 -45.339  31.320  1.00  0.00     0.072 A 
ATOM      4  N   UNL     1     -10.813 -43.246  32.496  1.00  0.00    -0.358 N 
ATOM      5  C   UNL     1     -12.186 -43.263  32.635  1.00  0.00     0.021 A 
ATOM      6  C   UNL     1     -10.124 -44.399  32.102  1.00  0.00     0.049 A 
ATOM      7  C   UNL     1     -12.975 -44.244  32.136  1.00  0.00    -0.003 A 
ATOM      8  C   UNL     1     -12.755 -42.099  33.427  1.00  0.00     0.054 C 
ATOM      9  C   UNL     1      -8.730 -44.463  32.198  1.00  0.00     0.047 A 
ATOM     10  C   UNL     1     -10.822 -45.461  31.516  1.00  0.00     0.024 A 
ATOM     11  C   UNL     1     -14.448 -44.298  32.431  1.00  0.00     0.039 C 
ATOM     12  C   UNL     1     -14.277 -41.998  33.396  1.00  0.00     0.007 C 
ATOM     13  C   UNL     1      -8.049 -45.590  31.738  1.00  0.00     0.043 A 
ATOM     14  C   UNL     1     -10.130 -46.592  31.057  1.00  0.00     0.014 A 
ATOM     15  C   UNL     1     -14.896 -43.375  33.566  1.00  0.00     0.005 C 
ATOM     16  C   UNL     1      -8.741 -46.658  31.175  1.00  0.00     0.021 A 
ATOM     17  H   UNL     1     -10.311 -42.587  33.083  1.00  0.00     0.166 HD
ATOM     18  Cl  UNL     1      -6.332 -45.650  31.850  1.00  0.00    -0.084 Cl
ENDBRANCH   2   3
ENDBRANCH   1   2
BRANCH   1  19
ATOM     19  C   UNL     1     -13.031 -44.614  28.554  1.00  0.00     0.166 C 
BRANCH  19  20
ATOM     20  N   UNL     1     -14.457 -44.378  28.327  1.00  0.00    -0.283 NA
BRANCH  20  21
ATOM     21  C   UNL     1     -14.862 -43.500  27.476  1.00  0.00     0.091 C 
ATOM     22  C   UNL     1     -13.993 -43.153  26.307  1.00  0.00     0.141 C 
ATOM     23  C   UNL     1     -16.175 -42.756  27.503  1.00  0.00     0.207 C 
ATOM     24  C   UNL     1     -14.731 -43.055  24.999  1.00  0.00     0.169 C 
ATOM     25  C   UNL     1     -16.888 -42.650  26.223  1.00  0.00     0.035 A 
ATOM     26  C   UNL     1     -16.194 -42.800  25.020  1.00  0.00     0.029 A 
ATOM     27  C   UNL     1     -18.257 -42.359  26.221  1.00  0.00     0.013 A 
ATOM     28  C   UNL     1     -16.884 -42.661  23.808  1.00  0.00     0.012 A 
ATOM     29  C   UNL     1     -18.937 -42.230  25.011  1.00  0.00     0.001 A 
ATOM     30  C   UNL     1     -18.252 -42.379  23.806  1.00  0.00     0.001 A 
ATOM     31  O   UNL     1     -16.576 -42.204  28.515  1.00  0.00    -0.287 OA
ATOM     32  O   UNL     1     -14.139 -43.120  23.924  1.00  0.00    -0.294 OA
ENDBRANCH  20  21
ENDBRANCH  19  20
ENDBRANCH   1  19
TORSDOF 5
ENDMDL
MODEL 2
REMARK VINA RESULT:   -12.269      2.033      3.864
REMARK INTER + INTRA:         -16.446
REMARK INTER:                 -15.727
REMARK INTRA:                  -0.718
REMARK UNBOUND:                -0.590
REMARK SMILES O=C1CC(=NCCN=c2c3c([nH]c4cc(Cl)ccc24)CCCC3)C(=O)c2ccccc21
REMARK SMILES IDX 7 1 8 2 9 3 12 4 11 5 13 6 10 7 20 8 14 9 19 10 23 11 21 12
REMARK SMILES IDX 15 13 18 14 22 15 17 16 16 18 6 19 5 20 4 21 3 22 24 23 2 24
REMARK SMILES IDX 26 25 31 26 27 27 30 28 28 29 29 30 25 31 1 32
REMARK H PARENT 12 17
ROOT
ATOM      1  C   UNL     1     -12.629 -45.948  29.364  1.00  0.00     0.166 C 
ENDROOT
BRANCH   1   2
ATOM      2  N   UNL     1     -12.524 -45.664  30.784  1.00  0.00    -0.282 NA
BRANCH   2   3
ATOM      3  C   UNL     1     -11.882 -44.722  31.367  1.00  0.00     0.072 A 
ATOM      4  N   UNL     1     -10.809 -43.028  33.365  1.00  0.00    -0.358 N 
ATOM      5  C   UNL     1      -9.960 -43.667  32.484  1.00  0.00     0.021 A 
ATOM      6  C   UNL     1     -12.175 -42.915  33.080  1.00  0.00     0.049 A 
ATOM      7  C   UNL     1     -10.390 -44.465  31.479  1.00  0.00    -0.003 A 
ATOM      8  C   UNL     1      -8.486 -43.383  32.710  1.00  0.00     0.054 C 
ATOM      9  C   UNL     1     -12.991 -42.064  33.834  1.00  0.00     0.047 A 
ATOM     10  C   UNL     1     -12.751 -43.731  32.100  1.00  0.00     0.024 A 
ATOM     11  C   UNL     1      -9.442 -45.027  30.457  1.00  0.00     0.039 C 
ATOM     12  C   UNL     1      -7.541 -44.252  31.885  1.00  0.00     0.007 C 
ATOM     13  C   UNL     1     -14.363 -42.012  33.586  1.00  0.00     0.043 A 
ATOM     14  C   UNL     1     -14.132 -43.672  31.856  1.00  0.00     0.014 A 
ATOM     15  C   UNL     1      -8.056 -44.378  30.461  1.00  0.00     0.005 C 
ATOM     16  C   UNL     1     -14.937 -42.806  32.597  1.00  0.00     0.021 A 
ATOM     17  H   UNL     1     -10.395 -42.298  33.936  1.00  0.00     0.166 HD
ATOM     18  Cl  UNL     1     -15.357 -40.970  34.528  1.00  0.00    -0.084 Cl
ENDBRANCH   2   3
ENDBRANCH   1   2
BRANCH   1  19
ATOM     19  C   UNL     1     -12.885 -44.664  28.565  1.00  0.00     0.166 C 
BRANCH  19  20
ATOM     20  N   UNL     1     -14.308 -44.536  28.245  1.00  0.00    -0.283 NA
BRANCH  20  21
ATOM     21  C   UNL     1     -14.736 -43.604  27.465  1.00  0.00     0.091 C 
ATOM     22  C   UNL     1     -13.903 -43.185  26.293  1.00  0.00     0.141 C 
ATOM     23  C   UNL     1     -16.044 -42.860  27.584  1.00  0.00     0.207 C 
ATOM     24  C   UNL     1     -14.684 -43.000  25.020  1.00  0.00     0.169 C 
ATOM     25  C   UNL     1     -16.798 -42.670  26.337  1.00  0.00     0.035 A 
ATOM     26  C   UNL     1     -16.144 -42.744  25.105  1.00  0.00     0.029 A 
ATOM     27  C   UNL     1     -18.165 -42.376  26.399  1.00  0.00     0.013 A 
ATOM     28  C   UNL     1     -16.872 -42.525  23.928  1.00  0.00     0.012 A 
ATOM     29  C   UNL     1     -18.884 -42.168  25.223  1.00  0.00     0.001 A 
ATOM     30  C   UNL     1     -18.238 -42.240  23.989  1.00  0.00     0.001 A 
ATOM     31  O   UNL     1     -16.409 -42.374  28.642  1.00  0.00    -0.287 OA
ATOM     32  O   UNL     1     -14.127 -42.998  23.923  1.00  0.00    -0.294 OA
ENDBRANCH  20  21
ENDBRANCH  19  20
ENDBRANCH   1  19
TORSDOF 5
ENDMDL
MODEL 3
REMARK VINA RESULT:   -11.461      4.429      9.399
REMARK INTER + INTRA:         -15.401
REMARK INTER:                 -15.159
REMARK INTRA:                  -0.243
REMARK UNBOUND:                -0.590
REMARK SMILES O=C1CC(=NCCN=c2c3c([nH]c4cc(Cl)ccc24)CCCC3)C(=O)c2ccccc21
REMARK SMILES IDX 7 1 8 2 9 3 12 4 11 5 13 6 10 7 20 8 14 9 19 10 23 11 21 12
REMARK SMILES IDX 15 13 18 14 22 15 17 16 16 18 6 19 5 20 4 21 3 22 24 23 2 24
REMARK SMILES IDX 26 25 31 26 27 27 30 28 28 29 29 30 25 31 1 32
REMARK H PARENT 12 17
ROOT
ATOM      1  C   UNL     1     -14.228 -43.767  25.630  1.00  0.00     0.166 C 
ENDROOT
BRANCH   1   2
ATOM      2  N   UNL     1     -15.176 -43.079  24.770  1.00  0.00    -0.282 NA
BRANCH   2   3
ATOM      3  C   UNL     1     -16.317 -42.583  25.072  1.00  0.00     0.072 A 
ATOM      4  N   UNL     1     -19.102 -42.085  25.148  1.00  0.00    -0.358 N 
ATOM      5  C   UNL     1     -18.435 -42.409  26.312  1.00  0.00     0.021 A 
ATOM      6  C   UNL     1     -18.394 -41.655  24.019  1.00  0.00     0.049 A 
ATOM      7  C   UNL     1     -17.101 -42.629  26.371  1.00  0.00    -0.003 A 
ATOM      8  C   UNL     1     -19.316 -42.476  27.547  1.00  0.00     0.054 C 
ATOM      9  C   UNL     1     -19.066 -41.092  22.929  1.00  0.00     0.047 A 
ATOM     10  C   UNL     1     -17.015 -41.879  23.936  1.00  0.00     0.024 A 
ATOM     11  C   UNL     1     -16.394 -42.840  27.681  1.00  0.00     0.039 C 
ATOM     12  C   UNL     1     -18.628 -43.044  28.784  1.00  0.00     0.007 C 
ATOM     13  C   UNL     1     -18.358 -40.731  21.782  1.00  0.00     0.043 A 
ATOM     14  C   UNL     1     -16.310 -41.513  22.780  1.00  0.00     0.014 A 
ATOM     15  C   UNL     1     -17.226 -42.473  28.911  1.00  0.00     0.005 C 
ATOM     16  C   UNL     1     -16.983 -40.932  21.704  1.00  0.00     0.021 A 
ATOM     17  H   UNL     1     -20.050 -41.738  25.256  1.00  0.00     0.166 HD
ATOM     18  Cl  UNL     1     -19.198 -40.051  20.443  1.00  0.00    -0.084 Cl
ENDBRANCH   2   3
ENDBRANCH   1   2
BRANCH   1  19
ATOM     19  C   UNL     1     -13.088 -42.832  26.050  1.00  0.00     0.166 C 
BRANCH  19  20
ATOM     20  N   UNL     1     -12.746 -43.042  27.457  1.00  0.00    -0.283 NA
BRANCH  20  21
ATOM     21  C   UNL     1     -11.627 -43.580  27.800  1.00  0.00     0.091 C 
ATOM     22  C   UNL     1     -10.362 -42.787  27.678  1.00  0.00     0.141 C 
ATOM     23  C   UNL     1     -11.426 -44.970  28.351  1.00  0.00     0.207 C 
ATOM     24  C   UNL     1      -9.444 -42.908  28.864  1.00  0.00     0.169 C 
ATOM     25  C   UNL     1     -10.519 -45.088  29.501  1.00  0.00     0.035 A 
ATOM     26  C   UNL     1      -9.571 -44.093  29.750  1.00  0.00     0.029 A 
ATOM     27  C   UNL     1     -10.589 -46.223  30.318  1.00  0.00     0.013 A 
ATOM     28  C   UNL     1      -8.691 -44.239  30.831  1.00  0.00     0.012 A 
ATOM     29  C   UNL     1      -9.716 -46.356  31.396  1.00  0.00     0.001 A 
ATOM     30  C   UNL     1      -8.767 -45.367  31.652  1.00  0.00     0.001 A 
ATOM     31  O   UNL     1     -11.924 -45.948  27.817  1.00  0.00    -0.287 OA
ATOM     32  O   UNL     1      -8.558 -42.081  29.075  1.00  0.00    -0.294 OA
ENDBRANCH  20  21
ENDBRANCH  19  20
ENDBRANCH   1  19
TORSDOF 5
ENDMDL
MODEL 4
REMARK VINA RESULT:   -11.439      4.323      9.501
REMARK INTER + INTRA:         -15.372
REMARK INTER:                 -15.186
REMARK INTRA:                  -0.186
REMARK UNBOUND:                -0.590
REMARK SMILES O=C1CC(=NCCN=c2c3c([nH]c4cc(Cl)ccc24)CCCC3)C(=O)c2ccccc21
REMARK SMILES IDX 7 1 8 2 9 3 12 4 11 5 13 6 10 7 20 8 14 9 19 10 23 11 21 12
REMARK SMILES IDX 15 13 18 14 22 15 17 16 16 18 6 19 5 20 4 21 3 22 24 23 2 24
REMARK SMILES IDX 26 25 31 26 27 27 30 28 28 29 29 30 25 31 1 32
REMARK H PARENT 12 17
ROOT
ATOM      1  C   UNL     1     -14.731 -43.988  24.871  1.00  0.00     0.166 C 
ENDROOT
BRANCH   1   2
ATOM      2  N   UNL     1     -15.472 -42.814  24.445  1.00  0.00    -0.282 NA
BRANCH   2   3
ATOM      3  C   UNL     1     -16.616 -42.401  24.846  1.00  0.00     0.072 A 
ATOM      4  N   UNL     1     -19.414 -42.093  25.147  1.00  0.00    -0.358 N 
ATOM      5  C   UNL     1     -18.637 -42.391  26.249  1.00  0.00     0.021 A 
ATOM      6  C   UNL     1     -18.826 -41.598  23.977  1.00  0.00     0.049 A 
ATOM      7  C   UNL     1     -17.291 -42.521  26.200  1.00  0.00    -0.003 A 
ATOM      8  C   UNL     1     -19.412 -42.537  27.547  1.00  0.00     0.054 C 
ATOM      9  C   UNL     1     -19.618 -41.064  22.955  1.00  0.00     0.047 A 
ATOM     10  C   UNL     1     -17.447 -41.727  23.783  1.00  0.00     0.024 A 
ATOM     11  C   UNL     1     -16.470 -42.706  27.446  1.00  0.00     0.039 C 
ATOM     12  C   UNL     1     -18.592 -43.078  28.714  1.00  0.00     0.007 C 
ATOM     13  C   UNL     1     -19.028 -40.637  21.764  1.00  0.00     0.043 A 
ATOM     14  C   UNL     1     -16.860 -41.295  22.583  1.00  0.00     0.014 A 
ATOM     15  C   UNL     1     -17.226 -42.416  28.745  1.00  0.00     0.005 C 
ATOM     16  C   UNL     1     -17.653 -40.744  21.576  1.00  0.00     0.021 A 
ATOM     17  H   UNL     1     -20.371 -41.813  25.337  1.00  0.00     0.166 HD
ATOM     18  Cl  UNL     1     -20.014 -39.994  20.510  1.00  0.00    -0.084 Cl
ENDBRANCH   2   3
ENDBRANCH   1   2
BRANCH   1  19
ATOM     19  C   UNL     1     -13.730 -43.635  25.977  1.00  0.00     0.166 C 
BRANCH  19  20
ATOM     20  N   UNL     1     -13.513 -44.785  26.857  1.00  0.00    -0.283 NA
BRANCH  20  21
ATOM     21  C   UNL     1     -13.065 -44.634  28.056  1.00  0.00     0.091 C 
ATOM     22  C   UNL     1     -13.867 -45.151  29.210  1.00  0.00     0.141 C 
ATOM     23  C   UNL     1     -11.764 -43.985  28.457  1.00  0.00     0.207 C 
ATOM     24  C   UNL     1     -13.053 -45.876  30.248  1.00  0.00     0.169 C 
ATOM     25  C   UNL     1     -10.976 -44.688  29.479  1.00  0.00     0.035 A 
ATOM     26  C   UNL     1     -11.596 -45.601  30.335  1.00  0.00     0.029 A 
ATOM     27  C   UNL     1      -9.612 -44.404  29.611  1.00  0.00     0.013 A 
ATOM     28  C   UNL     1     -10.837 -46.235  31.328  1.00  0.00     0.012 A 
ATOM     29  C   UNL     1      -8.862 -45.046  30.596  1.00  0.00     0.001 A 
ATOM     30  C   UNL     1      -9.474 -45.959  31.454  1.00  0.00     0.001 A 
ATOM     31  O   UNL     1     -11.428 -42.898  28.015  1.00  0.00    -0.287 OA
ATOM     32  O   UNL     1     -13.580 -46.638  31.057  1.00  0.00    -0.294 OA
ENDBRANCH  20  21
ENDBRANCH  19  20
ENDBRANCH   1  19
TORSDOF 5
ENDMDL
MODEL 5
REMARK VINA RESULT:   -11.194      4.078      9.527
REMARK INTER + INTRA:         -15.056
REMARK INTER:                 -14.760
REMARK INTRA:                  -0.296
REMARK UNBOUND:                -0.590
REMARK SMILES O=C1CC(=NCCN=c2c3c([nH]c4cc(Cl)ccc24)CCCC3)C(=O)c2ccccc21
REMARK SMILES IDX 7 1 8 2 9 3 12 4 11 5 13 6 10 7 20 8 14 9 19 10 23 11 21 12
REMARK SMILES IDX 15 13 18 14 22 15 17 16 16 18 6 19 5 20 4 21 3 22 24 23 2 24
REMARK SMILES IDX 26 25 31 26 27 27 30 28 28 29 29 30 25 31 1 32
REMARK H PARENT 12 17
ROOT
ATOM      1  C   UNL     1     -16.855 -42.921  29.631  1.00  0.00     0.166 C 
ENDROOT
BRANCH   1   2
ATOM      2  N   UNL     1     -16.792 -42.096  28.437  1.00  0.00    -0.282 NA
BRANCH   2   3
ATOM      3  C   UNL     1     -16.960 -42.441  27.216  1.00  0.00     0.072 A 
ATOM      4  N   UNL     1     -17.409 -42.331  24.423  1.00  0.00    -0.358 N 
ATOM      5  C   UNL     1     -16.274 -42.949  24.908  1.00  0.00     0.021 A 
ATOM      6  C   UNL     1     -18.496 -42.078  25.268  1.00  0.00     0.049 A 
ATOM      7  C   UNL     1     -15.999 -43.076  26.227  1.00  0.00    -0.003 A 
ATOM      8  C   UNL     1     -15.354 -43.509  23.838  1.00  0.00     0.054 C 
ATOM      9  C   UNL     1     -19.731 -41.685  24.741  1.00  0.00     0.047 A 
ATOM     10  C   UNL     1     -18.323 -42.121  26.656  1.00  0.00     0.024 A 
ATOM     11  C   UNL     1     -14.825 -43.879  26.715  1.00  0.00     0.039 C 
ATOM     12  C   UNL     1     -14.004 -43.994  24.356  1.00  0.00     0.007 C 
ATOM     13  C   UNL     1     -20.787 -41.368  25.596  1.00  0.00     0.043 A 
ATOM     14  C   UNL     1     -19.390 -41.801  27.509  1.00  0.00     0.014 A 
ATOM     15  C   UNL     1     -14.188 -44.772  25.648  1.00  0.00     0.005 C 
ATOM     16  C   UNL     1     -20.626 -41.430  26.977  1.00  0.00     0.021 A 
ATOM     17  H   UNL     1     -17.614 -42.479  23.440  1.00  0.00     0.166 HD
ATOM     18  Cl  UNL     1     -22.297 -40.874  24.934  1.00  0.00    -0.084 Cl
ENDBRANCH   2   3
ENDBRANCH   1   2
BRANCH   1  19
ATOM     19  C   UNL     1     -15.496 -43.568  29.924  1.00  0.00     0.166 C 
BRANCH  19  20
ATOM     20  N   UNL     1     -15.017 -43.175  31.250  1.00  0.00    -0.283 NA
BRANCH  20  21
ATOM     21  C   UNL     1     -14.031 -43.784  31.812  1.00  0.00     0.091 C 
ATOM     22  C   UNL     1     -13.782 -45.226  31.497  1.00  0.00     0.141 C 
ATOM     23  C   UNL     1     -13.040 -43.190  32.783  1.00  0.00     0.207 C 
ATOM     24  C   UNL     1     -12.334 -45.562  31.260  1.00  0.00     0.169 C 
ATOM     25  C   UNL     1     -11.628 -43.529  32.558  1.00  0.00     0.035 A 
ATOM     26  C   UNL     1     -11.290 -44.666  31.821  1.00  0.00     0.029 A 
ATOM     27  C   UNL     1     -10.631 -42.725  33.122  1.00  0.00     0.013 A 
ATOM     28  C   UNL     1      -9.939 -44.993  31.646  1.00  0.00     0.012 A 
ATOM     29  C   UNL     1      -9.289 -43.054  32.936  1.00  0.00     0.001 A 
ATOM     30  C   UNL     1      -8.943 -44.187  32.201  1.00  0.00     0.001 A 
ATOM     31  O   UNL     1     -13.403 -42.534  33.746  1.00  0.00    -0.287 OA
ATOM     32  O   UNL     1     -12.003 -46.588  30.669  1.00  0.00    -0.294 OA
ENDBRANCH  20  21
ENDBRANCH  19  20
ENDBRANCH   1  19
TORSDOF 5
ENDMDL
MODEL 6
REMARK VINA RESULT:   -11.137      2.479      4.700
REMARK INTER + INTRA:         -14.982
REMARK INTER:                 -14.529
REMARK INTRA:                  -0.453
REMARK UNBOUND:                -0.590
REMARK SMILES O=C1CC(=NCCN=c2c3c([nH]c4cc(Cl)ccc24)CCCC3)C(=O)c2ccccc21
REMARK SMILES IDX 7 1 8 2 9 3 12 4 11 5 13 6 10 7 20 8 14 9 19 10 23 11 21 12
REMARK SMILES IDX 15 13 18 14 22 15 17 16 16 18 6 19 5 20 4 21 3 22 24 23 2 24
REMARK SMILES IDX 26 25 31 26 27 27 30 28 28 29 29 30 25 31 1 32
REMARK H PARENT 12 17
ROOT
ATOM      1  C   UNL     1     -10.892 -46.321  30.735  1.00  0.00     0.166 C 
ENDROOT
BRANCH   1   2
ATOM      2  N   UNL     1     -11.651 -45.309  31.449  1.00  0.00    -0.282 NA
BRANCH   2   3
ATOM      3  C   UNL     1     -11.219 -44.283  32.081  1.00  0.00     0.072 A 
ATOM      4  N   UNL     1     -10.662 -42.430  34.148  1.00  0.00    -0.358 N 
ATOM      5  C   UNL     1      -9.622 -42.976  33.422  1.00  0.00     0.021 A 
ATOM      6  C   UNL     1     -11.975 -42.492  33.665  1.00  0.00     0.049 A 
ATOM      7  C   UNL     1      -9.801 -43.841  32.397  1.00  0.00    -0.003 A 
ATOM      8  C   UNL     1      -8.242 -42.507  33.846  1.00  0.00     0.054 C 
ATOM      9  C   UNL     1     -12.988 -41.735  34.261  1.00  0.00     0.047 A 
ATOM     10  C   UNL     1     -12.299 -43.393  32.644  1.00  0.00     0.024 A 
ATOM     11  C   UNL     1      -8.652 -44.302  31.543  1.00  0.00     0.039 C 
ATOM     12  C   UNL     1      -7.089 -43.269  33.199  1.00  0.00     0.007 C 
ATOM     13  C   UNL     1     -14.305 -41.857  33.817  1.00  0.00     0.043 A 
ATOM     14  C   UNL     1     -13.625 -43.510  32.202  1.00  0.00     0.014 A 
ATOM     15  C   UNL     1      -7.370 -43.486  31.722  1.00  0.00     0.005 C 
ATOM     16  C   UNL     1     -14.628 -42.736  32.787  1.00  0.00     0.021 A 
ATOM     17  H   UNL     1     -10.427 -41.642  34.744  1.00  0.00     0.166 HD
ATOM     18  Cl  UNL     1     -15.545 -40.928  34.566  1.00  0.00    -0.084 Cl
ENDBRANCH   2   3
ENDBRANCH   1   2
BRANCH   1  19
ATOM     19  C   UNL     1     -11.371 -46.446  29.284  1.00  0.00     0.166 C 
BRANCH  19  20
ATOM     20  N   UNL     1     -11.940 -45.178  28.823  1.00  0.00    -0.283 NA
BRANCH  20  21
ATOM     21  C   UNL     1     -13.120 -45.123  28.309  1.00  0.00     0.091 C 
ATOM     22  C   UNL     1     -14.287 -44.780  29.183  1.00  0.00     0.141 C 
ATOM     23  C   UNL     1     -13.486 -45.354  26.864  1.00  0.00     0.207 C 
ATOM     24  C   UNL     1     -15.244 -43.793  28.572  1.00  0.00     0.169 C 
ATOM     25  C   UNL     1     -14.431 -44.397  26.272  1.00  0.00     0.035 A 
ATOM     26  C   UNL     1     -15.271 -43.643  27.094  1.00  0.00     0.029 A 
ATOM     27  C   UNL     1     -14.507 -44.278  24.879  1.00  0.00     0.013 A 
ATOM     28  C   UNL     1     -16.190 -42.760  26.511  1.00  0.00     0.012 A 
ATOM     29  C   UNL     1     -15.419 -43.392  24.308  1.00  0.00     0.001 A 
ATOM     30  C   UNL     1     -16.260 -42.636  25.122  1.00  0.00     0.001 A 
ATOM     31  O   UNL     1     -13.083 -46.329  26.250  1.00  0.00    -0.287 OA
ATOM     32  O   UNL     1     -16.040 -43.160  29.264  1.00  0.00    -0.294 OA
ENDBRANCH  20  21
ENDBRANCH  19  20
ENDBRANCH   1  19
TORSDOF 5
ENDMDL
MODEL 7
REMARK VINA RESULT:   -10.533      5.833      9.012
REMARK INTER + INTRA:         -14.202
REMARK INTER:                 -12.489
REMARK INTRA:                  -1.713
REMARK UNBOUND:                -0.590
REMARK SMILES O=C1CC(=NCCN=c2c3c([nH]c4cc(Cl)ccc24)CCCC3)C(=O)c2ccccc21
REMARK SMILES IDX 7 1 8 2 9 3 12 4 11 5 13 6 10 7 20 8 14 9 19 10 23 11 21 12
REMARK SMILES IDX 15 13 18 14 22 15 17 16 16 18 6 19 5 20 4 21 3 22 24 23 2 24
REMARK SMILES IDX 26 25 31 26 27 27 30 28 28 29 29 30 25 31 1 32
REMARK H PARENT 12 17
ROOT
ATOM      1  C   UNL     1     -16.974 -41.002  22.039  1.00  0.00     0.166 C 
ENDROOT
BRANCH   1   2
ATOM      2  N   UNL     1     -17.379 -42.218  22.723  1.00  0.00    -0.282 NA
BRANCH   2   3
ATOM      3  C   UNL     1     -17.666 -42.382  23.960  1.00  0.00     0.072 A 
ATOM      4  N   UNL     1     -17.653 -42.152  26.782  1.00  0.00    -0.358 N 
ATOM      5  C   UNL     1     -18.818 -41.909  26.082  1.00  0.00     0.021 A 
ATOM      6  C   UNL     1     -16.594 -42.841  26.180  1.00  0.00     0.049 A 
ATOM      7  C   UNL     1     -18.921 -42.030  24.738  1.00  0.00    -0.003 A 
ATOM      8  C   UNL     1     -20.004 -41.517  26.947  1.00  0.00     0.054 C 
ATOM      9  C   UNL     1     -15.521 -43.306  26.947  1.00  0.00     0.047 A 
ATOM     10  C   UNL     1     -16.556 -42.981  24.788  1.00  0.00     0.024 A 
ATOM     11  C   UNL     1     -20.242 -41.893  24.032  1.00  0.00     0.039 C 
ATOM     12  C   UNL     1     -21.224 -41.038  26.166  1.00  0.00     0.007 C 
ATOM     13  C   UNL     1     -14.437 -43.930  26.327  1.00  0.00     0.043 A 
ATOM     14  C   UNL     1     -15.464 -43.610  24.172  1.00  0.00     0.014 A 
ATOM     15  C   UNL     1     -21.458 -41.932  24.961  1.00  0.00     0.005 C 
ATOM     16  C   UNL     1     -14.406 -44.091  24.944  1.00  0.00     0.021 A 
ATOM     17  H   UNL     1     -17.745 -42.237  27.789  1.00  0.00     0.166 HD
ATOM     18  Cl  UNL     1     -13.118 -44.487  27.280  1.00  0.00    -0.084 Cl
ENDBRANCH   2   3
ENDBRANCH   1   2
BRANCH   1  19
ATOM     19  C   UNL     1     -18.179 -40.088  21.786  1.00  0.00     0.166 C 
BRANCH  19  20
ATOM     20  N   UNL     1     -18.862 -40.473  20.550  1.00  0.00    -0.283 NA
BRANCH  20  21
ATOM     21  C   UNL     1     -20.148 -40.452  20.462  1.00  0.00     0.091 C 
ATOM     22  C   UNL     1     -20.870 -41.660  19.950  1.00  0.00     0.141 C 
ATOM     23  C   UNL     1     -21.058 -39.312  20.846  1.00  0.00     0.207 C 
ATOM     24  C   UNL     1     -22.097 -42.024  20.742  1.00  0.00     0.169 C 
ATOM     25  C   UNL     1     -22.262 -39.671  21.609  1.00  0.00     0.035 A 
ATOM     26  C   UNL     1     -22.756 -40.976  21.563  1.00  0.00     0.029 A 
ATOM     27  C   UNL     1     -22.927 -38.685  22.347  1.00  0.00     0.013 A 
ATOM     28  C   UNL     1     -23.925 -41.293  22.268  1.00  0.00     0.012 A 
ATOM     29  C   UNL     1     -24.085 -39.010  23.052  1.00  0.00     0.001 A 
ATOM     30  C   UNL     1     -24.585 -40.312  23.012  1.00  0.00     0.001 A 
ATOM     31  O   UNL     1     -20.846 -38.170  20.472  1.00  0.00    -0.287 OA
ATOM     32  O   UNL     1     -22.592 -43.147  20.674  1.00  0.00    -0.294 OA
ENDBRANCH  20  21
ENDBRANCH  19  20
ENDBRANCH   1  19
TORSDOF 5
ENDMDL
MODEL 8
REMARK VINA RESULT:   -10.253      5.784      9.409
REMARK INTER + INTRA:         -13.840
REMARK INTER:                 -13.011
REMARK INTRA:                  -0.828
REMARK UNBOUND:                -0.590
REMARK SMILES O=C1CC(=NCCN=c2c3c([nH]c4cc(Cl)ccc24)CCCC3)C(=O)c2ccccc21
REMARK SMILES IDX 7 1 8 2 9 3 12 4 11 5 13 6 10 7 20 8 14 9 19 10 23 11 21 12
REMARK SMILES IDX 15 13 18 14 22 15 17 16 16 18 6 19 5 20 4 21 3 22 24 23 2 24
REMARK SMILES IDX 26 25 31 26 27 27 30 28 28 29 29 30 25 31 1 32
REMARK H PARENT 12 17
ROOT
ATOM      1  C   UNL     1     -17.099 -40.933  22.137  1.00  0.00     0.166 C 
ENDROOT
BRANCH   1   2
ATOM      2  N   UNL     1     -17.509 -42.159  22.800  1.00  0.00    -0.282 NA
BRANCH   2   3
ATOM      3  C   UNL     1     -17.746 -42.355  24.042  1.00  0.00     0.072 A 
ATOM      4  N   UNL     1     -17.611 -42.208  26.866  1.00  0.00    -0.358 N 
ATOM      5  C   UNL     1     -18.801 -41.928  26.224  1.00  0.00     0.021 A 
ATOM      6  C   UNL     1     -16.588 -42.893  26.200  1.00  0.00     0.049 A 
ATOM      7  C   UNL     1     -18.962 -42.008  24.883  1.00  0.00    -0.003 A 
ATOM      8  C   UNL     1     -19.943 -41.546  27.150  1.00  0.00     0.054 C 
ATOM      9  C   UNL     1     -15.490 -43.395  26.906  1.00  0.00     0.047 A 
ATOM     10  C   UNL     1     -16.612 -42.993  24.804  1.00  0.00     0.024 A 
ATOM     11  C   UNL     1     -20.309 -41.833  24.238  1.00  0.00     0.039 C 
ATOM     12  C   UNL     1     -21.188 -41.028  26.436  1.00  0.00     0.007 C 
ATOM     13  C   UNL     1     -14.444 -44.015  26.223  1.00  0.00     0.043 A 
ATOM     14  C   UNL     1     -15.556 -43.618  24.124  1.00  0.00     0.014 A 
ATOM     15  C   UNL     1     -21.485 -41.883  25.216  1.00  0.00     0.005 C 
ATOM     16  C   UNL     1     -14.473 -44.136  24.837  1.00  0.00     0.021 A 
ATOM     17  H   UNL     1     -17.661 -42.321  27.874  1.00  0.00     0.166 HD
ATOM     18  Cl  UNL     1     -13.093 -44.618  27.103  1.00  0.00    -0.084 Cl
ENDBRANCH   2   3
ENDBRANCH   1   2
BRANCH   1  19
ATOM     19  C   UNL     1     -18.314 -40.065  21.787  1.00  0.00     0.166 C 
BRANCH  19  20
ATOM     20  N   UNL     1     -19.314 -40.852  21.065  1.00  0.00    -0.283 NA
BRANCH  20  21
ATOM     21  C   UNL     1     -20.473 -40.365  20.784  1.00  0.00     0.091 C 
ATOM     22  C   UNL     1     -20.643 -38.880  20.692  1.00  0.00     0.141 C 
ATOM     23  C   UNL     1     -21.736 -41.143  20.507  1.00  0.00     0.207 C 
ATOM     24  C   UNL     1     -21.461 -38.427  19.512  1.00  0.00     0.169 C 
ATOM     25  C   UNL     1     -22.539 -40.692  19.362  1.00  0.00     0.035 A 
ATOM     26  C   UNL     1     -22.401 -39.388  18.881  1.00  0.00     0.029 A 
ATOM     27  C   UNL     1     -23.468 -41.567  18.787  1.00  0.00     0.013 A 
ATOM     28  C   UNL     1     -23.200 -38.963  17.811  1.00  0.00     0.012 A 
ATOM     29  C   UNL     1     -24.253 -41.139  17.717  1.00  0.00     0.001 A 
ATOM     30  C   UNL     1     -24.121 -39.839  17.231  1.00  0.00     0.001 A 
ATOM     31  O   UNL     1     -22.107 -42.043  21.243  1.00  0.00    -0.287 OA
ATOM     32  O   UNL     1     -21.408 -37.268  19.104  1.00  0.00    -0.294 OA
ENDBRANCH  20  21
ENDBRANCH  19  20
ENDBRANCH   1  19
TORSDOF 5
ENDMDL
MODEL 9
REMARK VINA RESULT:    -9.838      7.156     11.137
REMARK INTER + INTRA:         -13.304
REMARK INTER:                 -11.706
REMARK INTRA:                  -1.598
REMARK UNBOUND:                -0.590
REMARK SMILES O=C1CC(=NCCN=c2c3c([nH]c4cc(Cl)ccc24)CCCC3)C(=O)c2ccccc21
REMARK SMILES IDX 7 1 8 2 9 3 12 4 11 5 13 6 10 7 20 8 14 9 19 10 23 11 21 12
REMARK SMILES IDX 15 13 18 14 22 15 17 16 16 18 6 19 5 20 4 21 3 22 24 23 2 24
REMARK SMILES IDX 26 25 31 26 27 27 30 28 28 29 29 30 25 31 1 32
REMARK H PARENT 12 17
ROOT
ATOM      1  C   UNL     1     -22.758 -42.468  22.427  1.00  0.00     0.166 C 
ENDROOT
BRANCH   1   2
ATOM      2  N   UNL     1     -23.531 -42.266  23.640  1.00  0.00    -0.282 NA
BRANCH   2   3
ATOM      3  C   UNL     1     -23.124 -42.255  24.854  1.00  0.00     0.072 A 
ATOM      4  N   UNL     1     -23.090 -42.137  27.683  1.00  0.00    -0.358 N 
ATOM      5  C   UNL     1     -22.538 -43.225  27.038  1.00  0.00     0.021 A 
ATOM      6  C   UNL     1     -23.341 -40.949  26.984  1.00  0.00     0.049 A 
ATOM      7  C   UNL     1     -22.480 -43.345  25.691  1.00  0.00    -0.003 A 
ATOM      8  C   UNL     1     -21.963 -44.282  27.965  1.00  0.00     0.054 C 
ATOM      9  C   UNL     1     -23.664 -39.775  27.671  1.00  0.00     0.047 A 
ATOM     10  C   UNL     1     -23.368 -40.958  25.585  1.00  0.00     0.024 A 
ATOM     11  C   UNL     1     -21.745 -44.478  25.031  1.00  0.00     0.039 C 
ATOM     12  C   UNL     1     -21.552 -45.576  27.269  1.00  0.00     0.007 C 
ATOM     13  C   UNL     1     -23.980 -38.615  26.962  1.00  0.00     0.043 A 
ATOM     14  C   UNL     1     -23.686 -39.788  24.879  1.00  0.00     0.014 A 
ATOM     15  C   UNL     1     -20.828 -45.265  25.971  1.00  0.00     0.005 C 
ATOM     16  C   UNL     1     -23.987 -38.613  25.570  1.00  0.00     0.021 A 
ATOM     17  H   UNL     1     -22.890 -42.054  28.675  1.00  0.00     0.166 HD
ATOM     18  Cl  UNL     1     -24.387 -37.180  27.819  1.00  0.00    -0.084 Cl
ENDBRANCH   2   3
ENDBRANCH   1   2
BRANCH   1  19
ATOM     19  C   UNL     1     -21.494 -41.600  22.430  1.00  0.00     0.166 C 
BRANCH  19  20
ATOM     20  N   UNL     1     -20.315 -42.414  22.727  1.00  0.00    -0.283 NA
BRANCH  20  21
ATOM     21  C   UNL     1     -19.394 -41.992  23.523  1.00  0.00     0.091 C 
ATOM     22  C   UNL     1     -19.777 -41.407  24.847  1.00  0.00     0.141 C 
ATOM     23  C   UNL     1     -17.905 -42.030  23.279  1.00  0.00     0.207 C 
ATOM     24  C   UNL     1     -18.925 -41.877  25.996  1.00  0.00     0.169 C 
ATOM     25  C   UNL     1     -17.074 -42.478  24.405  1.00  0.00     0.035 A 
ATOM     26  C   UNL     1     -17.568 -42.409  25.710  1.00  0.00     0.029 A 
ATOM     27  C   UNL     1     -15.774 -42.933  24.161  1.00  0.00     0.013 A 
ATOM     28  C   UNL     1     -16.749 -42.807  26.775  1.00  0.00     0.012 A 
ATOM     29  C   UNL     1     -14.968 -43.335  25.226  1.00  0.00     0.001 A 
ATOM     30  C   UNL     1     -15.454 -43.270  26.531  1.00  0.00     0.001 A 
ATOM     31  O   UNL     1     -17.418 -41.634  22.233  1.00  0.00    -0.287 OA
ATOM     32  O   UNL     1     -19.306 -41.772  27.160  1.00  0.00    -0.294 OA
ENDBRANCH  20  21
ENDBRANCH  19  20
ENDBRANCH   1  19
TORSDOF 5
ENDMDL
