MODEL 1
REMARK VINA RESULT:    -7.635      0.000      0.000
REMARK INTER + INTRA:         -10.390
REMARK INTER:                  -9.867
REMARK INTRA:                  -0.523
REMARK UNBOUND:                -0.523
REMARK SMILES CCC[C@H](C)n1cc(C(=O)C(F)(F)F)cn1
REMARK SMILES IDX 6 1 7 2 8 3 15 4 16 5 4 6 5 7 3 8 2 9 1 10 9 11 10 12 11 13
REMARK SMILES IDX 12 14 13 15 14 16
REMARK H PARENT
ROOT
ATOM      1  N   UNL     1     -11.602 -44.136  28.358  1.00  0.00    -0.269 N 
ATOM      2  C   UNL     1     -10.678 -44.594  29.252  1.00  0.00     0.121 A 
ATOM      3  C   UNL     1      -9.976 -43.490  29.702  1.00  0.00     0.065 A 
ATOM      4  C   UNL     1     -10.565 -42.412  29.004  1.00  0.00     0.147 A 
ATOM      5  N   UNL     1     -11.547 -42.800  28.190  1.00  0.00    -0.180 NA
ENDROOT
BRANCH   1   6
ATOM      6  C   UNL     1     -12.584 -44.917  27.611  1.00  0.00     0.104 C 
ATOM      7  C   UNL     1     -12.246 -46.408  27.670  1.00  0.00     0.033 C 
BRANCH   6   8
ATOM      8  C   UNL     1     -14.029 -44.662  28.082  1.00  0.00     0.027 C 
BRANCH   8   9
ATOM      9  C   UNL     1     -14.854 -43.866  27.066  1.00  0.00    -0.001 C 
ATOM     10  C   UNL     1     -14.329 -44.060  25.652  1.00  0.00     0.004 C 
ENDBRANCH   8   9
ENDBRANCH   6   8
ENDBRANCH   1   6
BRANCH   3  11
ATOM     11  C   UNL     1      -8.888 -43.500  30.674  1.00  0.00     0.269 C 
ATOM     12  O   UNL     1      -7.780 -43.050  30.369  1.00  0.00    -0.284 OA
BRANCH  11  13
ATOM     13  C   UNL     1      -9.189 -44.085  32.052  1.00  0.00     0.454 C 
ATOM     14  F   UNL     1      -9.013 -45.437  32.088  1.00  0.00    -0.163 F 
ATOM     15  F   UNL     1      -8.372 -43.576  33.018  1.00  0.00    -0.163 F 
ATOM     16  F   UNL     1     -10.464 -43.856  32.474  1.00  0.00    -0.163 F 
ENDBRANCH  11  13
ENDBRANCH   3  11
TORSDOF 5
ENDMDL
MODEL 2
REMARK VINA RESULT:    -7.364      4.006      6.155
REMARK INTER + INTRA:         -10.039
REMARK INTER:                  -9.661
REMARK INTRA:                  -0.378
REMARK UNBOUND:                -0.523
REMARK SMILES CCC[C@H](C)n1cc(C(=O)C(F)(F)F)cn1
REMARK SMILES IDX 6 1 7 2 8 3 15 4 16 5 4 6 5 7 3 8 2 9 1 10 9 11 10 12 11 13
REMARK SMILES IDX 12 14 13 15 14 16
REMARK H PARENT
ROOT
ATOM      1  N   UNL     1     -11.272 -46.146  30.523  1.00  0.00    -0.269 N 
ATOM      2  C   UNL     1     -11.216 -46.087  29.160  1.00  0.00     0.121 A 
ATOM      3  C   UNL     1     -12.522 -46.127  28.707  1.00  0.00     0.065 A 
ATOM      4  C   UNL     1     -13.287 -46.214  29.891  1.00  0.00     0.147 A 
ATOM      5  N   UNL     1     -12.532 -46.227  30.991  1.00  0.00    -0.180 NA
ENDROOT
BRANCH   1   6
ATOM      6  C   UNL     1     -10.153 -46.132  31.463  1.00  0.00     0.104 C 
ATOM      7  C   UNL     1      -8.955 -46.891  30.887  1.00  0.00     0.033 C 
BRANCH   6   8
ATOM      8  C   UNL     1      -9.749 -44.706  31.885  1.00  0.00     0.027 C 
BRANCH   8   9
ATOM      9  C   UNL     1      -8.239 -44.551  32.086  1.00  0.00    -0.001 C 
ATOM     10  C   UNL     1      -7.659 -43.505  31.147  1.00  0.00     0.004 C 
ENDBRANCH   8   9
ENDBRANCH   6   8
ENDBRANCH   1   6
BRANCH   3  11
ATOM     11  C   UNL     1     -12.949 -46.087  27.312  1.00  0.00     0.269 C 
ATOM     12  O   UNL     1     -12.697 -47.031  26.558  1.00  0.00    -0.284 OA
BRANCH  11  13
ATOM     13  C   UNL     1     -13.704 -44.843  26.850  1.00  0.00     0.454 C 
ATOM     14  F   UNL     1     -12.909 -43.735  26.825  1.00  0.00    -0.163 F 
ATOM     15  F   UNL     1     -14.196 -44.978  25.584  1.00  0.00    -0.163 F 
ATOM     16  F   UNL     1     -14.769 -44.529  27.638  1.00  0.00    -0.163 F 
ENDBRANCH  11  13
ENDBRANCH   3  11
TORSDOF 5
ENDMDL
MODEL 3
REMARK VINA RESULT:    -7.314      3.433      5.742
REMARK INTER + INTRA:          -9.975
REMARK INTER:                  -9.507
REMARK INTRA:                  -0.468
REMARK UNBOUND:                -0.523
REMARK SMILES CCC[C@H](C)n1cc(C(=O)C(F)(F)F)cn1
REMARK SMILES IDX 6 1 7 2 8 3 15 4 16 5 4 6 5 7 3 8 2 9 1 10 9 11 10 12 11 13
REMARK SMILES IDX 12 14 13 15 14 16
REMARK H PARENT
ROOT
ATOM      1  N   UNL     1      -9.429 -44.363  30.544  1.00  0.00    -0.269 N 
ATOM      2  C   UNL     1     -10.651 -44.829  30.147  1.00  0.00     0.121 A 
ATOM      3  C   UNL     1     -10.894 -44.292  28.896  1.00  0.00     0.065 A 
ATOM      4  C   UNL     1      -9.746 -43.511  28.636  1.00  0.00     0.147 A 
ATOM      5  N   UNL     1      -8.860 -43.551  29.633  1.00  0.00    -0.180 NA
ENDROOT
BRANCH   1   6
ATOM      6  C   UNL     1      -8.730 -44.648  31.794  1.00  0.00     0.104 C 
ATOM      7  C   UNL     1      -7.380 -45.314  31.517  1.00  0.00     0.033 C 
BRANCH   6   8
ATOM      8  C   UNL     1      -8.555 -43.397  32.675  1.00  0.00     0.027 C 
BRANCH   8   9
ATOM      9  C   UNL     1      -9.865 -42.940  33.326  1.00  0.00    -0.001 C 
ATOM     10  C   UNL     1      -9.604 -42.109  34.572  1.00  0.00     0.004 C 
ENDBRANCH   8   9
ENDBRANCH   6   8
ENDBRANCH   1   6
BRANCH   3  11
ATOM     11  C   UNL     1     -12.083 -44.517  28.081  1.00  0.00     0.269 C 
ATOM     12  O   UNL     1     -12.747 -43.559  27.675  1.00  0.00    -0.284 OA
BRANCH  11  13
ATOM     13  C   UNL     1     -12.449 -45.965  27.766  1.00  0.00     0.454 C 
ATOM     14  F   UNL     1     -13.237 -46.069  26.658  1.00  0.00    -0.163 F 
ATOM     15  F   UNL     1     -11.350 -46.734  27.516  1.00  0.00    -0.163 F 
ATOM     16  F   UNL     1     -13.125 -46.586  28.773  1.00  0.00    -0.163 F 
ENDBRANCH  11  13
ENDBRANCH   3  11
TORSDOF 5
ENDMDL
MODEL 4
REMARK VINA RESULT:    -7.215      3.134      3.921
REMARK INTER + INTRA:          -9.846
REMARK INTER:                  -9.680
REMARK INTRA:                  -0.166
REMARK UNBOUND:                -0.523
REMARK SMILES CCC[C@H](C)n1cc(C(=O)C(F)(F)F)cn1
REMARK SMILES IDX 6 1 7 2 8 3 15 4 16 5 4 6 5 7 3 8 2 9 1 10 9 11 10 12 11 13
REMARK SMILES IDX 12 14 13 15 14 16
REMARK H PARENT
ROOT
ATOM      1  N   UNL     1     -14.253 -44.430  28.007  1.00  0.00    -0.269 N 
ATOM      2  C   UNL     1     -13.061 -45.096  28.003  1.00  0.00     0.121 A 
ATOM      3  C   UNL     1     -12.766 -45.391  29.322  1.00  0.00     0.065 A 
ATOM      4  C   UNL     1     -13.857 -44.850  30.039  1.00  0.00     0.147 A 
ATOM      5  N   UNL     1     -14.756 -44.267  29.245  1.00  0.00    -0.180 NA
ENDROOT
BRANCH   1   6
ATOM      6  C   UNL     1     -14.987 -43.908  26.856  1.00  0.00     0.104 C 
ATOM      7  C   UNL     1     -15.941 -42.792  27.285  1.00  0.00     0.033 C 
BRANCH   6   8
ATOM      8  C   UNL     1     -14.055 -43.431  25.725  1.00  0.00     0.027 C 
BRANCH   8   9
ATOM      9  C   UNL     1     -14.749 -43.394  24.360  1.00  0.00    -0.001 C 
ATOM     10  C   UNL     1     -15.073 -41.968  23.941  1.00  0.00     0.004 C 
ENDBRANCH   8   9
ENDBRANCH   6   8
ENDBRANCH   1   6
BRANCH   3  11
ATOM     11  C   UNL     1     -11.585 -46.101  29.800  1.00  0.00     0.269 C 
ATOM     12  O   UNL     1     -11.541 -46.522  30.960  1.00  0.00    -0.284 OA
BRANCH  11  13
ATOM     13  C   UNL     1     -10.437 -46.290  28.812  1.00  0.00     0.454 C 
ATOM     14  F   UNL     1      -9.925 -45.100  28.382  1.00  0.00    -0.163 F 
ATOM     15  F   UNL     1      -9.389 -46.970  29.361  1.00  0.00    -0.163 F 
ATOM     16  F   UNL     1     -10.790 -46.978  27.691  1.00  0.00    -0.163 F 
ENDBRANCH  11  13
ENDBRANCH   3  11
TORSDOF 5
ENDMDL
MODEL 5
REMARK VINA RESULT:    -7.186      2.225      3.243
REMARK INTER + INTRA:          -9.810
REMARK INTER:                  -9.383
REMARK INTRA:                  -0.427
REMARK UNBOUND:                -0.523
REMARK SMILES CCC[C@H](C)n1cc(C(=O)C(F)(F)F)cn1
REMARK SMILES IDX 6 1 7 2 8 3 15 4 16 5 4 6 5 7 3 8 2 9 1 10 9 11 10 12 11 13
REMARK SMILES IDX 12 14 13 15 14 16
REMARK H PARENT
ROOT
ATOM      1  N   UNL     1     -13.337 -44.161  27.244  1.00  0.00    -0.269 N 
ATOM      2  C   UNL     1     -12.929 -45.311  27.857  1.00  0.00     0.121 A 
ATOM      3  C   UNL     1     -11.744 -45.016  28.506  1.00  0.00     0.065 A 
ATOM      4  C   UNL     1     -11.529 -43.651  28.212  1.00  0.00     0.147 A 
ATOM      5  N   UNL     1     -12.491 -43.133  27.447  1.00  0.00    -0.180 NA
ENDROOT
BRANCH   1   6
ATOM      6  C   UNL     1     -14.536 -43.959  26.434  1.00  0.00     0.104 C 
ATOM      7  C   UNL     1     -15.579 -43.149  27.206  1.00  0.00     0.033 C 
BRANCH   6   8
ATOM      8  C   UNL     1     -14.230 -43.306  25.073  1.00  0.00     0.027 C 
BRANCH   8   9
ATOM      9  C   UNL     1     -15.080 -43.878  23.934  1.00  0.00    -0.001 C 
ATOM     10  C   UNL     1     -16.160 -42.898  23.503  1.00  0.00     0.004 C 
ENDBRANCH   8   9
ENDBRANCH   6   8
ENDBRANCH   1   6
BRANCH   3  11
ATOM     11  C   UNL     1     -10.944 -45.945  29.298  1.00  0.00     0.269 C 
ATOM     12  O   UNL     1     -10.075 -46.633  28.756  1.00  0.00    -0.284 OA
BRANCH  11  13
ATOM     13  C   UNL     1     -11.236 -46.016  30.795  1.00  0.00     0.454 C 
ATOM     14  F   UNL     1     -11.105 -44.802  31.405  1.00  0.00    -0.163 F 
ATOM     15  F   UNL     1     -12.510 -46.428  31.054  1.00  0.00    -0.163 F 
ATOM     16  F   UNL     1     -10.417 -46.870  31.469  1.00  0.00    -0.163 F 
ENDBRANCH  11  13
ENDBRANCH   3  11
TORSDOF 5
ENDMDL
MODEL 6
REMARK VINA RESULT:    -7.135      4.843      6.568
REMARK INTER + INTRA:          -9.744
REMARK INTER:                  -9.354
REMARK INTRA:                  -0.390
REMARK UNBOUND:                -0.523
REMARK SMILES CCC[C@H](C)n1cc(C(=O)C(F)(F)F)cn1
REMARK SMILES IDX 6 1 7 2 8 3 15 4 16 5 4 6 5 7 3 8 2 9 1 10 9 11 10 12 11 13
REMARK SMILES IDX 12 14 13 15 14 16
REMARK H PARENT
ROOT
ATOM      1  N   UNL     1     -12.375 -45.071  28.216  1.00  0.00    -0.269 N 
ATOM      2  C   UNL     1     -13.586 -45.036  27.584  1.00  0.00     0.121 A 
ATOM      3  C   UNL     1     -13.685 -43.794  26.984  1.00  0.00     0.065 A 
ATOM      4  C   UNL     1     -12.471 -43.158  27.324  1.00  0.00     0.147 A 
ATOM      5  N   UNL     1     -11.678 -43.928  28.071  1.00  0.00    -0.180 NA
ENDROOT
BRANCH   1   6
ATOM      6  C   UNL     1     -11.805 -46.171  28.990  1.00  0.00     0.104 C 
ATOM      7  C   UNL     1     -10.418 -46.542  28.460  1.00  0.00     0.033 C 
BRANCH   6   8
ATOM      8  C   UNL     1     -11.753 -45.869  30.500  1.00  0.00     0.027 C 
BRANCH   8   9
ATOM      9  C   UNL     1     -10.421 -46.271  31.142  1.00  0.00    -0.001 C 
ATOM     10  C   UNL     1      -9.755 -45.086  31.823  1.00  0.00     0.004 C 
ENDBRANCH   8   9
ENDBRANCH   6   8
ENDBRANCH   1   6
BRANCH   3  11
ATOM     11  C   UNL     1     -14.812 -43.309  26.194  1.00  0.00     0.269 C 
ATOM     12  O   UNL     1     -15.851 -42.945  26.752  1.00  0.00    -0.284 OA
BRANCH  11  13
ATOM     13  C   UNL     1     -14.639 -43.280  24.677  1.00  0.00     0.454 C 
ATOM     14  F   UNL     1     -15.573 -42.495  24.066  1.00  0.00    -0.163 F 
ATOM     15  F   UNL     1     -13.427 -42.774  24.306  1.00  0.00    -0.163 F 
ATOM     16  F   UNL     1     -14.733 -44.507  24.094  1.00  0.00    -0.163 F 
ENDBRANCH  11  13
ENDBRANCH   3  11
TORSDOF 5
ENDMDL
MODEL 7
REMARK VINA RESULT:    -6.967      3.282      5.509
REMARK INTER + INTRA:          -9.526
REMARK INTER:                  -9.297
REMARK INTRA:                  -0.229
REMARK UNBOUND:                -0.523
REMARK SMILES CCC[C@H](C)n1cc(C(=O)C(F)(F)F)cn1
REMARK SMILES IDX 6 1 7 2 8 3 15 4 16 5 4 6 5 7 3 8 2 9 1 10 9 11 10 12 11 13
REMARK SMILES IDX 12 14 13 15 14 16
REMARK H PARENT
ROOT
ATOM      1  N   UNL     1      -9.274 -43.542  30.515  1.00  0.00    -0.269 N 
ATOM      2  C   UNL     1     -10.455 -44.176  30.251  1.00  0.00     0.121 A 
ATOM      3  C   UNL     1     -10.702 -44.011  28.900  1.00  0.00     0.065 A 
ATOM      4  C   UNL     1      -9.599 -43.254  28.447  1.00  0.00     0.147 A 
ATOM      5  N   UNL     1      -8.735 -42.968  29.422  1.00  0.00    -0.180 NA
ENDROOT
BRANCH   1   6
ATOM      6  C   UNL     1      -8.587 -43.434  31.799  1.00  0.00     0.104 C 
ATOM      7  C   UNL     1      -9.576 -43.084  32.913  1.00  0.00     0.033 C 
BRANCH   6   8
ATOM      8  C   UNL     1      -7.788 -44.703  32.153  1.00  0.00     0.027 C 
BRANCH   8   9
ATOM      9  C   UNL     1      -7.625 -45.654  30.963  1.00  0.00    -0.001 C 
ATOM     10  C   UNL     1      -8.491 -46.894  31.122  1.00  0.00     0.004 C 
ENDBRANCH   8   9
ENDBRANCH   6   8
ENDBRANCH   1   6
BRANCH   3  11
ATOM     11  C   UNL     1     -11.855 -44.525  28.169  1.00  0.00     0.269 C 
ATOM     12  O   UNL     1     -12.677 -43.744  27.679  1.00  0.00    -0.284 OA
BRANCH  11  13
ATOM     13  C   UNL     1     -11.985 -46.041  28.047  1.00  0.00     0.454 C 
ATOM     14  F   UNL     1     -10.772 -46.658  27.960  1.00  0.00    -0.163 F 
ATOM     15  F   UNL     1     -12.609 -46.594  29.127  1.00  0.00    -0.163 F 
ATOM     16  F   UNL     1     -12.694 -46.440  26.954  1.00  0.00    -0.163 F 
ENDBRANCH  11  13
ENDBRANCH   3  11
TORSDOF 5
ENDMDL
MODEL 8
REMARK VINA RESULT:    -6.890      2.115      2.544
REMARK INTER + INTRA:          -9.427
REMARK INTER:                  -8.981
REMARK INTRA:                  -0.446
REMARK UNBOUND:                -0.523
REMARK SMILES CCC[C@H](C)n1cc(C(=O)C(F)(F)F)cn1
REMARK SMILES IDX 6 1 7 2 8 3 15 4 16 5 4 6 5 7 3 8 2 9 1 10 9 11 10 12 11 13
REMARK SMILES IDX 12 14 13 15 14 16
REMARK H PARENT
ROOT
ATOM      1  N   UNL     1     -12.706 -45.254  28.778  1.00  0.00    -0.269 N 
ATOM      2  C   UNL     1     -11.980 -44.340  29.487  1.00  0.00     0.121 A 
ATOM      3  C   UNL     1     -12.216 -44.597  30.826  1.00  0.00     0.065 A 
ATOM      4  C   UNL     1     -13.108 -45.693  30.805  1.00  0.00     0.147 A 
ATOM      5  N   UNL     1     -13.407 -46.090  29.568  1.00  0.00    -0.180 NA
ENDROOT
BRANCH   1   6
ATOM      6  C   UNL     1     -12.788 -45.394  27.326  1.00  0.00     0.104 C 
ATOM      7  C   UNL     1     -12.633 -46.860  26.916  1.00  0.00     0.033 C 
BRANCH   6   8
ATOM      8  C   UNL     1     -14.082 -44.794  26.744  1.00  0.00     0.027 C 
BRANCH   8   9
ATOM      9  C   UNL     1     -13.944 -43.309  26.394  1.00  0.00    -0.001 C 
ATOM     10  C   UNL     1     -15.290 -42.603  26.435  1.00  0.00     0.004 C 
ENDBRANCH   8   9
ENDBRANCH   6   8
ENDBRANCH   1   6
BRANCH   3  11
ATOM     11  C   UNL     1     -11.646 -43.869  31.954  1.00  0.00     0.269 C 
ATOM     12  O   UNL     1     -12.365 -43.153  32.658  1.00  0.00    -0.284 OA
BRANCH  11  13
ATOM     13  C   UNL     1     -10.150 -44.037  32.209  1.00  0.00     0.454 C 
ATOM     14  F   UNL     1      -9.392 -43.374  31.288  1.00  0.00    -0.163 F 
ATOM     15  F   UNL     1      -9.775 -43.545  33.425  1.00  0.00    -0.163 F 
ATOM     16  F   UNL     1      -9.735 -45.334  32.180  1.00  0.00    -0.163 F 
ENDBRANCH  11  13
ENDBRANCH   3  11
TORSDOF 5
ENDMDL
MODEL 9
REMARK VINA RESULT:    -6.877      2.518      3.627
REMARK INTER + INTRA:          -9.410
REMARK INTER:                  -9.116
REMARK INTRA:                  -0.294
REMARK UNBOUND:                -0.523
REMARK SMILES CCC[C@H](C)n1cc(C(=O)C(F)(F)F)cn1
REMARK SMILES IDX 6 1 7 2 8 3 15 4 16 5 4 6 5 7 3 8 2 9 1 10 9 11 10 12 11 13
REMARK SMILES IDX 12 14 13 15 14 16
REMARK H PARENT
ROOT
ATOM      1  N   UNL     1     -13.668 -43.623  26.855  1.00  0.00    -0.269 N 
ATOM      2  C   UNL     1     -12.383 -43.415  27.267  1.00  0.00     0.121 A 
ATOM      3  C   UNL     1     -12.032 -44.505  28.043  1.00  0.00     0.065 A 
ATOM      4  C   UNL     1     -13.192 -45.311  28.033  1.00  0.00     0.147 A 
ATOM      5  N   UNL     1     -14.183 -44.779  27.317  1.00  0.00    -0.180 NA
ENDROOT
BRANCH   1   6
ATOM      6  C   UNL     1     -14.487 -42.755  26.012  1.00  0.00     0.104 C 
ATOM      7  C   UNL     1     -14.543 -43.292  24.580  1.00  0.00     0.033 C 
BRANCH   6   8
ATOM      8  C   UNL     1     -15.904 -42.544  26.576  1.00  0.00     0.027 C 
BRANCH   8   9
ATOM      9  C   UNL     1     -16.995 -42.673  25.508  1.00  0.00    -0.001 C 
ATOM     10  C   UNL     1     -18.367 -42.340  26.074  1.00  0.00     0.004 C 
ENDBRANCH   8   9
ENDBRANCH   6   8
ENDBRANCH   1   6
BRANCH   3  11
ATOM     11  C   UNL     1     -10.745 -44.716  28.696  1.00  0.00     0.269 C 
ATOM     12  O   UNL     1     -10.000 -43.758  28.923  1.00  0.00    -0.284 OA
BRANCH  11  13
ATOM     13  C   UNL     1     -10.380 -46.150  29.071  1.00  0.00     0.454 C 
ATOM     14  F   UNL     1     -10.289 -46.962  27.979  1.00  0.00    -0.163 F 
ATOM     15  F   UNL     1      -9.170 -46.228  29.697  1.00  0.00    -0.163 F 
ATOM     16  F   UNL     1     -11.278 -46.739  29.909  1.00  0.00    -0.163 F 
ENDBRANCH  11  13
ENDBRANCH   3  11
TORSDOF 5
ENDMDL
