MODEL 1
REMARK VINA RESULT:    -8.315      0.000      0.000
REMARK INTER + INTRA:         -10.105
REMARK INTER:                  -9.773
REMARK INTRA:                  -0.332
REMARK UNBOUND:                -0.332
REMARK SMILES O=C(c1cnn(C2CCCC2)c1)C(F)(F)F
REMARK SMILES IDX 1 1 2 2 3 3 4 4 12 5 5 6 6 7 7 8 8 9 11 10 9 11 10 12 13 13
REMARK SMILES IDX 14 14 15 15 16 16
REMARK H PARENT
ROOT
ATOM      1  O   UNL     1     -12.408 -47.018  26.759  1.00  0.00    -0.284 OA
ATOM      2  C   UNL     1     -12.704 -46.093  27.521  1.00  0.00     0.269 C 
ENDROOT
BRANCH   2   3
ATOM      3  C   UNL     1     -12.257 -46.115  28.910  1.00  0.00     0.065 A 
ATOM      4  C   UNL     1     -13.003 -46.222  30.105  1.00  0.00     0.147 A 
ATOM      5  C   UNL     1     -10.948 -46.029  29.346  1.00  0.00     0.121 A 
ATOM      6  N   UNL     1     -12.233 -46.205  31.194  1.00  0.00    -0.180 NA
ATOM      7  N   UNL     1     -10.982 -46.090  30.710  1.00  0.00    -0.269 N 
BRANCH   7   8
ATOM      8  C   UNL     1      -9.860 -46.034  31.633  1.00  0.00     0.107 C 
ATOM      9  C   UNL     1      -8.602 -46.757  31.119  1.00  0.00     0.027 C 
ATOM     10  C   UNL     1      -9.425 -44.594  31.951  1.00  0.00     0.027 C 
ATOM     11  C   UNL     1      -7.574 -45.658  30.885  1.00  0.00     0.002 C 
ATOM     12  C   UNL     1      -7.903 -44.633  31.956  1.00  0.00     0.002 C 
ENDBRANCH   7   8
ENDBRANCH   2   3
BRANCH   2  13
ATOM     13  C   UNL     1     -13.536 -44.894  27.074  1.00  0.00     0.454 C 
ATOM     14  F   UNL     1     -14.565 -44.632  27.931  1.00  0.00    -0.163 F 
ATOM     15  F   UNL     1     -14.110 -45.090  25.852  1.00  0.00    -0.163 F 
ATOM     16  F   UNL     1     -12.819 -43.740  26.977  1.00  0.00    -0.163 F 
ENDBRANCH   2  13
TORSDOF 3
ENDMDL
MODEL 2
REMARK VINA RESULT:    -8.145      4.205      6.058
REMARK INTER + INTRA:          -9.906
REMARK INTER:                  -9.537
REMARK INTRA:                  -0.369
REMARK UNBOUND:                -0.332
REMARK SMILES O=C(c1cnn(C2CCCC2)c1)C(F)(F)F
REMARK SMILES IDX 1 1 2 2 3 3 4 4 12 5 5 6 6 7 7 8 8 9 11 10 9 11 10 12 13 13
REMARK SMILES IDX 14 14 15 15 16 16
REMARK H PARENT
ROOT
ATOM      1  O   UNL     1      -7.791 -42.771  29.965  1.00  0.00    -0.284 OA
ATOM      2  C   UNL     1      -8.471 -43.379  30.797  1.00  0.00     0.269 C 
ENDROOT
BRANCH   2   3
ATOM      3  C   UNL     1      -9.853 -43.735  30.496  1.00  0.00     0.065 A 
ATOM      4  C   UNL     1     -11.060 -43.100  30.866  1.00  0.00     0.147 A 
ATOM      5  C   UNL     1     -10.270 -44.822  29.750  1.00  0.00     0.121 A 
ATOM      6  N   UNL     1     -12.138 -43.730  30.397  1.00  0.00    -0.180 NA
ATOM      7  N   UNL     1     -11.635 -44.777  29.716  1.00  0.00    -0.269 N 
BRANCH   7   8
ATOM      8  C   UNL     1     -12.541 -45.706  29.060  1.00  0.00     0.107 C 
ATOM      9  C   UNL     1     -13.749 -45.023  28.395  1.00  0.00     0.027 C 
ATOM     10  C   UNL     1     -11.853 -46.527  27.957  1.00  0.00     0.027 C 
ATOM     11  C   UNL     1     -13.555 -45.232  26.898  1.00  0.00     0.002 C 
ATOM     12  C   UNL     1     -12.860 -46.580  26.817  1.00  0.00     0.002 C 
ENDBRANCH   7   8
ENDBRANCH   2   3
BRANCH   2  13
ATOM     13  C   UNL     1      -7.927 -43.787  32.163  1.00  0.00     0.454 C 
ATOM     14  F   UNL     1      -8.847 -43.619  33.157  1.00  0.00    -0.163 F 
ATOM     15  F   UNL     1      -6.843 -43.045  32.531  1.00  0.00    -0.163 F 
ATOM     16  F   UNL     1      -7.534 -45.090  32.226  1.00  0.00    -0.163 F 
ENDBRANCH   2  13
TORSDOF 3
ENDMDL
MODEL 3
REMARK VINA RESULT:    -8.091      3.704      6.717
REMARK INTER + INTRA:          -9.842
REMARK INTER:                  -9.417
REMARK INTRA:                  -0.425
REMARK UNBOUND:                -0.332
REMARK SMILES O=C(c1cnn(C2CCCC2)c1)C(F)(F)F
REMARK SMILES IDX 1 1 2 2 3 3 4 4 12 5 5 6 6 7 7 8 8 9 11 10 9 11 10 12 13 13
REMARK SMILES IDX 14 14 15 15 16 16
REMARK H PARENT
ROOT
ATOM      1  O   UNL     1     -10.590 -44.014  28.297  1.00  0.00    -0.284 OA
ATOM      2  C   UNL     1     -11.520 -44.792  28.067  1.00  0.00     0.269 C 
ENDROOT
BRANCH   2   3
ATOM      3  C   UNL     1     -12.839 -44.274  27.718  1.00  0.00     0.065 A 
ATOM      4  C   UNL     1     -14.095 -44.493  28.328  1.00  0.00     0.147 A 
ATOM      5  C   UNL     1     -13.129 -43.426  26.666  1.00  0.00     0.121 A 
ATOM      6  N   UNL     1     -15.084 -43.842  27.715  1.00  0.00    -0.180 NA
ATOM      7  N   UNL     1     -14.474 -43.194  26.705  1.00  0.00    -0.269 N 
BRANCH   7   8
ATOM      8  C   UNL     1     -15.263 -42.369  25.804  1.00  0.00     0.107 C 
ATOM      9  C   UNL     1     -14.829 -42.475  24.331  1.00  0.00     0.027 C 
ATOM     10  C   UNL     1     -16.760 -42.721  25.835  1.00  0.00     0.027 C 
ATOM     11  C   UNL     1     -15.991 -43.155  23.618  1.00  0.00     0.002 C 
ATOM     12  C   UNL     1     -17.209 -42.665  24.382  1.00  0.00     0.002 C 
ENDBRANCH   7   8
ENDBRANCH   2   3
BRANCH   2  13
ATOM     13  C   UNL     1     -11.360 -46.308  28.132  1.00  0.00     0.454 C 
ATOM     14  F   UNL     1     -10.050 -46.690  28.105  1.00  0.00    -0.163 F 
ATOM     15  F   UNL     1     -11.952 -46.936  27.075  1.00  0.00    -0.163 F 
ATOM     16  F   UNL     1     -11.896 -46.865  29.253  1.00  0.00    -0.163 F 
ENDBRANCH   2  13
TORSDOF 3
ENDMDL
MODEL 4
REMARK VINA RESULT:    -7.943      1.456      1.692
REMARK INTER + INTRA:          -9.668
REMARK INTER:                  -9.432
REMARK INTRA:                  -0.235
REMARK UNBOUND:                -0.332
REMARK SMILES O=C(c1cnn(C2CCCC2)c1)C(F)(F)F
REMARK SMILES IDX 1 1 2 2 3 3 4 4 12 5 5 6 6 7 7 8 8 9 11 10 9 11 10 12 13 13
REMARK SMILES IDX 14 14 15 15 16 16
REMARK H PARENT
ROOT
ATOM      1  O   UNL     1     -14.923 -44.278  28.924  1.00  0.00    -0.284 OA
ATOM      2  C   UNL     1     -13.994 -44.614  28.184  1.00  0.00     0.269 C 
ENDROOT
BRANCH   2   3
ATOM      3  C   UNL     1     -12.799 -45.237  28.743  1.00  0.00     0.065 A 
ATOM      4  C   UNL     1     -11.892 -46.153  28.163  1.00  0.00     0.147 A 
ATOM      5  C   UNL     1     -12.297 -45.041  30.016  1.00  0.00     0.121 A 
ATOM      6  N   UNL     1     -10.910 -46.501  28.995  1.00  0.00    -0.180 NA
ATOM      7  N   UNL     1     -11.173 -45.810  30.120  1.00  0.00    -0.269 N 
BRANCH   7   8
ATOM      8  C   UNL     1     -10.293 -45.951  31.269  1.00  0.00     0.107 C 
ATOM      9  C   UNL     1      -9.067 -46.841  31.002  1.00  0.00     0.027 C 
ATOM     10  C   UNL     1      -9.743 -44.603  31.764  1.00  0.00     0.027 C 
ATOM     11  C   UNL     1      -7.868 -45.904  31.068  1.00  0.00     0.002 C 
ATOM     12  C   UNL     1      -8.284 -44.872  32.101  1.00  0.00     0.002 C 
ENDBRANCH   7   8
ENDBRANCH   2   3
BRANCH   2  13
ATOM     13  C   UNL     1     -14.030 -44.406  26.673  1.00  0.00     0.454 C 
ATOM     14  F   UNL     1     -15.234 -43.922  26.247  1.00  0.00    -0.163 F 
ATOM     15  F   UNL     1     -13.832 -45.567  25.986  1.00  0.00    -0.163 F 
ATOM     16  F   UNL     1     -13.089 -43.532  26.221  1.00  0.00    -0.163 F 
ENDBRANCH   2  13
TORSDOF 3
ENDMDL
MODEL 5
REMARK VINA RESULT:    -7.903      2.347      2.844
REMARK INTER + INTRA:          -9.621
REMARK INTER:                  -9.358
REMARK INTRA:                  -0.263
REMARK UNBOUND:                -0.332
REMARK SMILES O=C(c1cnn(C2CCCC2)c1)C(F)(F)F
REMARK SMILES IDX 1 1 2 2 3 3 4 4 12 5 5 6 6 7 7 8 8 9 11 10 9 11 10 12 13 13
REMARK SMILES IDX 14 14 15 15 16 16
REMARK H PARENT
ROOT
ATOM      1  O   UNL     1     -13.113 -42.746  26.818  1.00  0.00    -0.284 OA
ATOM      2  C   UNL     1     -12.580 -43.658  27.457  1.00  0.00     0.269 C 
ENDROOT
BRANCH   2   3
ATOM      3  C   UNL     1     -11.400 -43.391  28.273  1.00  0.00     0.065 A 
ATOM      4  C   UNL     1     -10.385 -42.420  28.117  1.00  0.00     0.147 A 
ATOM      5  C   UNL     1     -11.029 -44.073  29.417  1.00  0.00     0.121 A 
ATOM      6  N   UNL     1      -9.459 -42.486  29.075  1.00  0.00    -0.180 NA
ATOM      7  N   UNL     1      -9.872 -43.499  29.860  1.00  0.00    -0.269 N 
BRANCH   7   8
ATOM      8  C   UNL     1      -9.085 -43.866  31.027  1.00  0.00     0.107 C 
ATOM      9  C   UNL     1      -9.542 -45.176  31.692  1.00  0.00     0.027 C 
ATOM     10  C   UNL     1      -7.593 -44.048  30.702  1.00  0.00     0.027 C 
ATOM     11  C   UNL     1      -8.400 -46.160  31.468  1.00  0.00     0.002 C 
ATOM     12  C   UNL     1      -7.165 -45.277  31.492  1.00  0.00     0.002 C 
ENDBRANCH   7   8
ENDBRANCH   2   3
BRANCH   2  13
ATOM     13  C   UNL     1     -13.105 -45.091  27.437  1.00  0.00     0.454 C 
ATOM     14  F   UNL     1     -12.098 -46.008  27.344  1.00  0.00    -0.163 F 
ATOM     15  F   UNL     1     -13.923 -45.327  26.372  1.00  0.00    -0.163 F 
ATOM     16  F   UNL     1     -13.820 -45.424  28.547  1.00  0.00    -0.163 F 
ENDBRANCH   2  13
TORSDOF 3
ENDMDL
MODEL 6
REMARK VINA RESULT:    -7.877      2.107      2.681
REMARK INTER + INTRA:          -9.591
REMARK INTER:                  -9.275
REMARK INTRA:                  -0.316
REMARK UNBOUND:                -0.332
REMARK SMILES O=C(c1cnn(C2CCCC2)c1)C(F)(F)F
REMARK SMILES IDX 1 1 2 2 3 3 4 4 12 5 5 6 6 7 7 8 8 9 11 10 9 11 10 12 13 13
REMARK SMILES IDX 14 14 15 15 16 16
REMARK H PARENT
ROOT
ATOM      1  O   UNL     1     -15.160 -43.679  27.882  1.00  0.00    -0.284 OA
ATOM      2  C   UNL     1     -14.334 -44.118  27.076  1.00  0.00     0.269 C 
ENDROOT
BRANCH   2   3
ATOM      3  C   UNL     1     -13.145 -44.816  27.552  1.00  0.00     0.065 A 
ATOM      4  C   UNL     1     -12.727 -46.150  27.346  1.00  0.00     0.147 A 
ATOM      5  C   UNL     1     -12.144 -44.277  28.339  1.00  0.00     0.121 A 
ATOM      6  N   UNL     1     -11.570 -46.426  27.949  1.00  0.00    -0.180 NA
ATOM      7  N   UNL     1     -11.228 -45.269  28.547  1.00  0.00    -0.269 N 
BRANCH   7   8
ATOM      8  C   UNL     1      -9.998 -45.199  29.318  1.00  0.00     0.107 C 
ATOM      9  C   UNL     1     -10.072 -44.231  30.512  1.00  0.00     0.027 C 
ATOM     10  C   UNL     1      -9.582 -46.562  29.897  1.00  0.00     0.027 C 
ATOM     11  C   UNL     1      -9.986 -45.113  31.751  1.00  0.00     0.002 C 
ATOM     12  C   UNL     1      -9.093 -46.259  31.307  1.00  0.00     0.002 C 
ENDBRANCH   7   8
ENDBRANCH   2   3
BRANCH   2  13
ATOM     13  C   UNL     1     -14.495 -43.963  25.567  1.00  0.00     0.454 C 
ATOM     14  F   UNL     1     -15.707 -43.434  25.228  1.00  0.00    -0.163 F 
ATOM     15  F   UNL     1     -14.415 -45.157  24.913  1.00  0.00    -0.163 F 
ATOM     16  F   UNL     1     -13.556 -43.155  24.999  1.00  0.00    -0.163 F 
ENDBRANCH   2  13
TORSDOF 3
ENDMDL
MODEL 7
REMARK VINA RESULT:    -7.843      2.952      4.103
REMARK INTER + INTRA:          -9.551
REMARK INTER:                  -9.193
REMARK INTRA:                  -0.358
REMARK UNBOUND:                -0.332
REMARK SMILES O=C(c1cnn(C2CCCC2)c1)C(F)(F)F
REMARK SMILES IDX 1 1 2 2 3 3 4 4 12 5 5 6 6 7 7 8 8 9 11 10 9 11 10 12 13 13
REMARK SMILES IDX 14 14 15 15 16 16
REMARK H PARENT
ROOT
ATOM      1  O   UNL     1     -14.568 -44.541  23.559  1.00  0.00    -0.284 OA
ATOM      2  C   UNL     1     -14.807 -43.847  24.551  1.00  0.00     0.269 C 
ENDROOT
BRANCH   2   3
ATOM      3  C   UNL     1     -14.105 -44.096  25.806  1.00  0.00     0.065 A 
ATOM      4  C   UNL     1     -13.556 -43.187  26.738  1.00  0.00     0.147 A 
ATOM      5  C   UNL     1     -13.827 -45.335  26.352  1.00  0.00     0.121 A 
ATOM      6  N   UNL     1     -12.983 -43.799  27.776  1.00  0.00    -0.180 NA
ATOM      7  N   UNL     1     -13.162 -45.110  27.524  1.00  0.00    -0.269 N 
BRANCH   7   8
ATOM      8  C   UNL     1     -12.651 -46.095  28.462  1.00  0.00     0.107 C 
ATOM      9  C   UNL     1     -11.186 -46.491  28.205  1.00  0.00     0.027 C 
ATOM     10  C   UNL     1     -12.714 -45.614  29.922  1.00  0.00     0.027 C 
ATOM     11  C   UNL     1     -10.410 -45.960  29.403  1.00  0.00     0.002 C 
ATOM     12  C   UNL     1     -11.404 -46.074  30.546  1.00  0.00     0.002 C 
ENDBRANCH   7   8
ENDBRANCH   2   3
BRANCH   2  13
ATOM     13  C   UNL     1     -15.827 -42.712  24.535  1.00  0.00     0.454 C 
ATOM     14  F   UNL     1     -16.471 -42.580  25.731  1.00  0.00    -0.163 F 
ATOM     15  F   UNL     1     -16.805 -42.909  23.605  1.00  0.00    -0.163 F 
ATOM     16  F   UNL     1     -15.282 -41.494  24.261  1.00  0.00    -0.163 F 
ENDBRANCH   2  13
TORSDOF 3
ENDMDL
MODEL 8
REMARK VINA RESULT:    -7.557      6.185      9.558
REMARK INTER + INTRA:          -9.214
REMARK INTER:                  -8.817
REMARK INTRA:                  -0.398
REMARK UNBOUND:                -0.332
REMARK SMILES O=C(c1cnn(C2CCCC2)c1)C(F)(F)F
REMARK SMILES IDX 1 1 2 2 3 3 4 4 12 5 5 6 6 7 7 8 8 9 11 10 9 11 10 12 13 13
REMARK SMILES IDX 14 14 15 15 16 16
REMARK H PARENT
ROOT
ATOM      1  O   UNL     1     -16.020 -42.757  27.685  1.00  0.00    -0.284 OA
ATOM      2  C   UNL     1     -15.398 -43.158  26.697  1.00  0.00     0.269 C 
ENDROOT
BRANCH   2   3
ATOM      3  C   UNL     1     -15.770 -42.703  25.361  1.00  0.00     0.065 A 
ATOM      4  C   UNL     1     -14.968 -42.198  24.314  1.00  0.00     0.147 A 
ATOM      5  C   UNL     1     -17.049 -42.677  24.836  1.00  0.00     0.121 A 
ATOM      6  N   UNL     1     -15.676 -41.883  23.229  1.00  0.00    -0.180 NA
ATOM      7  N   UNL     1     -16.944 -42.186  23.566  1.00  0.00    -0.269 N 
BRANCH   7   8
ATOM      8  C   UNL     1     -18.013 -41.961  22.607  1.00  0.00     0.107 C 
ATOM      9  C   UNL     1     -19.423 -42.086  23.212  1.00  0.00     0.027 C 
ATOM     10  C   UNL     1     -17.947 -40.567  21.960  1.00  0.00     0.027 C 
ATOM     11  C   UNL     1     -20.011 -40.682  23.155  1.00  0.00     0.002 C 
ATOM     12  C   UNL     1     -19.392 -40.092  21.899  1.00  0.00     0.002 C 
ENDBRANCH   7   8
ENDBRANCH   2   3
BRANCH   2  13
ATOM     13  C   UNL     1     -14.228 -44.132  26.801  1.00  0.00     0.454 C 
ATOM     14  F   UNL     1     -14.222 -45.043  25.785  1.00  0.00    -0.163 F 
ATOM     15  F   UNL     1     -14.264 -44.861  27.954  1.00  0.00    -0.163 F 
ATOM     16  F   UNL     1     -13.010 -43.524  26.774  1.00  0.00    -0.163 F 
ENDBRANCH   2  13
TORSDOF 3
ENDMDL
MODEL 9
REMARK VINA RESULT:    -7.341      2.301      3.217
REMARK INTER + INTRA:          -8.961
REMARK INTER:                  -8.537
REMARK INTRA:                  -0.424
REMARK UNBOUND:                -0.332
REMARK SMILES O=C(c1cnn(C2CCCC2)c1)C(F)(F)F
REMARK SMILES IDX 1 1 2 2 3 3 4 4 12 5 5 6 6 7 7 8 8 9 11 10 9 11 10 12 13 13
REMARK SMILES IDX 14 14 15 15 16 16
REMARK H PARENT
ROOT
ATOM      1  O   UNL     1     -14.260 -45.038  25.235  1.00  0.00    -0.284 OA
ATOM      2  C   UNL     1     -14.335 -44.080  26.010  1.00  0.00     0.269 C 
ENDROOT
BRANCH   2   3
ATOM      3  C   UNL     1     -13.431 -43.987  27.152  1.00  0.00     0.065 A 
ATOM      4  C   UNL     1     -12.267 -43.206  27.332  1.00  0.00     0.147 A 
ATOM      5  C   UNL     1     -13.545 -44.684  28.340  1.00  0.00     0.121 A 
ATOM      6  N   UNL     1     -11.701 -43.395  28.525  1.00  0.00    -0.180 NA
ATOM      7  N   UNL     1     -12.498 -44.298  29.127  1.00  0.00    -0.269 N 
BRANCH   7   8
ATOM      8  C   UNL     1     -12.176 -44.754  30.469  1.00  0.00     0.107 C 
ATOM      9  C   UNL     1     -11.808 -46.246  30.543  1.00  0.00     0.027 C 
ATOM     10  C   UNL     1     -10.993 -43.990  31.087  1.00  0.00     0.027 C 
ATOM     11  C   UNL     1     -10.332 -46.278  30.923  1.00  0.00     0.002 C 
ATOM     12  C   UNL     1     -10.169 -45.051  31.803  1.00  0.00     0.002 C 
ENDBRANCH   7   8
ENDBRANCH   2   3
BRANCH   2  13
ATOM     13  C   UNL     1     -15.352 -42.957  25.833  1.00  0.00     0.454 C 
ATOM     14  F   UNL     1     -14.819 -41.873  25.197  1.00  0.00    -0.163 F 
ATOM     15  F   UNL     1     -15.824 -42.493  27.026  1.00  0.00    -0.163 F 
ATOM     16  F   UNL     1     -16.446 -43.322  25.107  1.00  0.00    -0.163 F 
ENDBRANCH   2  13
TORSDOF 3
ENDMDL
