MODEL 1
REMARK VINA RESULT:    -9.548      0.000      0.000
REMARK INTER + INTRA:         -14.408
REMARK INTER:                 -13.176
REMARK INTRA:                  -1.232
REMARK UNBOUND:                -1.232
REMARK SMILES COc1ccc([C@@H]2C=C(c3cc(F)cc(F)c3)NN2c2ccc(S(N)(=O)=O)cc2)cc1OC
REMARK SMILES IDX 20 1 21 2 22 3 23 4 28 5 29 6 19 7 18 8 9 9 8 10 7 11 10 13
REMARK SMILES IDX 11 14 17 15 12 16 15 17 14 18 13 19 16 20 6 21 5 22 30 23
REMARK SMILES IDX 4 24 31 25 3 26 32 27 33 28 2 29 1 30 24 31 26 32 27 33
REMARK SMILES IDX 25 34
REMARK H PARENT 18 12 25 35 25 36
ROOT
ATOM      1  C   UNL     1     -18.574 -42.077  26.015  1.00  0.00     0.058 A 
ATOM      2  C   UNL     1     -18.104 -42.239  27.333  1.00  0.00     0.029 A 
ATOM      3  C   UNL     1     -16.822 -42.730  27.606  1.00  0.00     0.024 A 
ATOM      4  C   UNL     1     -15.976 -43.050  26.547  1.00  0.00     0.082 A 
ATOM      5  C   UNL     1     -16.403 -42.898  25.230  1.00  0.00     0.024 A 
ATOM      6  C   UNL     1     -17.689 -42.408  24.973  1.00  0.00     0.029 A 
ENDROOT
BRANCH   1   7
ATOM      7  N   UNL     1     -19.863 -41.563  25.773  1.00  0.00    -0.276 N 
ATOM      8  N   UNL     1     -20.693 -41.130  26.804  1.00  0.00    -0.297 N 
ATOM      9  C   UNL     1     -22.026 -41.309  26.467  1.00  0.00     0.060 C 
ATOM     10  C   UNL     1     -22.117 -41.957  25.295  1.00  0.00     0.033 C 
ATOM     11  C   UNL     1     -20.729 -42.216  24.734  1.00  0.00     0.161 C 
ATOM     12  H   UNL     1     -20.496 -40.196  27.165  1.00  0.00     0.188 HD
BRANCH   9  13
ATOM     13  C   UNL     1     -23.113 -40.819  27.316  1.00  0.00     0.005 A 
ATOM     14  C   UNL     1     -24.051 -41.714  27.855  1.00  0.00     0.049 A 
ATOM     15  C   UNL     1     -23.238 -39.458  27.628  1.00  0.00     0.049 A 
ATOM     16  C   UNL     1     -25.078 -41.248  28.674  1.00  0.00     0.126 A 
ATOM     17  C   UNL     1     -24.273 -39.017  28.449  1.00  0.00     0.126 A 
ATOM     18  C   UNL     1     -25.200 -39.902  28.978  1.00  0.00     0.078 A 
ATOM     19  F   UNL     1     -25.962 -42.120  29.175  1.00  0.00    -0.207 F 
ATOM     20  F   UNL     1     -24.371 -37.712  28.736  1.00  0.00    -0.207 F 
ENDBRANCH   9  13
BRANCH  11  21
ATOM     21  C   UNL     1     -20.570 -41.602  23.353  1.00  0.00    -0.016 A 
ATOM     22  C   UNL     1     -20.184 -40.266  23.175  1.00  0.00     0.010 A 
ATOM     23  C   UNL     1     -20.854 -42.376  22.213  1.00  0.00     0.056 A 
ATOM     24  C   UNL     1     -20.064 -39.720  21.895  1.00  0.00     0.051 A 
ATOM     25  C   UNL     1     -20.734 -41.837  20.926  1.00  0.00     0.161 A 
ATOM     26  C   UNL     1     -20.335 -40.496  20.766  1.00  0.00     0.160 A 
BRANCH  25  27
ATOM     27  O   UNL     1     -20.987 -42.532  19.769  1.00  0.00    -0.493 OA
ATOM     28  C   UNL     1     -21.325 -43.907  19.879  1.00  0.00     0.278 C 
ENDBRANCH  25  27
BRANCH  26  29
ATOM     29  O   UNL     1     -20.243 -40.044  19.473  1.00  0.00    -0.493 OA
ATOM     30  C   UNL     1     -21.178 -39.064  19.047  1.00  0.00     0.278 C 
ENDBRANCH  26  29
ENDBRANCH  11  21
ENDBRANCH   1   7
BRANCH   4  31
ATOM     31  S   UNL     1     -14.348 -43.675  26.867  1.00  0.00     0.238 S 
ATOM     32  O   UNL     1     -14.149 -44.868  26.078  1.00  0.00    -0.207 OA
ATOM     33  O   UNL     1     -13.424 -42.566  26.850  1.00  0.00    -0.207 OA
BRANCH  31  34
ATOM     34  N   UNL     1     -14.499 -44.204  28.458  1.00  0.00    -0.225 NA
ATOM     35  H   UNL     1     -15.378 -43.851  28.840  1.00  0.00     0.137 HD
ATOM     36  H   UNL     1     -13.703 -43.955  29.044  1.00  0.00     0.137 HD
ENDBRANCH  31  34
ENDBRANCH   4  31
TORSDOF 7
ENDMDL
MODEL 2
REMARK VINA RESULT:    -9.410      3.582      5.970
REMARK INTER + INTRA:         -14.218
REMARK INTER:                 -12.971
REMARK INTRA:                  -1.247
REMARK UNBOUND:                -1.232
REMARK SMILES COc1ccc([C@@H]2C=C(c3cc(F)cc(F)c3)NN2c2ccc(S(N)(=O)=O)cc2)cc1OC
REMARK SMILES IDX 20 1 21 2 22 3 23 4 28 5 29 6 19 7 18 8 9 9 8 10 7 11 10 13
REMARK SMILES IDX 11 14 17 15 12 16 15 17 14 18 13 19 16 20 6 21 5 22 30 23
REMARK SMILES IDX 4 24 31 25 3 26 32 27 33 28 2 29 1 30 24 31 26 32 27 33
REMARK SMILES IDX 25 34
REMARK H PARENT 18 12 25 35 25 36
ROOT
ATOM      1  C   UNL     1     -17.826 -42.568  25.460  1.00  0.00     0.058 A 
ATOM      2  C   UNL     1     -16.832 -43.127  24.634  1.00  0.00     0.029 A 
ATOM      3  C   UNL     1     -15.586 -43.519  25.137  1.00  0.00     0.024 A 
ATOM      4  C   UNL     1     -15.324 -43.372  26.497  1.00  0.00     0.082 A 
ATOM      5  C   UNL     1     -16.285 -42.827  27.347  1.00  0.00     0.024 A 
ATOM      6  C   UNL     1     -17.525 -42.438  26.828  1.00  0.00     0.029 A 
ENDROOT
BRANCH   1   7
ATOM      7  N   UNL     1     -19.077 -42.201  24.926  1.00  0.00    -0.276 N 
ATOM      8  N   UNL     1     -19.195 -41.505  23.726  1.00  0.00    -0.297 N 
ATOM      9  C   UNL     1     -20.328 -40.707  23.732  1.00  0.00     0.060 C 
ATOM     10  C   UNL     1     -20.911 -40.752  24.941  1.00  0.00     0.033 C 
ATOM     11  C   UNL     1     -20.150 -41.700  25.852  1.00  0.00     0.161 C 
ATOM     12  H   UNL     1     -19.110 -42.069  22.880  1.00  0.00     0.188 HD
BRANCH   9  13
ATOM     13  C   UNL     1     -20.763 -39.967  22.546  1.00  0.00     0.005 A 
ATOM     14  C   UNL     1     -22.056 -39.426  22.482  1.00  0.00     0.049 A 
ATOM     15  C   UNL     1     -19.902 -39.763  21.459  1.00  0.00     0.049 A 
ATOM     16  C   UNL     1     -22.464 -38.711  21.357  1.00  0.00     0.126 A 
ATOM     17  C   UNL     1     -20.333 -39.044  20.346  1.00  0.00     0.126 A 
ATOM     18  C   UNL     1     -21.612 -38.514  20.283  1.00  0.00     0.078 A 
ATOM     19  F   UNL     1     -23.704 -38.206  21.316  1.00  0.00    -0.207 F 
ATOM     20  F   UNL     1     -19.492 -38.859  19.319  1.00  0.00    -0.207 F 
ENDBRANCH   9  13
BRANCH  11  21
ATOM     21  C   UNL     1     -21.052 -42.806  26.373  1.00  0.00    -0.016 A 
ATOM     22  C   UNL     1     -20.662 -43.650  27.422  1.00  0.00     0.010 A 
ATOM     23  C   UNL     1     -22.302 -43.024  25.766  1.00  0.00     0.056 A 
ATOM     24  C   UNL     1     -21.502 -44.673  27.869  1.00  0.00     0.051 A 
ATOM     25  C   UNL     1     -23.152 -44.045  26.209  1.00  0.00     0.161 A 
ATOM     26  C   UNL     1     -22.748 -44.877  27.271  1.00  0.00     0.160 A 
BRANCH  25  27
ATOM     27  O   UNL     1     -24.388 -44.313  25.672  1.00  0.00    -0.493 OA
ATOM     28  C   UNL     1     -24.445 -44.742  24.319  1.00  0.00     0.278 C 
ENDBRANCH  25  27
BRANCH  26  29
ATOM     29  O   UNL     1     -23.637 -45.854  27.646  1.00  0.00    -0.493 OA
ATOM     30  C   UNL     1     -24.275 -45.719  28.907  1.00  0.00     0.278 C 
ENDBRANCH  26  29
ENDBRANCH  11  21
ENDBRANCH   1   7
BRANCH   4  31
ATOM     31  S   UNL     1     -13.754 -43.859  27.159  1.00  0.00     0.238 S 
ATOM     32  O   UNL     1     -13.394 -45.141  26.597  1.00  0.00    -0.207 OA
ATOM     33  O   UNL     1     -12.871 -42.718  27.121  1.00  0.00    -0.207 OA
BRANCH  31  34
ATOM     34  N   UNL     1     -14.146 -44.163  28.767  1.00  0.00    -0.225 NA
ATOM     35  H   UNL     1     -13.488 -44.848  29.142  1.00  0.00     0.137 HD
ATOM     36  H   UNL     1     -15.114 -44.456  28.897  1.00  0.00     0.137 HD
ENDBRANCH  31  34
ENDBRANCH   4  31
TORSDOF 7
ENDMDL
MODEL 3
REMARK VINA RESULT:    -9.344      1.311      2.056
REMARK INTER + INTRA:         -14.126
REMARK INTER:                 -13.441
REMARK INTRA:                  -0.685
REMARK UNBOUND:                -1.232
REMARK SMILES COc1ccc([C@@H]2C=C(c3cc(F)cc(F)c3)NN2c2ccc(S(N)(=O)=O)cc2)cc1OC
REMARK SMILES IDX 20 1 21 2 22 3 23 4 28 5 29 6 19 7 18 8 9 9 8 10 7 11 10 13
REMARK SMILES IDX 11 14 17 15 12 16 15 17 14 18 13 19 16 20 6 21 5 22 30 23
REMARK SMILES IDX 4 24 31 25 3 26 32 27 33 28 2 29 1 30 24 31 26 32 27 33
REMARK SMILES IDX 25 34
REMARK H PARENT 18 12 25 35 25 36
ROOT
ATOM      1  C   UNL     1     -18.733 -41.981  26.231  1.00  0.00     0.058 A 
ATOM      2  C   UNL     1     -18.175 -42.084  27.520  1.00  0.00     0.029 A 
ATOM      3  C   UNL     1     -16.885 -42.585  27.729  1.00  0.00     0.024 A 
ATOM      4  C   UNL     1     -16.120 -42.976  26.632  1.00  0.00     0.082 A 
ATOM      5  C   UNL     1     -16.637 -42.884  25.341  1.00  0.00     0.024 A 
ATOM      6  C   UNL     1     -17.930 -42.382  25.149  1.00  0.00     0.029 A 
ENDROOT
BRANCH   1   7
ATOM      7  N   UNL     1     -20.028 -41.454  26.053  1.00  0.00    -0.276 N 
ATOM      8  N   UNL     1     -20.901 -41.256  27.119  1.00  0.00    -0.297 N 
ATOM      9  C   UNL     1     -22.217 -41.390  26.706  1.00  0.00     0.060 C 
ATOM     10  C   UNL     1     -22.254 -41.787  25.425  1.00  0.00     0.033 C 
ATOM     11  C   UNL     1     -20.844 -41.899  24.872  1.00  0.00     0.161 C 
ATOM     12  H   UNL     1     -20.740 -40.412  27.669  1.00  0.00     0.188 HD
BRANCH   9  13
ATOM     13  C   UNL     1     -23.343 -41.105  27.598  1.00  0.00     0.005 A 
ATOM     14  C   UNL     1     -23.615 -39.788  27.999  1.00  0.00     0.049 A 
ATOM     15  C   UNL     1     -24.186 -42.127  28.056  1.00  0.00     0.049 A 
ATOM     16  C   UNL     1     -24.695 -39.517  28.837  1.00  0.00     0.126 A 
ATOM     17  C   UNL     1     -25.259 -41.831  28.893  1.00  0.00     0.126 A 
ATOM     18  C   UNL     1     -25.524 -40.529  29.292  1.00  0.00     0.078 A 
ATOM     19  F   UNL     1     -24.934 -38.253  29.210  1.00  0.00    -0.207 F 
ATOM     20  F   UNL     1     -26.053 -42.823  29.318  1.00  0.00    -0.207 F 
ENDBRANCH   9  13
BRANCH  11  21
ATOM     21  C   UNL     1     -20.659 -41.014  23.652  1.00  0.00    -0.016 A 
ATOM     22  C   UNL     1     -21.682 -40.181  23.177  1.00  0.00     0.010 A 
ATOM     23  C   UNL     1     -19.443 -41.052  22.945  1.00  0.00     0.056 A 
ATOM     24  C   UNL     1     -21.493 -39.391  22.040  1.00  0.00     0.051 A 
ATOM     25  C   UNL     1     -19.243 -40.262  21.806  1.00  0.00     0.161 A 
ATOM     26  C   UNL     1     -20.279 -39.424  21.350  1.00  0.00     0.160 A 
BRANCH  25  27
ATOM     27  O   UNL     1     -18.084 -40.241  21.071  1.00  0.00    -0.493 OA
ATOM     28  C   UNL     1     -16.882 -40.641  21.713  1.00  0.00     0.278 C 
ENDBRANCH  25  27
BRANCH  26  29
ATOM     29  O   UNL     1     -20.005 -38.682  20.227  1.00  0.00    -0.493 OA
ATOM     30  C   UNL     1     -21.008 -38.607  19.224  1.00  0.00     0.278 C 
ENDBRANCH  26  29
ENDBRANCH  11  21
ENDBRANCH   1   7
BRANCH   4  31
ATOM     31  S   UNL     1     -14.485 -43.616  26.870  1.00  0.00     0.238 S 
ATOM     32  O   UNL     1     -14.316 -44.776  26.026  1.00  0.00    -0.207 OA
ATOM     33  O   UNL     1     -13.559 -42.509  26.867  1.00  0.00    -0.207 OA
BRANCH  31  34
ATOM     34  N   UNL     1     -14.584 -44.211  28.442  1.00  0.00    -0.225 NA
ATOM     35  H   UNL     1     -14.553 -43.425  29.093  1.00  0.00     0.137 HD
ATOM     36  H   UNL     1     -13.872 -44.909  28.654  1.00  0.00     0.137 HD
ENDBRANCH  31  34
ENDBRANCH   4  31
TORSDOF 7
ENDMDL
MODEL 4
REMARK VINA RESULT:    -9.132      3.629      6.238
REMARK INTER + INTRA:         -13.834
REMARK INTER:                 -12.684
REMARK INTRA:                  -1.150
REMARK UNBOUND:                -1.232
REMARK SMILES COc1ccc([C@@H]2C=C(c3cc(F)cc(F)c3)NN2c2ccc(S(N)(=O)=O)cc2)cc1OC
REMARK SMILES IDX 20 1 21 2 22 3 23 4 28 5 29 6 19 7 18 8 9 9 8 10 7 11 10 13
REMARK SMILES IDX 11 14 17 15 12 16 15 17 14 18 13 19 16 20 6 21 5 22 30 23
REMARK SMILES IDX 4 24 31 25 3 26 32 27 33 28 2 29 1 30 24 31 26 32 27 33
REMARK SMILES IDX 25 34
REMARK H PARENT 18 12 25 35 25 36
ROOT
ATOM      1  C   UNL     1     -18.110 -42.418  25.553  1.00  0.00     0.058 A 
ATOM      2  C   UNL     1     -17.054 -42.861  24.733  1.00  0.00     0.029 A 
ATOM      3  C   UNL     1     -15.816 -43.242  25.263  1.00  0.00     0.024 A 
ATOM      4  C   UNL     1     -15.625 -43.202  26.643  1.00  0.00     0.082 A 
ATOM      5  C   UNL     1     -16.648 -42.774  27.486  1.00  0.00     0.024 A 
ATOM      6  C   UNL     1     -17.880 -42.394  26.940  1.00  0.00     0.029 A 
ENDROOT
BRANCH   1   7
ATOM      7  N   UNL     1     -19.351 -42.059  24.990  1.00  0.00    -0.276 N 
ATOM      8  N   UNL     1     -19.445 -41.358  23.791  1.00  0.00    -0.297 N 
ATOM      9  C   UNL     1     -20.586 -40.570  23.773  1.00  0.00     0.060 C 
ATOM     10  C   UNL     1     -21.197 -40.627  24.966  1.00  0.00     0.033 C 
ATOM     11  C   UNL     1     -20.451 -41.573  25.891  1.00  0.00     0.161 C 
ATOM     12  H   UNL     1     -19.334 -41.917  22.944  1.00  0.00     0.188 HD
BRANCH   9  13
ATOM     13  C   UNL     1     -20.997 -39.828  22.580  1.00  0.00     0.005 A 
ATOM     14  C   UNL     1     -20.079 -39.577  21.549  1.00  0.00     0.049 A 
ATOM     15  C   UNL     1     -22.313 -39.368  22.426  1.00  0.00     0.049 A 
ATOM     16  C   UNL     1     -20.476 -38.881  20.408  1.00  0.00     0.126 A 
ATOM     17  C   UNL     1     -22.685 -38.675  21.276  1.00  0.00     0.126 A 
ATOM     18  C   UNL     1     -21.776 -38.424  20.260  1.00  0.00     0.078 A 
ATOM     19  F   UNL     1     -19.583 -38.651  19.437  1.00  0.00    -0.207 F 
ATOM     20  F   UNL     1     -23.948 -38.246  21.149  1.00  0.00    -0.207 F 
ENDBRANCH   9  13
BRANCH  11  21
ATOM     21  C   UNL     1     -21.355 -42.690  26.383  1.00  0.00    -0.016 A 
ATOM     22  C   UNL     1     -21.005 -44.041  26.255  1.00  0.00     0.010 A 
ATOM     23  C   UNL     1     -22.603 -42.372  26.951  1.00  0.00     0.056 A 
ATOM     24  C   UNL     1     -21.863 -45.050  26.698  1.00  0.00     0.051 A 
ATOM     25  C   UNL     1     -23.469 -43.376  27.401  1.00  0.00     0.161 A 
ATOM     26  C   UNL     1     -23.095 -44.728  27.273  1.00  0.00     0.160 A 
BRANCH  25  27
ATOM     27  O   UNL     1     -24.696 -43.143  27.971  1.00  0.00    -0.493 OA
ATOM     28  C   UNL     1     -24.788 -42.127  28.959  1.00  0.00     0.278 C 
ENDBRANCH  25  27
BRANCH  26  29
ATOM     29  O   UNL     1     -24.000 -45.652  27.737  1.00  0.00    -0.493 OA
ATOM     30  C   UNL     1     -24.756 -46.375  26.777  1.00  0.00     0.278 C 
ENDBRANCH  26  29
ENDBRANCH  11  21
ENDBRANCH   1   7
BRANCH   4  31
ATOM     31  S   UNL     1     -14.065 -43.678  27.338  1.00  0.00     0.238 S 
ATOM     32  O   UNL     1     -13.063 -42.727  26.916  1.00  0.00    -0.207 OA
ATOM     33  O   UNL     1     -14.273 -44.027  28.723  1.00  0.00    -0.207 OA
BRANCH  31  34
ATOM     34  N   UNL     1     -13.735 -45.091  26.486  1.00  0.00    -0.225 NA
ATOM     35  H   UNL     1     -14.467 -45.233  25.788  1.00  0.00     0.137 HD
ATOM     36  H   UNL     1     -13.621 -45.907  27.087  1.00  0.00     0.137 HD
ENDBRANCH  31  34
ENDBRANCH   4  31
TORSDOF 7
ENDMDL
MODEL 5
REMARK VINA RESULT:    -8.883      4.872      8.678
REMARK INTER + INTRA:         -13.491
REMARK INTER:                 -12.283
REMARK INTRA:                  -1.208
REMARK UNBOUND:                -1.232
REMARK SMILES COc1ccc([C@@H]2C=C(c3cc(F)cc(F)c3)NN2c2ccc(S(N)(=O)=O)cc2)cc1OC
REMARK SMILES IDX 20 1 21 2 22 3 23 4 28 5 29 6 19 7 18 8 9 9 8 10 7 11 10 13
REMARK SMILES IDX 11 14 17 15 12 16 15 17 14 18 13 19 16 20 6 21 5 22 30 23
REMARK SMILES IDX 4 24 31 25 3 26 32 27 33 28 2 29 1 30 24 31 26 32 27 33
REMARK SMILES IDX 25 34
REMARK H PARENT 18 12 25 35 25 36
ROOT
ATOM      1  C   UNL     1     -20.784 -40.405  22.625  1.00  0.00     0.058 A 
ATOM      2  C   UNL     1     -20.160 -39.280  22.052  1.00  0.00     0.029 A 
ATOM      3  C   UNL     1     -20.739 -38.574  20.991  1.00  0.00     0.024 A 
ATOM      4  C   UNL     1     -21.978 -38.980  20.498  1.00  0.00     0.082 A 
ATOM      5  C   UNL     1     -22.627 -40.085  21.044  1.00  0.00     0.024 A 
ATOM      6  C   UNL     1     -22.034 -40.782  22.103  1.00  0.00     0.029 A 
ENDROOT
BRANCH   1   7
ATOM      7  N   UNL     1     -20.183 -41.083  23.705  1.00  0.00    -0.276 N 
ATOM      8  N   UNL     1     -18.815 -41.331  23.755  1.00  0.00    -0.297 N 
ATOM      9  C   UNL     1     -18.553 -42.495  24.460  1.00  0.00     0.060 C 
ATOM     10  C   UNL     1     -19.706 -43.101  24.783  1.00  0.00     0.033 C 
ATOM     11  C   UNL     1     -20.884 -42.269  24.306  1.00  0.00     0.161 C 
ATOM     12  H   UNL     1     -18.236 -40.546  24.054  1.00  0.00     0.188 HD
BRANCH   9  13
ATOM     13  C   UNL     1     -17.189 -42.922  24.775  1.00  0.00     0.005 A 
ATOM     14  C   UNL     1     -16.683 -42.776  26.076  1.00  0.00     0.049 A 
ATOM     15  C   UNL     1     -16.363 -43.500  23.801  1.00  0.00     0.049 A 
ATOM     16  C   UNL     1     -15.388 -43.195  26.378  1.00  0.00     0.126 A 
ATOM     17  C   UNL     1     -15.072 -43.911  24.127  1.00  0.00     0.126 A 
ATOM     18  C   UNL     1     -14.572 -43.763  25.413  1.00  0.00     0.078 A 
ATOM     19  F   UNL     1     -14.925 -43.044  27.625  1.00  0.00    -0.207 F 
ATOM     20  F   UNL     1     -14.301 -44.463  23.182  1.00  0.00    -0.207 F 
ENDBRANCH   9  13
BRANCH  11  21
ATOM     21  C   UNL     1     -21.800 -41.898  25.459  1.00  0.00    -0.016 A 
ATOM     22  C   UNL     1     -22.038 -40.565  25.821  1.00  0.00     0.010 A 
ATOM     23  C   UNL     1     -22.403 -42.917  26.220  1.00  0.00     0.056 A 
ATOM     24  C   UNL     1     -22.869 -40.251  26.898  1.00  0.00     0.051 A 
ATOM     25  C   UNL     1     -23.240 -42.612  27.301  1.00  0.00     0.161 A 
ATOM     26  C   UNL     1     -23.475 -41.266  27.643  1.00  0.00     0.160 A 
BRANCH  25  27
ATOM     27  O   UNL     1     -23.867 -43.550  28.084  1.00  0.00    -0.493 OA
ATOM     28  C   UNL     1     -23.118 -44.686  28.490  1.00  0.00     0.278 C 
ENDBRANCH  25  27
BRANCH  26  29
ATOM     29  O   UNL     1     -24.306 -41.051  28.715  1.00  0.00    -0.493 OA
ATOM     30  C   UNL     1     -24.701 -39.715  28.987  1.00  0.00     0.278 C 
ENDBRANCH  26  29
ENDBRANCH  11  21
ENDBRANCH   1   7
BRANCH   4  31
ATOM     31  S   UNL     1     -22.731 -38.104  19.154  1.00  0.00     0.238 S 
ATOM     32  O   UNL     1     -22.070 -38.484  17.927  1.00  0.00    -0.207 OA
ATOM     33  O   UNL     1     -24.163 -38.164  19.318  1.00  0.00    -0.207 OA
BRANCH  31  34
ATOM     34  N   UNL     1     -22.236 -36.525  19.464  1.00  0.00    -0.225 NA
ATOM     35  H   UNL     1     -21.447 -36.302  18.854  1.00  0.00     0.137 HD
ATOM     36  H   UNL     1     -22.017 -36.355  20.445  1.00  0.00     0.137 HD
ENDBRANCH  31  34
ENDBRANCH   4  31
TORSDOF 7
ENDMDL
MODEL 6
REMARK VINA RESULT:    -8.829      1.345      2.427
REMARK INTER + INTRA:         -13.416
REMARK INTER:                 -12.091
REMARK INTRA:                  -1.324
REMARK UNBOUND:                -1.232
REMARK SMILES COc1ccc([C@@H]2C=C(c3cc(F)cc(F)c3)NN2c2ccc(S(N)(=O)=O)cc2)cc1OC
REMARK SMILES IDX 20 1 21 2 22 3 23 4 28 5 29 6 19 7 18 8 9 9 8 10 7 11 10 13
REMARK SMILES IDX 11 14 17 15 12 16 15 17 14 18 13 19 16 20 6 21 5 22 30 23
REMARK SMILES IDX 4 24 31 25 3 26 32 27 33 28 2 29 1 30 24 31 26 32 27 33
REMARK SMILES IDX 25 34
REMARK H PARENT 18 12 25 35 25 36
ROOT
ATOM      1  C   UNL     1     -19.163 -41.945  26.213  1.00  0.00     0.058 A 
ATOM      2  C   UNL     1     -18.607 -42.081  27.500  1.00  0.00     0.029 A 
ATOM      3  C   UNL     1     -17.289 -42.510  27.693  1.00  0.00     0.024 A 
ATOM      4  C   UNL     1     -16.494 -42.792  26.584  1.00  0.00     0.082 A 
ATOM      5  C   UNL     1     -17.009 -42.663  25.296  1.00  0.00     0.024 A 
ATOM      6  C   UNL     1     -18.330 -42.235  25.119  1.00  0.00     0.029 A 
ENDROOT
BRANCH   1   7
ATOM      7  N   UNL     1     -20.488 -41.492  26.052  1.00  0.00    -0.276 N 
ATOM      8  N   UNL     1     -21.192 -40.877  27.083  1.00  0.00    -0.297 N 
ATOM      9  C   UNL     1     -22.551 -41.124  26.965  1.00  0.00     0.060 C 
ATOM     10  C   UNL     1     -22.771 -41.982  25.957  1.00  0.00     0.033 C 
ATOM     11  C   UNL     1     -21.460 -42.335  25.275  1.00  0.00     0.161 C 
ATOM     12  H   UNL     1     -20.978 -39.891  27.235  1.00  0.00     0.188 HD
BRANCH   9  13
ATOM     13  C   UNL     1     -23.535 -40.489  27.843  1.00  0.00     0.005 A 
ATOM     14  C   UNL     1     -23.551 -39.095  27.999  1.00  0.00     0.049 A 
ATOM     15  C   UNL     1     -24.492 -41.247  28.532  1.00  0.00     0.049 A 
ATOM     16  C   UNL     1     -24.497 -38.491  28.825  1.00  0.00     0.126 A 
ATOM     17  C   UNL     1     -25.428 -40.620  29.353  1.00  0.00     0.126 A 
ATOM     18  C   UNL     1     -25.440 -39.242  29.508  1.00  0.00     0.078 A 
ATOM     19  F   UNL     1     -24.493 -37.159  28.961  1.00  0.00    -0.207 F 
ATOM     20  F   UNL     1     -26.335 -41.363  30.000  1.00  0.00    -0.207 F 
ENDBRANCH   9  13
BRANCH  11  21
ATOM     21  C   UNL     1     -21.498 -41.992  23.796  1.00  0.00    -0.016 A 
ATOM     22  C   UNL     1     -21.429 -42.978  22.802  1.00  0.00     0.010 A 
ATOM     23  C   UNL     1     -21.565 -40.644  23.399  1.00  0.00     0.056 A 
ATOM     24  C   UNL     1     -21.446 -42.634  21.449  1.00  0.00     0.051 A 
ATOM     25  C   UNL     1     -21.585 -40.289  22.044  1.00  0.00     0.161 A 
ATOM     26  C   UNL     1     -21.525 -41.295  21.060  1.00  0.00     0.160 A 
BRANCH  25  27
ATOM     27  O   UNL     1     -21.656 -38.998  21.582  1.00  0.00    -0.493 OA
ATOM     28  C   UNL     1     -22.909 -38.334  21.652  1.00  0.00     0.278 C 
ENDBRANCH  25  27
BRANCH  26  29
ATOM     29  O   UNL     1     -21.549 -40.866  19.756  1.00  0.00    -0.493 OA
ATOM     30  C   UNL     1     -22.739 -41.077  19.012  1.00  0.00     0.278 C 
ENDBRANCH  26  29
ENDBRANCH  11  21
ENDBRANCH   1   7
BRANCH   4  31
ATOM     31  S   UNL     1     -14.823 -43.338  26.803  1.00  0.00     0.238 S 
ATOM     32  O   UNL     1     -13.941 -42.207  26.626  1.00  0.00    -0.207 OA
ATOM     33  O   UNL     1     -14.772 -44.190  27.967  1.00  0.00    -0.207 OA
BRANCH  31  34
ATOM     34  N   UNL     1     -14.603 -44.301  25.440  1.00  0.00    -0.225 NA
ATOM     35  H   UNL     1     -14.215 -43.725  24.690  1.00  0.00     0.137 HD
ATOM     36  H   UNL     1     -15.451 -44.785  25.147  1.00  0.00     0.137 HD
ENDBRANCH  31  34
ENDBRANCH   4  31
TORSDOF 7
ENDMDL
MODEL 7
REMARK VINA RESULT:    -8.575      3.613      6.262
REMARK INTER + INTRA:         -13.066
REMARK INTER:                 -11.667
REMARK INTRA:                  -1.399
REMARK UNBOUND:                -1.232
REMARK SMILES COc1ccc([C@@H]2C=C(c3cc(F)cc(F)c3)NN2c2ccc(S(N)(=O)=O)cc2)cc1OC
REMARK SMILES IDX 20 1 21 2 22 3 23 4 28 5 29 6 19 7 18 8 9 9 8 10 7 11 10 13
REMARK SMILES IDX 11 14 17 15 12 16 15 17 14 18 13 19 16 20 6 21 5 22 30 23
REMARK SMILES IDX 4 24 31 25 3 26 32 27 33 28 2 29 1 30 24 31 26 32 27 33
REMARK SMILES IDX 25 34
REMARK H PARENT 18 12 25 35 25 36
ROOT
ATOM      1  C   UNL     1     -22.057 -44.346  25.066  1.00  0.00     0.058 A 
ATOM      2  C   UNL     1     -22.754 -44.222  23.849  1.00  0.00     0.029 A 
ATOM      3  C   UNL     1     -23.045 -45.332  23.047  1.00  0.00     0.024 A 
ATOM      4  C   UNL     1     -22.655 -46.600  23.472  1.00  0.00     0.082 A 
ATOM      5  C   UNL     1     -21.968 -46.762  24.673  1.00  0.00     0.024 A 
ATOM      6  C   UNL     1     -21.682 -45.642  25.462  1.00  0.00     0.029 A 
ENDROOT
BRANCH   1   7
ATOM      7  N   UNL     1     -21.796 -43.211  25.859  1.00  0.00    -0.276 N 
ATOM      8  N   UNL     1     -22.780 -42.610  26.639  1.00  0.00    -0.297 N 
ATOM      9  C   UNL     1     -22.541 -41.251  26.768  1.00  0.00     0.060 C 
ATOM     10  C   UNL     1     -21.497 -40.898  26.003  1.00  0.00     0.033 C 
ATOM     11  C   UNL     1     -20.919 -42.121  25.311  1.00  0.00     0.161 C 
ATOM     12  H   UNL     1     -22.975 -43.067  27.531  1.00  0.00     0.188 HD
BRANCH   9  13
ATOM     13  C   UNL     1     -23.350 -40.400  27.643  1.00  0.00     0.005 A 
ATOM     14  C   UNL     1     -23.218 -39.004  27.595  1.00  0.00     0.049 A 
ATOM     15  C   UNL     1     -24.284 -40.949  28.532  1.00  0.00     0.049 A 
ATOM     16  C   UNL     1     -23.998 -38.195  28.419  1.00  0.00     0.126 A 
ATOM     17  C   UNL     1     -25.052 -40.120  29.346  1.00  0.00     0.126 A 
ATOM     18  C   UNL     1     -24.918 -38.740  29.300  1.00  0.00     0.078 A 
ATOM     19  F   UNL     1     -23.853 -36.865  28.358  1.00  0.00    -0.207 F 
ATOM     20  F   UNL     1     -25.941 -40.666  30.187  1.00  0.00    -0.207 F 
ENDBRANCH   9  13
BRANCH  11  21
ATOM     21  C   UNL     1     -19.451 -42.307  25.655  1.00  0.00    -0.016 A 
ATOM     22  C   UNL     1     -18.987 -42.261  26.977  1.00  0.00     0.010 A 
ATOM     23  C   UNL     1     -18.515 -42.493  24.622  1.00  0.00     0.056 A 
ATOM     24  C   UNL     1     -17.629 -42.415  27.265  1.00  0.00     0.051 A 
ATOM     25  C   UNL     1     -17.152 -42.652  24.901  1.00  0.00     0.161 A 
ATOM     26  C   UNL     1     -16.705 -42.612  26.236  1.00  0.00     0.160 A 
BRANCH  25  27
ATOM     27  O   UNL     1     -16.183 -42.844  23.947  1.00  0.00    -0.493 OA
ATOM     28  C   UNL     1     -15.895 -41.768  23.065  1.00  0.00     0.278 C 
ENDBRANCH  25  27
BRANCH  26  29
ATOM     29  O   UNL     1     -15.355 -42.774  26.426  1.00  0.00    -0.493 OA
ATOM     30  C   UNL     1     -14.921 -43.922  27.140  1.00  0.00     0.278 C 
ENDBRANCH  26  29
ENDBRANCH  11  21
ENDBRANCH   1   7
BRANCH   4  31
ATOM     31  S   UNL     1     -23.010 -48.021  22.474  1.00  0.00     0.238 S 
ATOM     32  O   UNL     1     -24.158 -48.700  23.029  1.00  0.00    -0.207 OA
ATOM     33  O   UNL     1     -22.931 -47.633  21.086  1.00  0.00    -0.207 OA
BRANCH  31  34
ATOM     34  N   UNL     1     -21.691 -49.010  22.816  1.00  0.00    -0.225 NA
ATOM     35  H   UNL     1     -20.948 -48.437  23.220  1.00  0.00     0.137 HD
ATOM     36  H   UNL     1     -21.366 -49.541  22.009  1.00  0.00     0.137 HD
ENDBRANCH  31  34
ENDBRANCH   4  31
TORSDOF 7
ENDMDL
MODEL 8
REMARK VINA RESULT:    -8.305      2.661      3.942
REMARK INTER + INTRA:         -12.692
REMARK INTER:                 -11.281
REMARK INTRA:                  -1.412
REMARK UNBOUND:                -1.232
REMARK SMILES COc1ccc([C@@H]2C=C(c3cc(F)cc(F)c3)NN2c2ccc(S(N)(=O)=O)cc2)cc1OC
REMARK SMILES IDX 20 1 21 2 22 3 23 4 28 5 29 6 19 7 18 8 9 9 8 10 7 11 10 13
REMARK SMILES IDX 11 14 17 15 12 16 15 17 14 18 13 19 16 20 6 21 5 22 30 23
REMARK SMILES IDX 4 24 31 25 3 26 32 27 33 28 2 29 1 30 24 31 26 32 27 33
REMARK SMILES IDX 25 34
REMARK H PARENT 18 12 25 35 25 36
ROOT
ATOM      1  C   UNL     1     -19.243 -42.595  25.243  1.00  0.00     0.058 A 
ATOM      2  C   UNL     1     -18.343 -42.483  26.320  1.00  0.00     0.029 A 
ATOM      3  C   UNL     1     -16.957 -42.502  26.131  1.00  0.00     0.024 A 
ATOM      4  C   UNL     1     -16.447 -42.614  24.839  1.00  0.00     0.082 A 
ATOM      5  C   UNL     1     -17.307 -42.721  23.748  1.00  0.00     0.024 A 
ATOM      6  C   UNL     1     -18.691 -42.703  23.954  1.00  0.00     0.029 A 
ENDROOT
BRANCH   1   7
ATOM      7  N   UNL     1     -20.634 -42.553  25.465  1.00  0.00    -0.276 N 
ATOM      8  N   UNL     1     -21.271 -41.421  25.964  1.00  0.00    -0.297 N 
ATOM      9  C   UNL     1     -22.391 -41.772  26.700  1.00  0.00     0.060 C 
ATOM     10  C   UNL     1     -22.461 -43.108  26.813  1.00  0.00     0.033 C 
ATOM     11  C   UNL     1     -21.318 -43.756  26.051  1.00  0.00     0.161 C 
ATOM     12  H   UNL     1     -21.457 -40.685  25.282  1.00  0.00     0.188 HD
BRANCH   9  13
ATOM     13  C   UNL     1     -23.318 -40.771  27.229  1.00  0.00     0.005 A 
ATOM     14  C   UNL     1     -23.346 -39.475  26.690  1.00  0.00     0.049 A 
ATOM     15  C   UNL     1     -24.210 -41.079  28.267  1.00  0.00     0.049 A 
ATOM     16  C   UNL     1     -24.239 -38.527  27.186  1.00  0.00     0.126 A 
ATOM     17  C   UNL     1     -25.092 -40.113  28.746  1.00  0.00     0.126 A 
ATOM     18  C   UNL     1     -25.116 -38.832  28.214  1.00  0.00     0.078 A 
ATOM     19  F   UNL     1     -24.247 -37.296  26.659  1.00  0.00    -0.207 F 
ATOM     20  F   UNL     1     -25.937 -40.430  29.736  1.00  0.00    -0.207 F 
ENDBRANCH   9  13
BRANCH  11  21
ATOM     21  C   UNL     1     -21.835 -44.721  24.997  1.00  0.00    -0.016 A 
ATOM     22  C   UNL     1     -21.834 -46.108  25.196  1.00  0.00     0.010 A 
ATOM     23  C   UNL     1     -22.295 -44.220  23.766  1.00  0.00     0.056 A 
ATOM     24  C   UNL     1     -22.296 -46.975  24.203  1.00  0.00     0.051 A 
ATOM     25  C   UNL     1     -22.764 -45.080  22.766  1.00  0.00     0.161 A 
ATOM     26  C   UNL     1     -22.765 -46.471  22.986  1.00  0.00     0.160 A 
BRANCH  25  27
ATOM     27  O   UNL     1     -23.234 -44.665  21.544  1.00  0.00    -0.493 OA
ATOM     28  C   UNL     1     -22.473 -43.702  20.831  1.00  0.00     0.278 C 
ENDBRANCH  25  27
BRANCH  26  29
ATOM     29  O   UNL     1     -23.238 -47.246  21.957  1.00  0.00    -0.493 OA
ATOM     30  C   UNL     1     -22.754 -48.577  21.855  1.00  0.00     0.278 C 
ENDBRANCH  26  29
ENDBRANCH  11  21
ENDBRANCH   1   7
BRANCH   4  31
ATOM     31  S   UNL     1     -14.695 -42.642  24.573  1.00  0.00     0.238 S 
ATOM     32  O   UNL     1     -14.359 -41.622  23.607  1.00  0.00    -0.207 OA
ATOM     33  O   UNL     1     -14.042 -42.745  25.856  1.00  0.00    -0.207 OA
BRANCH  31  34
ATOM     34  N   UNL     1     -14.502 -44.108  23.769  1.00  0.00    -0.225 NA
ATOM     35  H   UNL     1     -13.822 -44.675  24.279  1.00  0.00     0.137 HD
ATOM     36  H   UNL     1     -14.246 -43.999  22.788  1.00  0.00     0.137 HD
ENDBRANCH  31  34
ENDBRANCH   4  31
TORSDOF 7
ENDMDL
MODEL 9
REMARK VINA RESULT:    -8.282      3.663      6.354
REMARK INTER + INTRA:         -12.661
REMARK INTER:                 -11.360
REMARK INTRA:                  -1.301
REMARK UNBOUND:                -1.232
REMARK SMILES COc1ccc([C@@H]2C=C(c3cc(F)cc(F)c3)NN2c2ccc(S(N)(=O)=O)cc2)cc1OC
REMARK SMILES IDX 20 1 21 2 22 3 23 4 28 5 29 6 19 7 18 8 9 9 8 10 7 11 10 13
REMARK SMILES IDX 11 14 17 15 12 16 15 17 14 18 13 19 16 20 6 21 5 22 30 23
REMARK SMILES IDX 4 24 31 25 3 26 32 27 33 28 2 29 1 30 24 31 26 32 27 33
REMARK SMILES IDX 25 34
REMARK H PARENT 18 12 25 35 25 36
ROOT
ATOM      1  C   UNL     1     -18.815 -42.104  24.734  1.00  0.00     0.058 A 
ATOM      2  C   UNL     1     -17.697 -42.506  23.978  1.00  0.00     0.029 A 
ATOM      3  C   UNL     1     -16.476 -42.834  24.579  1.00  0.00     0.024 A 
ATOM      4  C   UNL     1     -16.366 -42.785  25.967  1.00  0.00     0.082 A 
ATOM      5  C   UNL     1     -17.452 -42.397  26.748  1.00  0.00     0.024 A 
ATOM      6  C   UNL     1     -18.665 -42.069  26.132  1.00  0.00     0.029 A 
ENDROOT
BRANCH   1   7
ATOM      7  N   UNL     1     -20.035 -41.798  24.100  1.00  0.00    -0.276 N 
ATOM      8  N   UNL     1     -20.097 -41.393  22.770  1.00  0.00    -0.297 N 
ATOM      9  C   UNL     1     -21.178 -40.549  22.564  1.00  0.00     0.060 C 
ATOM     10  C   UNL     1     -21.774 -40.279  23.736  1.00  0.00     0.033 C 
ATOM     11  C   UNL     1     -21.083 -41.034  24.859  1.00  0.00     0.161 C 
ATOM     12  H   UNL     1     -20.039 -42.141  22.078  1.00  0.00     0.188 HD
BRANCH   9  13
ATOM     13  C   UNL     1     -21.553 -40.080  21.229  1.00  0.00     0.005 A 
ATOM     14  C   UNL     1     -21.189 -38.794  20.801  1.00  0.00     0.049 A 
ATOM     15  C   UNL     1     -22.263 -40.900  20.341  1.00  0.00     0.049 A 
ATOM     16  C   UNL     1     -21.535 -38.353  19.525  1.00  0.00     0.126 A 
ATOM     17  C   UNL     1     -22.598 -40.437  19.071  1.00  0.00     0.126 A 
ATOM     18  C   UNL     1     -22.241 -39.164  18.651  1.00  0.00     0.078 A 
ATOM     19  F   UNL     1     -21.180 -37.121  19.139  1.00  0.00    -0.207 F 
ATOM     20  F   UNL     1     -23.275 -41.238  18.238  1.00  0.00    -0.207 F 
ENDBRANCH   9  13
BRANCH  11  21
ATOM     21  C   UNL     1     -22.058 -41.934  25.599  1.00  0.00    -0.016 A 
ATOM     22  C   UNL     1     -22.672 -41.539  26.795  1.00  0.00     0.010 A 
ATOM     23  C   UNL     1     -22.331 -43.220  25.098  1.00  0.00     0.056 A 
ATOM     24  C   UNL     1     -23.550 -42.393  27.466  1.00  0.00     0.051 A 
ATOM     25  C   UNL     1     -23.212 -44.083  25.762  1.00  0.00     0.161 A 
ATOM     26  C   UNL     1     -23.827 -43.665  26.958  1.00  0.00     0.160 A 
BRANCH  25  27
ATOM     27  O   UNL     1     -23.531 -45.347  25.331  1.00  0.00    -0.493 OA
ATOM     28  C   UNL     1     -22.486 -46.156  24.810  1.00  0.00     0.278 C 
ENDBRANCH  25  27
BRANCH  26  29
ATOM     29  O   UNL     1     -24.676 -44.569  27.549  1.00  0.00    -0.493 OA
ATOM     30  C   UNL     1     -26.050 -44.222  27.641  1.00  0.00     0.278 C 
ENDBRANCH  26  29
ENDBRANCH  11  21
ENDBRANCH   1   7
BRANCH   4  31
ATOM     31  S   UNL     1     -14.831 -43.195  26.752  1.00  0.00     0.238 S 
ATOM     32  O   UNL     1     -13.893 -42.120  26.522  1.00  0.00    -0.207 OA
ATOM     33  O   UNL     1     -15.117 -43.709  28.069  1.00  0.00    -0.207 OA
BRANCH  31  34
ATOM     34  N   UNL     1     -14.296 -44.474  25.796  1.00  0.00    -0.225 NA
ATOM     35  H   UNL     1     -14.407 -45.344  26.319  1.00  0.00     0.137 HD
ATOM     36  H   UNL     1     -13.342 -44.353  25.457  1.00  0.00     0.137 HD
ENDBRANCH  31  34
ENDBRANCH   4  31
TORSDOF 7
ENDMDL
