MODEL 1
REMARK VINA RESULT:   -10.815      0.000      0.000
REMARK INTER + INTRA:         -13.369
REMARK INTER:                 -12.711
REMARK INTRA:                  -0.658
REMARK UNBOUND:                -0.658
REMARK SMILES C[n+]1ccc2c3ccccc3n(CCc3ccccc3)c2c1
REMARK SMILES IDX 13 1 12 2 2 3 3 4 22 5 4 6 21 7 5 8 6 9 11 10 7 11 10 12
REMARK SMILES IDX 8 13 9 14 1 15 14 16 15 17 16 18 20 19 17 20 19 21 18 22
REMARK H PARENT
ROOT
ATOM      1  C   UNL     1     -11.233 -46.363  30.417  1.00  0.00     0.128 C 
ENDROOT
BRANCH   1   2
ATOM      2  N   UNL     1     -10.753 -45.286  31.276  1.00  0.00    -0.335 N 
ATOM      3  N   UNL     1     -13.428 -43.103  32.578  1.00  0.00    -0.206 N 
ATOM      4  C   UNL     1     -12.641 -42.270  33.288  1.00  0.00     0.308 A 
ATOM      5  C   UNL     1     -12.928 -44.142  31.879  1.00  0.00     0.334 A 
ATOM      6  C   UNL     1     -11.263 -42.431  33.325  1.00  0.00     0.081 A 
ATOM      7  C   UNL     1     -11.551 -44.334  31.888  1.00  0.00     0.114 A 
ATOM      8  C   UNL     1     -10.701 -43.494  32.603  1.00  0.00     0.020 A 
ATOM      9  C   UNL     1      -9.364 -43.955  32.413  1.00  0.00     0.008 A 
ATOM     10  C   UNL     1      -9.421 -45.074  31.580  1.00  0.00     0.049 A 
ATOM     11  C   UNL     1      -8.107 -43.516  32.879  1.00  0.00     0.011 A 
ATOM     12  C   UNL     1      -8.264 -45.773  31.198  1.00  0.00     0.027 A 
ATOM     13  C   UNL     1      -6.951 -44.206  32.502  1.00  0.00     0.001 A 
ATOM     14  C   UNL     1      -7.031 -45.318  31.673  1.00  0.00     0.002 A 
ATOM     15  C   UNL     1     -14.886 -42.878  32.588  1.00  0.00     0.439 C 
ENDBRANCH   1   2
BRANCH   1  16
ATOM     16  C   UNL     1     -10.775 -46.187  28.969  1.00  0.00     0.057 C 
BRANCH  16  17
ATOM     17  C   UNL     1     -11.719 -45.296  28.202  1.00  0.00    -0.046 A 
ATOM     18  C   UNL     1     -11.450 -43.929  28.056  1.00  0.00     0.004 A 
ATOM     19  C   UNL     1     -12.873 -45.830  27.610  1.00  0.00     0.004 A 
ATOM     20  C   UNL     1     -12.317 -43.112  27.328  1.00  0.00     0.000 A 
ATOM     21  C   UNL     1     -13.737 -45.011  26.882  1.00  0.00     0.000 A 
ATOM     22  C   UNL     1     -13.457 -43.654  26.741  1.00  0.00     0.000 A 
ENDBRANCH  16  17
ENDBRANCH   1  16
TORSDOF 3
ENDMDL
MODEL 2
REMARK VINA RESULT:   -10.233      0.962      4.118
REMARK INTER + INTRA:         -12.685
REMARK INTER:                 -12.148
REMARK INTRA:                  -0.537
REMARK UNBOUND:                -0.658
REMARK SMILES C[n+]1ccc2c3ccccc3n(CCc3ccccc3)c2c1
REMARK SMILES IDX 13 1 12 2 2 3 3 4 22 5 4 6 21 7 5 8 6 9 11 10 7 11 10 12
REMARK SMILES IDX 8 13 9 14 1 15 14 16 15 17 16 18 20 19 17 20 19 21 18 22
REMARK H PARENT
ROOT
ATOM      1  C   UNL     1     -12.366 -46.158  30.516  1.00  0.00     0.128 C 
ENDROOT
BRANCH   1   2
ATOM      2  N   UNL     1     -11.936 -45.050  31.363  1.00  0.00    -0.335 N 
ATOM      3  N   UNL     1      -8.281 -44.842  31.819  1.00  0.00    -0.206 N 
ATOM      4  C   UNL     1      -8.267 -43.757  32.618  1.00  0.00     0.308 A 
ATOM      5  C   UNL     1      -9.425 -45.361  31.330  1.00  0.00     0.334 A 
ATOM      6  C   UNL     1      -9.442 -43.121  32.994  1.00  0.00     0.081 A 
ATOM      7  C   UNL     1     -10.624 -44.754  31.688  1.00  0.00     0.114 A 
ATOM      8  C   UNL     1     -10.656 -43.635  32.517  1.00  0.00     0.020 A 
ATOM      9  C   UNL     1     -12.020 -43.254  32.689  1.00  0.00     0.008 A 
ATOM     10  C   UNL     1     -12.801 -44.153  31.961  1.00  0.00     0.049 A 
ATOM     11  C   UNL     1     -12.660 -42.220  33.405  1.00  0.00     0.011 A 
ATOM     12  C   UNL     1     -14.202 -44.053  31.919  1.00  0.00     0.027 A 
ATOM     13  C   UNL     1     -14.054 -42.114  33.369  1.00  0.00     0.001 A 
ATOM     14  C   UNL     1     -14.812 -43.019  32.636  1.00  0.00     0.002 A 
ATOM     15  C   UNL     1      -6.995 -45.466  31.452  1.00  0.00     0.439 C 
ENDBRANCH   1   2
BRANCH   1  16
ATOM     16  C   UNL     1     -11.654 -46.154  29.163  1.00  0.00     0.057 C 
BRANCH  16  17
ATOM     17  C   UNL     1     -12.250 -45.127  28.236  1.00  0.00    -0.046 A 
ATOM     18  C   UNL     1     -13.407 -45.416  27.499  1.00  0.00     0.004 A 
ATOM     19  C   UNL     1     -11.663 -43.860  28.111  1.00  0.00     0.004 A 
ATOM     20  C   UNL     1     -13.966 -44.455  26.656  1.00  0.00     0.000 A 
ATOM     21  C   UNL     1     -12.226 -42.901  27.268  1.00  0.00     0.000 A 
ATOM     22  C   UNL     1     -13.377 -43.198  26.543  1.00  0.00     0.000 A 
ENDBRANCH  16  17
ENDBRANCH   1  16
TORSDOF 3
ENDMDL
MODEL 3
REMARK VINA RESULT:   -10.117      0.716      1.420
REMARK INTER + INTRA:         -12.549
REMARK INTER:                 -11.934
REMARK INTRA:                  -0.615
REMARK UNBOUND:                -0.658
REMARK SMILES C[n+]1ccc2c3ccccc3n(CCc3ccccc3)c2c1
REMARK SMILES IDX 13 1 12 2 2 3 3 4 22 5 4 6 21 7 5 8 6 9 11 10 7 11 10 12
REMARK SMILES IDX 8 13 9 14 1 15 14 16 15 17 16 18 20 19 17 20 19 21 18 22
REMARK H PARENT
ROOT
ATOM      1  C   UNL     1     -11.094 -46.435  30.505  1.00  0.00     0.128 C 
ENDROOT
BRANCH   1   2
ATOM      2  N   UNL     1     -10.616 -45.339  31.341  1.00  0.00    -0.335 N 
ATOM      3  N   UNL     1     -13.292 -43.119  32.577  1.00  0.00    -0.206 N 
ATOM      4  C   UNL     1     -12.507 -42.272  33.272  1.00  0.00     0.308 A 
ATOM      5  C   UNL     1     -12.791 -44.175  31.906  1.00  0.00     0.334 A 
ATOM      6  C   UNL     1     -11.130 -42.436  33.320  1.00  0.00     0.081 A 
ATOM      7  C   UNL     1     -11.414 -44.371  31.926  1.00  0.00     0.114 A 
ATOM      8  C   UNL     1     -10.567 -43.516  32.626  1.00  0.00     0.020 A 
ATOM      9  C   UNL     1      -9.230 -43.985  32.454  1.00  0.00     0.008 A 
ATOM     10  C   UNL     1      -9.285 -45.123  31.647  1.00  0.00     0.049 A 
ATOM     11  C   UNL     1      -7.974 -43.538  32.917  1.00  0.00     0.011 A 
ATOM     12  C   UNL     1      -8.128 -45.834  31.288  1.00  0.00     0.027 A 
ATOM     13  C   UNL     1      -6.817 -44.240  32.563  1.00  0.00     0.001 A 
ATOM     14  C   UNL     1      -6.896 -45.371  31.759  1.00  0.00     0.002 A 
ATOM     15  C   UNL     1     -14.750 -42.891  32.574  1.00  0.00     0.439 C 
ENDBRANCH   1   2
BRANCH   1  16
ATOM     16  C   UNL     1     -10.579 -46.326  29.070  1.00  0.00     0.057 C 
BRANCH  16  17
ATOM     17  C   UNL     1     -10.794 -44.941  28.516  1.00  0.00    -0.046 A 
ATOM     18  C   UNL     1     -12.063 -44.535  28.079  1.00  0.00     0.004 A 
ATOM     19  C   UNL     1      -9.728 -44.032  28.446  1.00  0.00     0.004 A 
ATOM     20  C   UNL     1     -12.261 -43.245  27.586  1.00  0.00     0.000 A 
ATOM     21  C   UNL     1      -9.930 -42.742  27.953  1.00  0.00     0.000 A 
ATOM     22  C   UNL     1     -11.196 -42.349  27.525  1.00  0.00     0.000 A 
ENDBRANCH  16  17
ENDBRANCH   1  16
TORSDOF 3
ENDMDL
MODEL 4
REMARK VINA RESULT:    -9.891      1.560      2.555
REMARK INTER + INTRA:         -12.283
REMARK INTER:                 -12.018
REMARK INTRA:                  -0.265
REMARK UNBOUND:                -0.658
REMARK SMILES C[n+]1ccc2c3ccccc3n(CCc3ccccc3)c2c1
REMARK SMILES IDX 13 1 12 2 2 3 3 4 22 5 4 6 21 7 5 8 6 9 11 10 7 11 10 12
REMARK SMILES IDX 8 13 9 14 1 15 14 16 15 17 16 18 20 19 17 20 19 21 18 22
REMARK H PARENT
ROOT
ATOM      1  C   UNL     1     -13.783 -45.189  29.342  1.00  0.00     0.128 C 
ENDROOT
BRANCH   1   2
ATOM      2  N   UNL     1     -12.808 -44.833  30.367  1.00  0.00    -0.335 N 
ATOM      3  N   UNL     1     -14.063 -42.419  32.859  1.00  0.00    -0.206 N 
ATOM      4  C   UNL     1     -12.941 -42.336  33.601  1.00  0.00     0.308 A 
ATOM      5  C   UNL     1     -14.150 -43.214  31.774  1.00  0.00     0.334 A 
ATOM      6  C   UNL     1     -11.802 -43.060  33.274  1.00  0.00     0.081 A 
ATOM      7  C   UNL     1     -13.029 -43.952  31.412  1.00  0.00     0.114 A 
ATOM      8  C   UNL     1     -11.847 -43.891  32.146  1.00  0.00     0.020 A 
ATOM      9  C   UNL     1     -10.898 -44.757  31.525  1.00  0.00     0.008 A 
ATOM     10  C   UNL     1     -11.520 -45.333  30.416  1.00  0.00     0.049 A 
ATOM     11  C   UNL     1      -9.560 -45.101  31.811  1.00  0.00     0.011 A 
ATOM     12  C   UNL     1     -10.851 -46.246  29.582  1.00  0.00     0.027 A 
ATOM     13  C   UNL     1      -8.888 -46.008  30.986  1.00  0.00     0.001 A 
ATOM     14  C   UNL     1      -9.526 -46.570  29.888  1.00  0.00     0.002 A 
ATOM     15  C   UNL     1     -15.240 -41.627  33.266  1.00  0.00     0.439 C 
ENDBRANCH   1   2
BRANCH   1  16
ATOM     16  C   UNL     1     -13.255 -44.922  27.932  1.00  0.00     0.057 C 
BRANCH  16  17
ATOM     17  C   UNL     1     -14.284 -44.217  27.087  1.00  0.00    -0.046 A 
ATOM     18  C   UNL     1     -15.280 -43.431  27.683  1.00  0.00     0.004 A 
ATOM     19  C   UNL     1     -14.248 -44.326  25.690  1.00  0.00     0.004 A 
ATOM     20  C   UNL     1     -16.218 -42.764  26.894  1.00  0.00     0.000 A 
ATOM     21  C   UNL     1     -15.188 -43.657  24.904  1.00  0.00     0.000 A 
ATOM     22  C   UNL     1     -16.171 -42.875  25.507  1.00  0.00     0.000 A 
ENDBRANCH  16  17
ENDBRANCH   1  16
TORSDOF 3
ENDMDL
MODEL 5
REMARK VINA RESULT:    -9.762      7.254     11.323
REMARK INTER + INTRA:         -12.132
REMARK INTER:                 -11.397
REMARK INTRA:                  -0.734
REMARK UNBOUND:                -0.658
REMARK SMILES C[n+]1ccc2c3ccccc3n(CCc3ccccc3)c2c1
REMARK SMILES IDX 13 1 12 2 2 3 3 4 22 5 4 6 21 7 5 8 6 9 11 10 7 11 10 12
REMARK SMILES IDX 8 13 9 14 1 15 14 16 15 17 16 18 20 19 17 20 19 21 18 22
REMARK H PARENT
ROOT
ATOM      1  C   UNL     1     -17.251 -42.524  22.838  1.00  0.00     0.128 C 
ENDROOT
BRANCH   1   2
ATOM      2  N   UNL     1     -18.443 -41.849  23.341  1.00  0.00    -0.335 N 
ATOM      3  N   UNL     1     -20.154 -39.758  20.829  1.00  0.00    -0.206 N 
ATOM      4  C   UNL     1     -21.151 -39.316  21.621  1.00  0.00     0.308 A 
ATOM      5  C   UNL     1     -19.203 -40.604  21.274  1.00  0.00     0.334 A 
ATOM      6  C   UNL     1     -21.244 -39.702  22.951  1.00  0.00     0.081 A 
ATOM      7  C   UNL     1     -19.260 -41.010  22.603  1.00  0.00     0.114 A 
ATOM      8  C   UNL     1     -20.269 -40.573  23.457  1.00  0.00     0.020 A 
ATOM      9  C   UNL     1     -20.049 -41.166  24.736  1.00  0.00     0.008 A 
ATOM     10  C   UNL     1     -18.902 -41.956  24.641  1.00  0.00     0.049 A 
ATOM     11  C   UNL     1     -20.728 -41.097  25.972  1.00  0.00     0.011 A 
ATOM     12  C   UNL     1     -18.411 -42.685  25.737  1.00  0.00     0.027 A 
ATOM     13  C   UNL     1     -20.244 -41.819  27.067  1.00  0.00     0.001 A 
ATOM     14  C   UNL     1     -19.102 -42.601  26.949  1.00  0.00     0.002 A 
ATOM     15  C   UNL     1     -20.119 -39.314  19.422  1.00  0.00     0.439 C 
ENDBRANCH   1   2
BRANCH   1  16
ATOM     16  C   UNL     1     -15.966 -41.837  23.300  1.00  0.00     0.057 C 
BRANCH  16  17
ATOM     17  C   UNL     1     -15.251 -42.658  24.342  1.00  0.00    -0.046 A 
ATOM     18  C   UNL     1     -14.882 -42.091  25.569  1.00  0.00     0.004 A 
ATOM     19  C   UNL     1     -14.961 -44.009  24.103  1.00  0.00     0.004 A 
ATOM     20  C   UNL     1     -14.238 -42.861  26.538  1.00  0.00     0.000 A 
ATOM     21  C   UNL     1     -14.317 -44.776  25.075  1.00  0.00     0.000 A 
ATOM     22  C   UNL     1     -13.959 -44.202  26.292  1.00  0.00     0.000 A 
ENDBRANCH  16  17
ENDBRANCH   1  16
TORSDOF 3
ENDMDL
MODEL 6
REMARK VINA RESULT:    -9.333      2.886      5.204
REMARK INTER + INTRA:         -11.627
REMARK INTER:                 -11.661
REMARK INTRA:                   0.034
REMARK UNBOUND:                -0.658
REMARK SMILES C[n+]1ccc2c3ccccc3n(CCc3ccccc3)c2c1
REMARK SMILES IDX 13 1 12 2 2 3 3 4 22 5 4 6 21 7 5 8 6 9 11 10 7 11 10 12
REMARK SMILES IDX 8 13 9 14 1 15 14 16 15 17 16 18 20 19 17 20 19 21 18 22
REMARK H PARENT
ROOT
ATOM      1  C   UNL     1     -12.892 -43.160  27.005  1.00  0.00     0.128 C 
ENDROOT
BRANCH   1   2
ATOM      2  N   UNL     1     -11.986 -43.590  28.065  1.00  0.00    -0.335 N 
ATOM      3  N   UNL     1      -8.578 -42.207  27.776  1.00  0.00    -0.206 N 
ATOM      4  C   UNL     1      -8.058 -42.798  28.870  1.00  0.00     0.308 A 
ATOM      5  C   UNL     1      -9.863 -42.380  27.408  1.00  0.00     0.334 A 
ATOM      6  C   UNL     1      -8.821 -43.635  29.672  1.00  0.00     0.081 A 
ATOM      7  C   UNL     1     -10.660 -43.214  28.185  1.00  0.00     0.114 A 
ATOM      8  C   UNL     1     -10.161 -43.850  29.319  1.00  0.00     0.020 A 
ATOM      9  C   UNL     1     -11.216 -44.623  29.889  1.00  0.00     0.008 A 
ATOM     10  C   UNL     1     -12.345 -44.446  29.088  1.00  0.00     0.049 A 
ATOM     11  C   UNL     1     -11.307 -45.461  31.021  1.00  0.00     0.011 A 
ATOM     12  C   UNL     1     -13.567 -45.076  29.381  1.00  0.00     0.027 A 
ATOM     13  C   UNL     1     -12.519 -46.092  31.318  1.00  0.00     0.001 A 
ATOM     14  C   UNL     1     -13.632 -45.900  30.507  1.00  0.00     0.002 A 
ATOM     15  C   UNL     1      -7.712 -41.324  26.971  1.00  0.00     0.439 C 
ENDBRANCH   1   2
BRANCH   1  16
ATOM     16  C   UNL     1     -13.803 -44.294  26.535  1.00  0.00     0.057 C 
BRANCH  16  17
ATOM     17  C   UNL     1     -14.937 -43.771  25.691  1.00  0.00    -0.046 A 
ATOM     18  C   UNL     1     -16.026 -43.119  26.285  1.00  0.00     0.004 A 
ATOM     19  C   UNL     1     -14.908 -43.915  24.297  1.00  0.00     0.004 A 
ATOM     20  C   UNL     1     -17.064 -42.619  25.497  1.00  0.00     0.000 A 
ATOM     21  C   UNL     1     -15.947 -43.413  23.513  1.00  0.00     0.000 A 
ATOM     22  C   UNL     1     -17.023 -42.763  24.113  1.00  0.00     0.000 A 
ENDBRANCH  16  17
ENDBRANCH   1  16
TORSDOF 3
ENDMDL
MODEL 7
REMARK VINA RESULT:    -9.292      7.438     10.590
REMARK INTER + INTRA:         -11.579
REMARK INTER:                 -11.124
REMARK INTRA:                  -0.455
REMARK UNBOUND:                -0.658
REMARK SMILES C[n+]1ccc2c3ccccc3n(CCc3ccccc3)c2c1
REMARK SMILES IDX 13 1 12 2 2 3 3 4 22 5 4 6 21 7 5 8 6 9 11 10 7 11 10 12
REMARK SMILES IDX 8 13 9 14 1 15 14 16 15 17 16 18 20 19 17 20 19 21 18 22
REMARK H PARENT
ROOT
ATOM      1  C   UNL     1     -18.353 -42.177  22.569  1.00  0.00     0.128 C 
ENDROOT
BRANCH   1   2
ATOM      2  N   UNL     1     -18.006 -42.313  23.980  1.00  0.00    -0.335 N 
ATOM      3  N   UNL     1     -20.688 -41.273  26.290  1.00  0.00    -0.206 N 
ATOM      4  C   UNL     1     -20.033 -41.525  27.441  1.00  0.00     0.308 A 
ATOM      5  C   UNL     1     -20.133 -41.499  25.083  1.00  0.00     0.334 A 
ATOM      6  C   UNL     1     -18.737 -42.021  27.442  1.00  0.00     0.081 A 
ATOM      7  C   UNL     1     -18.833 -41.993  25.042  1.00  0.00     0.114 A 
ATOM      8  C   UNL     1     -18.118 -42.260  26.207  1.00  0.00     0.020 A 
ATOM      9  C   UNL     1     -16.833 -42.752  25.830  1.00  0.00     0.008 A 
ATOM     10  C   UNL     1     -16.785 -42.775  24.435  1.00  0.00     0.049 A 
ATOM     11  C   UNL     1     -15.702 -43.182  26.558  1.00  0.00     0.011 A 
ATOM     12  C   UNL     1     -15.646 -43.215  23.740  1.00  0.00     0.027 A 
ATOM     13  C   UNL     1     -14.565 -43.620  25.873  1.00  0.00     0.001 A 
ATOM     14  C   UNL     1     -14.540 -43.636  24.483  1.00  0.00     0.002 A 
ATOM     15  C   UNL     1     -22.067 -40.753  26.361  1.00  0.00     0.439 C 
ENDBRANCH   1   2
BRANCH   1  16
ATOM     16  C   UNL     1     -17.988 -40.797  22.021  1.00  0.00     0.057 C 
BRANCH  16  17
ATOM     17  C   UNL     1     -19.205 -40.080  21.495  1.00  0.00    -0.046 A 
ATOM     18  C   UNL     1     -20.187 -39.601  22.373  1.00  0.00     0.004 A 
ATOM     19  C   UNL     1     -19.362 -39.866  20.118  1.00  0.00     0.004 A 
ATOM     20  C   UNL     1     -21.302 -38.920  21.883  1.00  0.00     0.000 A 
ATOM     21  C   UNL     1     -20.478 -39.184  19.632  1.00  0.00     0.000 A 
ATOM     22  C   UNL     1     -21.446 -38.710  20.514  1.00  0.00     0.000 A 
ENDBRANCH  16  17
ENDBRANCH   1  16
TORSDOF 3
ENDMDL
MODEL 8
REMARK VINA RESULT:    -9.177      1.461      4.194
REMARK INTER + INTRA:         -11.444
REMARK INTER:                 -10.971
REMARK INTRA:                  -0.473
REMARK UNBOUND:                -0.658
REMARK SMILES C[n+]1ccc2c3ccccc3n(CCc3ccccc3)c2c1
REMARK SMILES IDX 13 1 12 2 2 3 3 4 22 5 4 6 21 7 5 8 6 9 11 10 7 11 10 12
REMARK SMILES IDX 8 13 9 14 1 15 14 16 15 17 16 18 20 19 17 20 19 21 18 22
REMARK H PARENT
ROOT
ATOM      1  C   UNL     1     -10.756 -46.140  30.625  1.00  0.00     0.128 C 
ENDROOT
BRANCH   1   2
ATOM      2  N   UNL     1     -10.933 -44.979  31.490  1.00  0.00    -0.335 N 
ATOM      3  N   UNL     1      -7.788 -43.676  32.913  1.00  0.00    -0.206 N 
ATOM      4  C   UNL     1      -8.324 -42.662  33.621  1.00  0.00     0.308 A 
ATOM      5  C   UNL     1      -8.540 -44.506  32.162  1.00  0.00     0.334 A 
ATOM      6  C   UNL     1      -9.692 -42.427  33.624  1.00  0.00     0.081 A 
ATOM      7  C   UNL     1      -9.916 -44.305  32.144  1.00  0.00     0.114 A 
ATOM      8  C   UNL     1     -10.512 -43.274  32.865  1.00  0.00     0.020 A 
ATOM      9  C   UNL     1     -11.919 -43.334  32.636  1.00  0.00     0.008 A 
ATOM     10  C   UNL     1     -12.159 -44.407  31.776  1.00  0.00     0.049 A 
ATOM     11  C   UNL     1     -13.014 -42.565  33.088  1.00  0.00     0.011 A 
ATOM     12  C   UNL     1     -13.455 -44.738  31.348  1.00  0.00     0.027 A 
ATOM     13  C   UNL     1     -14.307 -42.890  32.667  1.00  0.00     0.001 A 
ATOM     14  C   UNL     1     -14.522 -43.962  31.810  1.00  0.00     0.002 A 
ATOM     15  C   UNL     1      -6.325 -43.866  32.948  1.00  0.00     0.439 C 
ENDBRANCH   1   2
BRANCH   1  16
ATOM     16  C   UNL     1     -11.282 -45.886  29.212  1.00  0.00     0.057 C 
BRANCH  16  17
ATOM     17  C   UNL     1     -10.798 -44.562  28.679  1.00  0.00    -0.046 A 
ATOM     18  C   UNL     1      -9.432 -44.250  28.673  1.00  0.00     0.004 A 
ATOM     19  C   UNL     1     -11.711 -43.630  28.165  1.00  0.00     0.004 A 
ATOM     20  C   UNL     1      -8.988 -43.031  28.161  1.00  0.00     0.000 A 
ATOM     21  C   UNL     1     -11.263 -42.411  27.652  1.00  0.00     0.000 A 
ATOM     22  C   UNL     1      -9.902 -42.114  27.649  1.00  0.00     0.000 A 
ENDBRANCH  16  17
ENDBRANCH   1  16
TORSDOF 3
ENDMDL
MODEL 9
REMARK VINA RESULT:    -8.829      1.535      5.746
REMARK INTER + INTRA:         -11.035
REMARK INTER:                 -10.775
REMARK INTRA:                  -0.259
REMARK UNBOUND:                -0.658
REMARK SMILES C[n+]1ccc2c3ccccc3n(CCc3ccccc3)c2c1
REMARK SMILES IDX 13 1 12 2 2 3 3 4 22 5 4 6 21 7 5 8 6 9 11 10 7 11 10 12
REMARK SMILES IDX 8 13 9 14 1 15 14 16 15 17 16 18 20 19 17 20 19 21 18 22
REMARK H PARENT
ROOT
ATOM      1  C   UNL     1     -11.946 -43.036  31.548  1.00  0.00     0.128 C 
ENDROOT
BRANCH   1   2
ATOM      2  N   UNL     1     -11.091 -44.007  30.873  1.00  0.00    -0.335 N 
ATOM      3  N   UNL     1      -7.657 -44.169  32.215  1.00  0.00    -0.206 N 
ATOM      4  C   UNL     1      -7.191 -45.122  31.384  1.00  0.00     0.308 A 
ATOM      5  C   UNL     1      -8.928 -43.722  32.156  1.00  0.00     0.334 A 
ATOM      6  C   UNL     1      -7.997 -45.686  30.405  1.00  0.00     0.081 A 
ATOM      7  C   UNL     1      -9.766 -44.260  31.185  1.00  0.00     0.114 A 
ATOM      8  C   UNL     1      -9.323 -45.241  30.302  1.00  0.00     0.020 A 
ATOM      9  C   UNL     1     -10.410 -45.583  29.442  1.00  0.00     0.008 A 
ATOM     10  C   UNL     1     -11.502 -44.798  29.817  1.00  0.00     0.049 A 
ATOM     11  C   UNL     1     -10.559 -46.493  28.375  1.00  0.00     0.011 A 
ATOM     12  C   UNL     1     -12.742 -44.894  29.163  1.00  0.00     0.027 A 
ATOM     13  C   UNL     1     -11.790 -46.594  27.719  1.00  0.00     0.001 A 
ATOM     14  C   UNL     1     -12.865 -45.804  28.109  1.00  0.00     0.002 A 
ATOM     15  C   UNL     1      -6.749 -43.616  33.238  1.00  0.00     0.439 C 
ENDBRANCH   1   2
BRANCH   1  16
ATOM     16  C   UNL     1     -13.187 -43.691  32.155  1.00  0.00     0.057 C 
BRANCH  16  17
ATOM     17  C   UNL     1     -14.044 -42.679  32.870  1.00  0.00    -0.046 A 
ATOM     18  C   UNL     1     -13.667 -42.181  34.124  1.00  0.00     0.004 A 
ATOM     19  C   UNL     1     -15.225 -42.207  32.278  1.00  0.00     0.004 A 
ATOM     20  C   UNL     1     -14.454 -41.229  34.773  1.00  0.00     0.000 A 
ATOM     21  C   UNL     1     -16.010 -41.254  32.929  1.00  0.00     0.000 A 
ATOM     22  C   UNL     1     -15.623 -40.765  34.174  1.00  0.00     0.000 A 
ENDBRANCH  16  17
ENDBRANCH   1  16
TORSDOF 3
ENDMDL
