MODEL 1
REMARK VINA RESULT:   -11.004      0.000      0.000
REMARK INTER + INTRA:         -15.513
REMARK INTER:                 -14.864
REMARK INTRA:                  -0.649
REMARK UNBOUND:                -0.649
REMARK SMILES COc1ccc2c(CC[C@H]3CC[N@@H+](Cc4ccccc4)CC3)noc2c1
REMARK SMILES IDX 9 1 10 2 12 3 13 4 11 5 21 6 22 7 14 9 15 10 16 11 20 12
REMARK SMILES IDX 17 13 19 14 18 15 8 16 7 17 6 18 23 19 5 20 25 21 24 22 4 23
REMARK SMILES IDX 26 24 3 25 2 26 1 27
REMARK H PARENT 13 8
ROOT
ATOM      1  C   UNL     1     -12.310 -46.466  28.305  1.00  0.00     0.010 C 
ENDROOT
BRANCH   1   2
ATOM      2  C   UNL     1     -10.859 -46.072  28.657  1.00  0.00     0.000 C 
ATOM      3  C   UNL     1     -11.334 -43.732  29.576  1.00  0.00     0.262 C 
ATOM      4  N   UNL     1     -10.889 -44.198  30.941  1.00  0.00    -0.331 N 
ATOM      5  C   UNL     1     -10.647 -44.557  28.492  1.00  0.00     0.065 C 
ATOM      6  C   UNL     1     -11.142 -45.672  31.165  1.00  0.00     0.262 C 
ATOM      7  C   UNL     1     -10.432 -46.475  30.080  1.00  0.00     0.065 C 
ATOM      8  H   UNL     1      -9.872 -44.058  31.003  1.00  0.00     0.348 HD
BRANCH   4   9
ATOM      9  C   UNL     1     -11.493 -43.333  32.033  1.00  0.00     0.299 C 
BRANCH   9  10
ATOM     10  C   UNL     1     -10.487 -42.885  33.060  1.00  0.00     0.006 A 
ATOM     11  C   UNL     1     -10.893 -42.147  34.184  1.00  0.00     0.009 A 
ATOM     12  C   UNL     1      -9.124 -43.186  32.901  1.00  0.00     0.009 A 
ATOM     13  C   UNL     1      -9.954 -41.718  35.124  1.00  0.00     0.001 A 
ATOM     14  C   UNL     1      -8.190 -42.756  33.846  1.00  0.00     0.001 A 
ATOM     15  C   UNL     1      -8.605 -42.022  34.954  1.00  0.00     0.000 A 
ENDBRANCH   9  10
ENDBRANCH   4   9
ENDBRANCH   1   2
BRANCH   1  16
ATOM     16  C   UNL     1     -12.778 -45.967  26.928  1.00  0.00     0.061 C 
BRANCH  16  17
ATOM     17  C   UNL     1     -13.831 -44.916  27.027  1.00  0.00     0.091 A 
ATOM     18  C   UNL     1     -14.529 -44.257  25.981  1.00  0.00     0.045 A 
ATOM     19  N   UNL     1     -14.260 -44.518  28.234  1.00  0.00    -0.084 NA
ATOM     20  C   UNL     1     -14.535 -44.268  24.578  1.00  0.00     0.018 A 
ATOM     21  C   UNL     1     -15.415 -43.428  26.644  1.00  0.00     0.170 A 
ATOM     22  O   UNL     1     -15.253 -43.581  27.985  1.00  0.00    -0.356 OA
ATOM     23  C   UNL     1     -15.448 -43.429  23.916  1.00  0.00     0.047 A 
ATOM     24  C   UNL     1     -16.332 -42.581  26.020  1.00  0.00     0.097 A 
ATOM     25  C   UNL     1     -16.338 -42.603  24.619  1.00  0.00     0.122 A 
BRANCH  25  26
ATOM     26  O   UNL     1     -17.175 -41.874  23.815  1.00  0.00    -0.497 OA
ATOM     27  C   UNL     1     -16.672 -41.481  22.542  1.00  0.00     0.278 C 
ENDBRANCH  25  26
ENDBRANCH  16  17
ENDBRANCH   1  16
TORSDOF 6
ENDMDL
MODEL 2
REMARK VINA RESULT:   -10.955      1.959      3.005
REMARK INTER + INTRA:         -15.446
REMARK INTER:                 -14.725
REMARK INTRA:                  -0.721
REMARK UNBOUND:                -0.649
REMARK SMILES COc1ccc2c(CC[C@H]3CC[N@@H+](Cc4ccccc4)CC3)noc2c1
REMARK SMILES IDX 9 1 10 2 12 3 13 4 11 5 21 6 22 7 14 9 15 10 16 11 20 12
REMARK SMILES IDX 17 13 19 14 18 15 8 16 7 17 6 18 23 19 5 20 25 21 24 22 4 23
REMARK SMILES IDX 26 24 3 25 2 26 1 27
REMARK H PARENT 13 8
ROOT
ATOM      1  C   UNL     1     -14.213 -44.279  27.509  1.00  0.00     0.010 C 
ENDROOT
BRANCH   1   2
ATOM      2  C   UNL     1     -12.843 -44.958  27.299  1.00  0.00     0.000 C 
ATOM      3  C   UNL     1     -11.612 -43.908  29.281  1.00  0.00     0.262 C 
ATOM      4  N   UNL     1     -11.504 -45.275  29.913  1.00  0.00    -0.331 N 
ATOM      5  C   UNL     1     -11.698 -44.039  27.763  1.00  0.00     0.065 C 
ATOM      6  C   UNL     1     -12.649 -46.186  29.531  1.00  0.00     0.262 C 
ATOM      7  C   UNL     1     -12.704 -46.314  28.012  1.00  0.00     0.065 C 
ATOM      8  H   UNL     1     -10.643 -45.715  29.562  1.00  0.00     0.348 HD
BRANCH   4   9
ATOM      9  C   UNL     1     -11.329 -45.164  31.417  1.00  0.00     0.299 C 
BRANCH   9  10
ATOM     10  C   UNL     1      -9.938 -44.754  31.824  1.00  0.00     0.006 A 
ATOM     11  C   UNL     1      -9.725 -43.575  32.557  1.00  0.00     0.009 A 
ATOM     12  C   UNL     1      -8.830 -45.539  31.465  1.00  0.00     0.009 A 
ATOM     13  C   UNL     1      -8.432 -43.191  32.917  1.00  0.00     0.001 A 
ATOM     14  C   UNL     1      -7.539 -45.151  31.829  1.00  0.00     0.001 A 
ATOM     15  C   UNL     1      -7.342 -43.978  32.553  1.00  0.00     0.000 A 
ENDBRANCH   9  10
ENDBRANCH   4   9
ENDBRANCH   1   2
BRANCH   1  16
ATOM     16  C   UNL     1     -14.330 -42.890  26.861  1.00  0.00     0.061 C 
BRANCH  16  17
ATOM     17  C   UNL     1     -15.062 -42.922  25.562  1.00  0.00     0.091 A 
ATOM     18  C   UNL     1     -16.443 -42.705  25.316  1.00  0.00     0.045 A 
ATOM     19  N   UNL     1     -14.385 -43.136  24.424  1.00  0.00    -0.084 NA
ATOM     20  C   UNL     1     -17.594 -42.426  26.067  1.00  0.00     0.018 A 
ATOM     21  C   UNL     1     -16.555 -42.805  23.941  1.00  0.00     0.170 A 
ATOM     22  O   UNL     1     -15.330 -43.065  23.410  1.00  0.00    -0.356 OA
ATOM     23  C   UNL     1     -18.808 -42.260  25.379  1.00  0.00     0.047 A 
ATOM     24  C   UNL     1     -17.742 -42.650  23.224  1.00  0.00     0.097 A 
ATOM     25  C   UNL     1     -18.886 -42.363  23.982  1.00  0.00     0.122 A 
BRANCH  25  26
ATOM     26  O   UNL     1     -20.141 -42.146  23.476  1.00  0.00    -0.497 OA
ATOM     27  C   UNL     1     -20.679 -40.835  23.615  1.00  0.00     0.278 C 
ENDBRANCH  25  26
ENDBRANCH  16  17
ENDBRANCH   1  16
TORSDOF 6
ENDMDL
MODEL 3
REMARK VINA RESULT:   -10.832      1.223      2.155
REMARK INTER + INTRA:         -15.280
REMARK INTER:                 -15.171
REMARK INTRA:                  -0.109
REMARK UNBOUND:                -0.649
REMARK SMILES COc1ccc2c(CC[C@H]3CC[N@@H+](Cc4ccccc4)CC3)noc2c1
REMARK SMILES IDX 9 1 10 2 12 3 13 4 11 5 21 6 22 7 14 9 15 10 16 11 20 12
REMARK SMILES IDX 17 13 19 14 18 15 8 16 7 17 6 18 23 19 5 20 25 21 24 22 4 23
REMARK SMILES IDX 26 24 3 25 2 26 1 27
REMARK H PARENT 13 8
ROOT
ATOM      1  C   UNL     1     -11.951 -46.366  28.667  1.00  0.00     0.010 C 
ENDROOT
BRANCH   1   2
ATOM      2  C   UNL     1     -10.445 -46.032  28.734  1.00  0.00     0.000 C 
ATOM      3  C   UNL     1     -10.635 -43.725  29.823  1.00  0.00     0.262 C 
ATOM      4  N   UNL     1      -9.942 -44.268  31.050  1.00  0.00    -0.331 N 
ATOM      5  C   UNL     1     -10.212 -44.517  28.590  1.00  0.00     0.065 C 
ATOM      6  C   UNL     1     -10.202 -45.743  31.261  1.00  0.00     0.262 C 
ATOM      7  C   UNL     1      -9.757 -46.514  30.022  1.00  0.00     0.065 C 
ATOM      8  H   UNL     1      -8.929 -44.161  30.910  1.00  0.00     0.348 HD
BRANCH   4   9
ATOM      9  C   UNL     1     -10.281 -43.439  32.276  1.00  0.00     0.299 C 
BRANCH   9  10
ATOM     10  C   UNL     1     -11.761 -43.336  32.532  1.00  0.00     0.006 A 
ATOM     11  C   UNL     1     -12.270 -42.358  33.403  1.00  0.00     0.009 A 
ATOM     12  C   UNL     1     -12.655 -44.226  31.914  1.00  0.00     0.009 A 
ATOM     13  C   UNL     1     -13.641 -42.277  33.651  1.00  0.00     0.001 A 
ATOM     14  C   UNL     1     -14.027 -44.138  32.165  1.00  0.00     0.001 A 
ATOM     15  C   UNL     1     -14.517 -43.166  33.032  1.00  0.00     0.000 A 
ENDBRANCH   9  10
ENDBRANCH   4   9
ENDBRANCH   1   2
BRANCH   1  16
ATOM     16  C   UNL     1     -12.592 -46.098  27.295  1.00  0.00     0.061 C 
BRANCH  16  17
ATOM     17  C   UNL     1     -13.636 -45.033  27.348  1.00  0.00     0.091 A 
ATOM     18  C   UNL     1     -14.330 -44.417  26.275  1.00  0.00     0.045 A 
ATOM     19  N   UNL     1     -14.057 -44.576  28.537  1.00  0.00    -0.084 NA
ATOM     20  C   UNL     1     -14.341 -44.492  24.874  1.00  0.00     0.018 A 
ATOM     21  C   UNL     1     -15.206 -43.549  26.901  1.00  0.00     0.170 A 
ATOM     22  O   UNL     1     -15.041 -43.641  28.248  1.00  0.00    -0.356 OA
ATOM     23  C   UNL     1     -15.248 -43.677  24.176  1.00  0.00     0.047 A 
ATOM     24  C   UNL     1     -16.117 -42.723  26.241  1.00  0.00     0.097 A 
ATOM     25  C   UNL     1     -16.128 -42.810  24.843  1.00  0.00     0.122 A 
BRANCH  25  26
ATOM     26  O   UNL     1     -16.960 -42.111  24.009  1.00  0.00    -0.497 OA
ATOM     27  C   UNL     1     -16.423 -41.691  22.758  1.00  0.00     0.278 C 
ENDBRANCH  25  26
ENDBRANCH  16  17
ENDBRANCH   1  16
TORSDOF 6
ENDMDL
MODEL 4
REMARK VINA RESULT:   -10.256      3.065      9.560
REMARK INTER + INTRA:         -14.502
REMARK INTER:                 -13.719
REMARK INTRA:                  -0.783
REMARK UNBOUND:                -0.649
REMARK SMILES COc1ccc2c(CC[C@H]3CC[N@@H+](Cc4ccccc4)CC3)noc2c1
REMARK SMILES IDX 9 1 10 2 12 3 13 4 11 5 21 6 22 7 14 9 15 10 16 11 20 12
REMARK SMILES IDX 17 13 19 14 18 15 8 16 7 17 6 18 23 19 5 20 25 21 24 22 4 23
REMARK SMILES IDX 26 24 3 25 2 26 1 27
REMARK H PARENT 13 8
ROOT
ATOM      1  C   UNL     1     -13.893 -44.574  26.429  1.00  0.00     0.010 C 
ENDROOT
BRANCH   1   2
ATOM      2  C   UNL     1     -13.930 -43.138  25.861  1.00  0.00     0.000 C 
ATOM      3  C   UNL     1     -15.646 -43.530  24.004  1.00  0.00     0.262 C 
ATOM      4  N   UNL     1     -16.606 -42.612  24.723  1.00  0.00    -0.331 N 
ATOM      5  C   UNL     1     -14.207 -43.155  24.347  1.00  0.00     0.065 C 
ATOM      6  C   UNL     1     -16.406 -42.620  26.222  1.00  0.00     0.262 C 
ATOM      7  C   UNL     1     -14.967 -42.227  26.540  1.00  0.00     0.065 C 
ATOM      8  H   UNL     1     -16.420 -41.653  24.403  1.00  0.00     0.348 HD
BRANCH   4   9
ATOM      9  C   UNL     1     -18.041 -42.911  24.328  1.00  0.00     0.299 C 
BRANCH   9  10
ATOM     10  C   UNL     1     -18.681 -41.803  23.534  1.00  0.00     0.006 A 
ATOM     11  C   UNL     1     -19.943 -41.304  23.892  1.00  0.00     0.009 A 
ATOM     12  C   UNL     1     -18.029 -41.262  22.413  1.00  0.00     0.009 A 
ATOM     13  C   UNL     1     -20.540 -40.289  23.142  1.00  0.00     0.001 A 
ATOM     14  C   UNL     1     -18.630 -40.245  21.668  1.00  0.00     0.001 A 
ATOM     15  C   UNL     1     -19.884 -39.761  22.032  1.00  0.00     0.000 A 
ENDBRANCH   9  10
ENDBRANCH   4   9
ENDBRANCH   1   2
BRANCH   1  16
ATOM     16  C   UNL     1     -14.167 -44.658  27.939  1.00  0.00     0.061 C 
BRANCH  16  17
ATOM     17  C   UNL     1     -12.957 -45.047  28.721  1.00  0.00     0.091 A 
ATOM     18  C   UNL     1     -11.742 -44.333  28.889  1.00  0.00     0.045 A 
ATOM     19  N   UNL     1     -12.960 -46.191  29.420  1.00  0.00    -0.084 NA
ATOM     20  C   UNL     1     -11.186 -43.124  28.448  1.00  0.00     0.018 A 
ATOM     21  C   UNL     1     -11.005 -45.132  29.744  1.00  0.00     0.170 A 
ATOM     22  O   UNL     1     -11.728 -46.240  30.057  1.00  0.00    -0.356 OA
ATOM     23  C   UNL     1      -9.899 -42.785  28.901  1.00  0.00     0.047 A 
ATOM     24  C   UNL     1      -9.725 -44.829  30.212  1.00  0.00     0.097 A 
ATOM     25  C   UNL     1      -9.179 -43.616  29.773  1.00  0.00     0.122 A 
BRANCH  25  26
ATOM     26  O   UNL     1      -7.954 -43.117  30.133  1.00  0.00    -0.497 OA
ATOM     27  C   UNL     1      -7.458 -43.482  31.418  1.00  0.00     0.278 C 
ENDBRANCH  25  26
ENDBRANCH  16  17
ENDBRANCH   1  16
TORSDOF 6
ENDMDL
MODEL 5
REMARK VINA RESULT:   -10.161      3.434      8.699
REMARK INTER + INTRA:         -14.373
REMARK INTER:                 -13.583
REMARK INTRA:                  -0.790
REMARK UNBOUND:                -0.649
REMARK SMILES COc1ccc2c(CC[C@H]3CC[N@@H+](Cc4ccccc4)CC3)noc2c1
REMARK SMILES IDX 9 1 10 2 12 3 13 4 11 5 21 6 22 7 14 9 15 10 16 11 20 12
REMARK SMILES IDX 17 13 19 14 18 15 8 16 7 17 6 18 23 19 5 20 25 21 24 22 4 23
REMARK SMILES IDX 26 24 3 25 2 26 1 27
REMARK H PARENT 13 8
ROOT
ATOM      1  C   UNL     1     -10.986 -45.806  28.884  1.00  0.00     0.010 C 
ENDROOT
BRANCH   1   2
ATOM      2  C   UNL     1     -12.422 -46.364  28.773  1.00  0.00     0.000 C 
ATOM      3  C   UNL     1     -13.686 -44.147  28.956  1.00  0.00     0.262 C 
ATOM      4  N   UNL     1     -14.164 -44.325  27.535  1.00  0.00    -0.331 N 
ATOM      5  C   UNL     1     -13.408 -45.508  29.588  1.00  0.00     0.065 C 
ATOM      6  C   UNL     1     -13.189 -45.108  26.685  1.00  0.00     0.262 C 
ATOM      7  C   UNL     1     -12.940 -46.468  27.328  1.00  0.00     0.065 C 
ATOM      8  H   UNL     1     -15.037 -44.870  27.564  1.00  0.00     0.348 HD
BRANCH   4   9
ATOM      9  C   UNL     1     -14.531 -42.989  26.915  1.00  0.00     0.299 C 
BRANCH   9  10
ATOM     10  C   UNL     1     -16.016 -42.797  26.753  1.00  0.00     0.006 A 
ATOM     11  C   UNL     1     -16.602 -42.801  25.477  1.00  0.00     0.009 A 
ATOM     12  C   UNL     1     -16.835 -42.598  27.876  1.00  0.00     0.009 A 
ATOM     13  C   UNL     1     -17.977 -42.605  25.331  1.00  0.00     0.001 A 
ATOM     14  C   UNL     1     -18.210 -42.405  27.724  1.00  0.00     0.001 A 
ATOM     15  C   UNL     1     -18.778 -42.407  26.453  1.00  0.00     0.000 A 
ENDBRANCH   9  10
ENDBRANCH   4   9
ENDBRANCH   1   2
BRANCH   1  16
ATOM     16  C   UNL     1     -10.043 -46.668  29.739  1.00  0.00     0.061 C 
BRANCH  16  17
ATOM     17  C   UNL     1      -9.127 -45.850  30.586  1.00  0.00     0.091 A 
ATOM     18  C   UNL     1      -9.452 -44.810  31.495  1.00  0.00     0.045 A 
ATOM     19  N   UNL     1      -7.810 -46.102  30.571  1.00  0.00    -0.084 NA
ATOM     20  C   UNL     1     -10.607 -44.149  31.938  1.00  0.00     0.018 A 
ATOM     21  C   UNL     1      -8.230 -44.447  32.033  1.00  0.00     0.170 A 
ATOM     22  O   UNL     1      -7.252 -45.213  31.480  1.00  0.00    -0.356 OA
ATOM     23  C   UNL     1     -10.461 -43.146  32.912  1.00  0.00     0.047 A 
ATOM     24  C   UNL     1      -8.047 -43.455  32.998  1.00  0.00     0.097 A 
ATOM     25  C   UNL     1      -9.207 -42.805  33.441  1.00  0.00     0.122 A 
BRANCH  25  26
ATOM     26  O   UNL     1      -9.254 -41.826  34.399  1.00  0.00    -0.497 OA
ATOM     27  C   UNL     1     -10.484 -41.661  35.099  1.00  0.00     0.278 C 
ENDBRANCH  25  26
ENDBRANCH  16  17
ENDBRANCH   1  16
TORSDOF 6
ENDMDL
MODEL 6
REMARK VINA RESULT:   -10.113      3.071     10.127
REMARK INTER + INTRA:         -14.309
REMARK INTER:                 -13.853
REMARK INTRA:                  -0.456
REMARK UNBOUND:                -0.649
REMARK SMILES COc1ccc2c(CC[C@H]3CC[N@@H+](Cc4ccccc4)CC3)noc2c1
REMARK SMILES IDX 9 1 10 2 12 3 13 4 11 5 21 6 22 7 14 9 15 10 16 11 20 12
REMARK SMILES IDX 17 13 19 14 18 15 8 16 7 17 6 18 23 19 5 20 25 21 24 22 4 23
REMARK SMILES IDX 26 24 3 25 2 26 1 27
REMARK H PARENT 13 8
ROOT
ATOM      1  C   UNL     1     -15.005 -44.236  26.119  1.00  0.00     0.010 C 
ENDROOT
BRANCH   1   2
ATOM      2  C   UNL     1     -15.308 -42.722  26.124  1.00  0.00     0.000 C 
ATOM      3  C   UNL     1     -15.881 -42.459  23.645  1.00  0.00     0.262 C 
ATOM      4  N   UNL     1     -17.301 -42.121  24.028  1.00  0.00    -0.331 N 
ATOM      5  C   UNL     1     -14.929 -42.082  24.777  1.00  0.00     0.065 C 
ATOM      6  C   UNL     1     -17.731 -42.787  25.317  1.00  0.00     0.262 C 
ATOM      7  C   UNL     1     -16.776 -42.382  26.435  1.00  0.00     0.065 C 
ATOM      8  H   UNL     1     -17.350 -41.106  24.187  1.00  0.00     0.348 HD
BRANCH   4   9
ATOM      9  C   UNL     1     -18.255 -42.407  22.882  1.00  0.00     0.299 C 
BRANCH   9  10
ATOM     10  C   UNL     1     -19.271 -41.316  22.669  1.00  0.00     0.006 A 
ATOM     11  C   UNL     1     -19.008 -40.256  21.787  1.00  0.00     0.009 A 
ATOM     12  C   UNL     1     -20.493 -41.336  23.362  1.00  0.00     0.009 A 
ATOM     13  C   UNL     1     -19.946 -39.238  21.606  1.00  0.00     0.001 A 
ATOM     14  C   UNL     1     -21.428 -40.316  23.175  1.00  0.00     0.001 A 
ATOM     15  C   UNL     1     -21.153 -39.269  22.299  1.00  0.00     0.000 A 
ENDBRANCH   9  10
ENDBRANCH   4   9
ENDBRANCH   1   2
BRANCH   1  16
ATOM     16  C   UNL     1     -13.558 -44.587  26.500  1.00  0.00     0.061 C 
BRANCH  16  17
ATOM     17  C   UNL     1     -13.386 -44.802  27.966  1.00  0.00     0.091 A 
ATOM     18  C   UNL     1     -12.287 -45.377  28.656  1.00  0.00     0.045 A 
ATOM     19  N   UNL     1     -14.338 -44.383  28.813  1.00  0.00    -0.084 NA
ATOM     20  C   UNL     1     -11.048 -45.947  28.330  1.00  0.00     0.018 A 
ATOM     21  C   UNL     1     -12.644 -45.277  29.988  1.00  0.00     0.170 A 
ATOM     22  O   UNL     1     -13.866 -44.688  30.082  1.00  0.00    -0.356 OA
ATOM     23  C   UNL     1     -10.227 -46.389  29.382  1.00  0.00     0.047 A 
ATOM     24  C   UNL     1     -11.857 -45.707  31.058  1.00  0.00     0.097 A 
ATOM     25  C   UNL     1     -10.617 -46.268  30.725  1.00  0.00     0.122 A 
BRANCH  25  26
ATOM     26  O   UNL     1      -9.684 -46.725  31.619  1.00  0.00    -0.497 OA
ATOM     27  C   UNL     1      -8.339 -46.293  31.432  1.00  0.00     0.278 C 
ENDBRANCH  25  26
ENDBRANCH  16  17
ENDBRANCH   1  16
TORSDOF 6
ENDMDL
MODEL 7
REMARK VINA RESULT:    -9.979      2.659      8.379
REMARK INTER + INTRA:         -14.128
REMARK INTER:                 -14.845
REMARK INTRA:                   0.717
REMARK UNBOUND:                -0.649
REMARK SMILES COc1ccc2c(CC[C@H]3CC[N@@H+](Cc4ccccc4)CC3)noc2c1
REMARK SMILES IDX 9 1 10 2 12 3 13 4 11 5 21 6 22 7 14 9 15 10 16 11 20 12
REMARK SMILES IDX 17 13 19 14 18 15 8 16 7 17 6 18 23 19 5 20 25 21 24 22 4 23
REMARK SMILES IDX 26 24 3 25 2 26 1 27
REMARK H PARENT 13 8
ROOT
ATOM      1  C   UNL     1     -12.524 -46.137  30.347  1.00  0.00     0.010 C 
ENDROOT
BRANCH   1   2
ATOM      2  C   UNL     1     -11.917 -46.353  28.943  1.00  0.00     0.000 C 
ATOM      3  C   UNL     1     -13.659 -45.051  27.594  1.00  0.00     0.262 C 
ATOM      4  N   UNL     1     -12.594 -44.045  27.227  1.00  0.00    -0.331 N 
ATOM      5  C   UNL     1     -13.021 -46.409  27.872  1.00  0.00     0.065 C 
ATOM      6  C   UNL     1     -11.524 -43.915  28.288  1.00  0.00     0.262 C 
ATOM      7  C   UNL     1     -10.892 -45.281  28.536  1.00  0.00     0.065 C 
ATOM      8  H   UNL     1     -12.127 -44.381  26.374  1.00  0.00     0.348 HD
BRANCH   4   9
ATOM      9  C   UNL     1     -13.214 -42.709  26.861  1.00  0.00     0.299 C 
BRANCH   9  10
ATOM     10  C   UNL     1     -14.452 -42.841  26.014  1.00  0.00     0.006 A 
ATOM     11  C   UNL     1     -14.356 -43.178  24.654  1.00  0.00     0.009 A 
ATOM     12  C   UNL     1     -15.723 -42.614  26.569  1.00  0.00     0.009 A 
ATOM     13  C   UNL     1     -15.505 -43.283  23.869  1.00  0.00     0.001 A 
ATOM     14  C   UNL     1     -16.869 -42.722  25.779  1.00  0.00     0.001 A 
ATOM     15  C   UNL     1     -16.759 -43.055  24.431  1.00  0.00     0.000 A 
ENDBRANCH   9  10
ENDBRANCH   4   9
ENDBRANCH   1   2
BRANCH   1  16
ATOM     16  C   UNL     1     -13.301 -44.820  30.498  1.00  0.00     0.061 C 
BRANCH  16  17
ATOM     17  C   UNL     1     -12.717 -43.925  31.539  1.00  0.00     0.091 A 
ATOM     18  C   UNL     1     -11.375 -43.851  31.995  1.00  0.00     0.045 A 
ATOM     19  N   UNL     1     -13.495 -43.012  32.141  1.00  0.00    -0.084 NA
ATOM     20  C   UNL     1     -10.160 -44.501  31.735  1.00  0.00     0.018 A 
ATOM     21  C   UNL     1     -11.395 -42.824  32.920  1.00  0.00     0.170 A 
ATOM     22  O   UNL     1     -12.658 -42.327  33.010  1.00  0.00    -0.356 OA
ATOM     23  C   UNL     1      -9.019 -44.071  32.434  1.00  0.00     0.047 A 
ATOM     24  C   UNL     1     -10.284 -42.372  33.634  1.00  0.00     0.097 A 
ATOM     25  C   UNL     1      -9.073 -43.021  33.363  1.00  0.00     0.122 A 
BRANCH  25  26
ATOM     26  O   UNL     1      -7.863 -42.716  33.930  1.00  0.00    -0.497 OA
ATOM     27  C   UNL     1      -6.694 -43.085  33.203  1.00  0.00     0.278 C 
ENDBRANCH  25  26
ENDBRANCH  16  17
ENDBRANCH   1  16
TORSDOF 6
ENDMDL
MODEL 8
REMARK VINA RESULT:    -9.867      1.645      2.206
REMARK INTER + INTRA:         -13.977
REMARK INTER:                 -13.590
REMARK INTRA:                  -0.386
REMARK UNBOUND:                -0.649
REMARK SMILES COc1ccc2c(CC[C@H]3CC[N@@H+](Cc4ccccc4)CC3)noc2c1
REMARK SMILES IDX 9 1 10 2 12 3 13 4 11 5 21 6 22 7 14 9 15 10 16 11 20 12
REMARK SMILES IDX 17 13 19 14 18 15 8 16 7 17 6 18 23 19 5 20 25 21 24 22 4 23
REMARK SMILES IDX 26 24 3 25 2 26 1 27
REMARK H PARENT 13 8
ROOT
ATOM      1  C   UNL     1     -12.946 -43.114  27.027  1.00  0.00     0.010 C 
ENDROOT
BRANCH   1   2
ATOM      2  C   UNL     1     -11.933 -44.179  27.502  1.00  0.00     0.000 C 
ATOM      3  C   UNL     1     -11.148 -43.004  29.635  1.00  0.00     0.262 C 
ATOM      4  N   UNL     1     -11.766 -44.114  30.451  1.00  0.00    -0.331 N 
ATOM      5  C   UNL     1     -10.761 -43.524  28.253  1.00  0.00     0.065 C 
ATOM      6  C   UNL     1     -12.964 -44.740  29.772  1.00  0.00     0.262 C 
ATOM      7  C   UNL     1     -12.548 -45.265  28.401  1.00  0.00     0.065 C 
ATOM      8  H   UNL     1     -11.061 -44.856  30.554  1.00  0.00     0.348 HD
BRANCH   4   9
ATOM      9  C   UNL     1     -12.079 -43.642  31.859  1.00  0.00     0.299 C 
BRANCH   9  10
ATOM     10  C   UNL     1     -10.853 -43.241  32.637  1.00  0.00     0.006 A 
ATOM     11  C   UNL     1     -10.957 -42.382  33.743  1.00  0.00     0.009 A 
ATOM     12  C   UNL     1      -9.585 -43.711  32.259  1.00  0.00     0.009 A 
ATOM     13  C   UNL     1      -9.816 -42.000  34.450  1.00  0.00     0.001 A 
ATOM     14  C   UNL     1      -8.447 -43.327  32.972  1.00  0.00     0.001 A 
ATOM     15  C   UNL     1      -8.564 -42.472  34.065  1.00  0.00     0.000 A 
ENDBRANCH   9  10
ENDBRANCH   4   9
ENDBRANCH   1   2
BRANCH   1  16
ATOM     16  C   UNL     1     -14.011 -43.651  26.057  1.00  0.00     0.061 C 
BRANCH  16  17
ATOM     17  C   UNL     1     -15.378 -43.142  26.367  1.00  0.00     0.091 A 
ATOM     18  C   UNL     1     -16.423 -42.802  25.469  1.00  0.00     0.045 A 
ATOM     19  N   UNL     1     -15.759 -43.001  27.646  1.00  0.00    -0.084 NA
ATOM     20  C   UNL     1     -16.621 -42.768  24.081  1.00  0.00     0.018 A 
ATOM     21  C   UNL     1     -17.469 -42.441  26.299  1.00  0.00     0.170 A 
ATOM     22  O   UNL     1     -17.073 -42.557  27.595  1.00  0.00    -0.356 OA
ATOM     23  C   UNL     1     -17.881 -42.367  23.603  1.00  0.00     0.047 A 
ATOM     24  C   UNL     1     -18.731 -42.036  25.861  1.00  0.00     0.097 A 
ATOM     25  C   UNL     1     -18.923 -42.013  24.473  1.00  0.00     0.122 A 
BRANCH  25  26
ATOM     26  O   UNL     1     -20.089 -41.675  23.837  1.00  0.00    -0.497 OA
ATOM     27  C   UNL     1     -20.418 -42.399  22.655  1.00  0.00     0.278 C 
ENDBRANCH  25  26
ENDBRANCH  16  17
ENDBRANCH   1  16
TORSDOF 6
ENDMDL
MODEL 9
REMARK VINA RESULT:    -9.823      1.788      2.809
REMARK INTER + INTRA:         -13.918
REMARK INTER:                 -13.523
REMARK INTRA:                  -0.395
REMARK UNBOUND:                -0.649
REMARK SMILES COc1ccc2c(CC[C@H]3CC[N@@H+](Cc4ccccc4)CC3)noc2c1
REMARK SMILES IDX 9 1 10 2 12 3 13 4 11 5 21 6 22 7 14 9 15 10 16 11 20 12
REMARK SMILES IDX 17 13 19 14 18 15 8 16 7 17 6 18 23 19 5 20 25 21 24 22 4 23
REMARK SMILES IDX 26 24 3 25 2 26 1 27
REMARK H PARENT 13 8
ROOT
ATOM      1  C   UNL     1     -13.515 -44.724  27.664  1.00  0.00     0.010 C 
ENDROOT
BRANCH   1   2
ATOM      2  C   UNL     1     -12.000 -45.001  27.550  1.00  0.00     0.000 C 
ATOM      3  C   UNL     1     -11.240 -43.703  29.619  1.00  0.00     0.262 C 
ATOM      4  N   UNL     1     -10.806 -45.003  30.252  1.00  0.00    -0.331 N 
ATOM      5  C   UNL     1     -11.184 -43.817  28.099  1.00  0.00     0.065 C 
ATOM      6  C   UNL     1     -11.631 -46.182  29.786  1.00  0.00     0.262 C 
ATOM      7  C   UNL     1     -11.546 -46.285  28.266  1.00  0.00     0.065 C 
ATOM      8  H   UNL     1      -9.836 -45.184  29.962  1.00  0.00     0.348 HD
BRANCH   4   9
ATOM      9  C   UNL     1     -10.770 -44.884  31.765  1.00  0.00     0.299 C 
BRANCH   9  10
ATOM     10  C   UNL     1     -11.912 -44.077  32.325  1.00  0.00     0.006 A 
ATOM     11  C   UNL     1     -13.242 -44.461  32.089  1.00  0.00     0.009 A 
ATOM     12  C   UNL     1     -11.664 -42.918  33.079  1.00  0.00     0.009 A 
ATOM     13  C   UNL     1     -14.298 -43.701  32.595  1.00  0.00     0.001 A 
ATOM     14  C   UNL     1     -12.724 -42.162  33.585  1.00  0.00     0.001 A 
ATOM     15  C   UNL     1     -14.038 -42.553  33.341  1.00  0.00     0.000 A 
ENDBRANCH   9  10
ENDBRANCH   4   9
ENDBRANCH   1   2
BRANCH   1  16
ATOM     16  C   UNL     1     -14.096 -43.923  26.487  1.00  0.00     0.061 C 
BRANCH  16  17
ATOM     17  C   UNL     1     -15.421 -43.317  26.804  1.00  0.00     0.091 A 
ATOM     18  C   UNL     1     -16.444 -42.903  25.912  1.00  0.00     0.045 A 
ATOM     19  N   UNL     1     -15.783 -43.147  28.085  1.00  0.00    -0.084 NA
ATOM     20  C   UNL     1     -16.647 -42.856  24.525  1.00  0.00     0.018 A 
ATOM     21  C   UNL     1     -17.457 -42.467  26.748  1.00  0.00     0.170 A 
ATOM     22  O   UNL     1     -17.062 -42.610  28.041  1.00  0.00    -0.356 OA
ATOM     23  C   UNL     1     -17.877 -42.366  24.054  1.00  0.00     0.047 A 
ATOM     24  C   UNL     1     -18.688 -41.973  26.316  1.00  0.00     0.097 A 
ATOM     25  C   UNL     1     -18.886 -41.937  24.929  1.00  0.00     0.122 A 
BRANCH  25  26
ATOM     26  O   UNL     1     -20.029 -41.516  24.300  1.00  0.00    -0.497 OA
ATOM     27  C   UNL     1     -19.885 -40.966  22.993  1.00  0.00     0.278 C 
ENDBRANCH  25  26
ENDBRANCH  16  17
ENDBRANCH   1  16
TORSDOF 6
ENDMDL
