MODEL 1
REMARK VINA RESULT:   -12.061      0.000      0.000
REMARK INTER + INTRA:         -16.885
REMARK INTER:                 -16.292
REMARK INTRA:                  -0.593
REMARK UNBOUND:                -0.593
REMARK SMILES COc1cc2c(cc1OC)C(=O)/C(=C/c1cc[n+](Cc3cccc(Br)c3)cc1)C2
REMARK SMILES IDX 15 1 16 2 17 3 18 4 27 5 28 6 14 7 13 8 3 9 4 10 8 11 5 12
REMARK SMILES IDX 7 13 6 14 29 15 11 16 12 17 2 18 1 19 9 20 10 21 19 22 20 23
REMARK SMILES IDX 21 24 26 25 22 26 24 27 23 28 25 29
REMARK H PARENT
ROOT
ATOM      1  C   UNL     1     -13.082 -44.127  27.546  1.00  0.00    -0.013 A 
ATOM      2  C   UNL     1     -13.808 -45.042  28.305  1.00  0.00     0.079 A 
ATOM      3  C   UNL     1     -13.376 -45.372  29.584  1.00  0.00     0.309 A 
ATOM      4  N   UNL     1     -12.264 -44.805  30.105  1.00  0.00    -0.201 N 
ATOM      5  C   UNL     1     -11.547 -43.910  29.384  1.00  0.00     0.309 A 
ATOM      6  C   UNL     1     -11.942 -43.552  28.099  1.00  0.00     0.079 A 
ENDROOT
BRANCH   1   7
ATOM      7  C   UNL     1     -13.575 -43.748  26.223  1.00  0.00     0.016 C 
BRANCH   7   8
ATOM      8  C   UNL     1     -14.828 -43.366  25.941  1.00  0.00     0.005 C 
ATOM      9  C   UNL     1     -19.199 -41.854  25.053  1.00  0.00     0.161 A 
ATOM     10  C   UNL     1     -18.312 -42.052  26.123  1.00  0.00     0.055 A 
ATOM     11  C   UNL     1     -18.808 -42.167  23.720  1.00  0.00     0.161 A 
ATOM     12  C   UNL     1     -17.050 -42.557  25.852  1.00  0.00    -0.028 A 
ATOM     13  C   UNL     1     -17.531 -42.675  23.463  1.00  0.00     0.063 A 
ATOM     14  C   UNL     1     -16.685 -42.856  24.541  1.00  0.00     0.030 A 
ATOM     15  C   UNL     1     -15.943 -42.854  26.820  1.00  0.00     0.076 C 
ATOM     16  C   UNL     1     -15.313 -43.365  24.525  1.00  0.00     0.189 C 
ATOM     17  O   UNL     1     -14.685 -43.717  23.547  1.00  0.00    -0.289 OA
BRANCH   9  18
ATOM     18  O   UNL     1     -20.475 -41.361  25.193  1.00  0.00    -0.493 OA
ATOM     19  C   UNL     1     -21.029 -41.298  26.499  1.00  0.00     0.278 C 
ENDBRANCH   9  18
BRANCH  11  20
ATOM     20  O   UNL     1     -19.753 -41.935  22.750  1.00  0.00    -0.493 OA
ATOM     21  C   UNL     1     -19.500 -40.898  21.812  1.00  0.00     0.278 C 
ENDBRANCH  11  20
ENDBRANCH   7   8
ENDBRANCH   1   7
BRANCH   4  22
ATOM     22  C   UNL     1     -11.818 -45.169  31.476  1.00  0.00     0.393 C 
BRANCH  22  23
ATOM     23  C   UNL     1     -10.324 -45.360  31.531  1.00  0.00     0.018 A 
ATOM     24  C   UNL     1      -9.739 -46.531  31.021  1.00  0.00     0.010 A 
ATOM     25  C   UNL     1      -9.493 -44.381  32.100  1.00  0.00     0.026 A 
ATOM     26  C   UNL     1      -8.354 -46.710  31.066  1.00  0.00     0.002 A 
ATOM     27  C   UNL     1      -8.109 -44.569  32.139  1.00  0.00     0.018 A 
ATOM     28  C   UNL     1      -7.537 -45.727  31.622  1.00  0.00     0.016 A 
ATOM     29  Br  UNL     1      -7.010 -43.234  32.900  1.00  0.00    -0.051 Br
ENDBRANCH  22  23
ENDBRANCH   4  22
TORSDOF 6
ENDMDL
MODEL 2
REMARK VINA RESULT:   -11.729      1.030      1.515
REMARK INTER + INTRA:         -16.436
REMARK INTER:                 -15.904
REMARK INTRA:                  -0.532
REMARK UNBOUND:                -0.593
REMARK SMILES COc1cc2c(cc1OC)C(=O)/C(=C/c1cc[n+](Cc3cccc(Br)c3)cc1)C2
REMARK SMILES IDX 15 1 16 2 17 3 18 4 27 5 28 6 14 7 13 8 3 9 4 10 8 11 5 12
REMARK SMILES IDX 7 13 6 14 29 15 11 16 12 17 2 18 1 19 9 20 10 21 19 22 20 23
REMARK SMILES IDX 21 24 26 25 22 26 24 27 23 28 25 29
REMARK H PARENT
ROOT
ATOM      1  C   UNL     1     -13.041 -43.964  27.348  1.00  0.00    -0.013 A 
ATOM      2  C   UNL     1     -11.770 -43.609  27.791  1.00  0.00     0.079 A 
ATOM      3  C   UNL     1     -11.181 -44.315  28.834  1.00  0.00     0.309 A 
ATOM      4  N   UNL     1     -11.827 -45.351  29.417  1.00  0.00    -0.201 N 
ATOM      5  C   UNL     1     -13.063 -45.714  28.997  1.00  0.00     0.309 A 
ATOM      6  C   UNL     1     -13.689 -45.034  27.959  1.00  0.00     0.079 A 
ENDROOT
BRANCH   1   7
ATOM      7  C   UNL     1     -13.628 -43.249  26.216  1.00  0.00     0.016 C 
BRANCH   7   8
ATOM      8  C   UNL     1     -14.939 -43.043  26.023  1.00  0.00     0.005 C 
ATOM      9  C   UNL     1     -19.527 -42.147  25.451  1.00  0.00     0.161 A 
ATOM     10  C   UNL     1     -18.554 -42.246  26.459  1.00  0.00     0.055 A 
ATOM     11  C   UNL     1     -19.181 -42.363  24.086  1.00  0.00     0.161 A 
ATOM     12  C   UNL     1     -17.253 -42.557  26.095  1.00  0.00    -0.028 A 
ATOM     13  C   UNL     1     -17.864 -42.675  23.736  1.00  0.00     0.063 A 
ATOM     14  C   UNL     1     -16.934 -42.764  24.755  1.00  0.00     0.030 A 
ATOM     15  C   UNL     1     -16.056 -42.720  26.984  1.00  0.00     0.076 C 
ATOM     16  C   UNL     1     -15.508 -43.071  24.639  1.00  0.00     0.189 C 
ATOM     17  O   UNL     1     -14.900 -43.301  23.613  1.00  0.00    -0.289 OA
BRANCH   9  18
ATOM     18  O   UNL     1     -20.847 -41.845  25.685  1.00  0.00    -0.493 OA
ATOM     19  C   UNL     1     -21.155 -40.971  26.760  1.00  0.00     0.278 C 
ENDBRANCH   9  18
BRANCH  11  20
ATOM     20  O   UNL     1     -20.209 -42.241  23.184  1.00  0.00    -0.493 OA
ATOM     21  C   UNL     1     -19.952 -41.534  21.978  1.00  0.00     0.278 C 
ENDBRANCH  11  20
ENDBRANCH   7   8
ENDBRANCH   1   7
BRANCH   4  22
ATOM     22  C   UNL     1     -11.181 -46.095  30.530  1.00  0.00     0.393 C 
BRANCH  22  23
ATOM     23  C   UNL     1     -10.230 -45.212  31.297  1.00  0.00     0.018 A 
ATOM     24  C   UNL     1      -8.843 -45.366  31.149  1.00  0.00     0.010 A 
ATOM     25  C   UNL     1     -10.712 -44.231  32.179  1.00  0.00     0.026 A 
ATOM     26  C   UNL     1      -7.958 -44.546  31.854  1.00  0.00     0.002 A 
ATOM     27  C   UNL     1      -9.820 -43.415  32.879  1.00  0.00     0.018 A 
ATOM     28  C   UNL     1      -8.446 -43.567  32.718  1.00  0.00     0.016 A 
ATOM     29  Br  UNL     1     -10.490 -42.094  34.052  1.00  0.00    -0.051 Br
ENDBRANCH  22  23
ENDBRANCH   4  22
TORSDOF 6
ENDMDL
MODEL 3
REMARK VINA RESULT:   -10.888      2.618      3.982
REMARK INTER + INTRA:         -15.300
REMARK INTER:                 -14.721
REMARK INTRA:                  -0.578
REMARK UNBOUND:                -0.593
REMARK SMILES COc1cc2c(cc1OC)C(=O)/C(=C/c1cc[n+](Cc3cccc(Br)c3)cc1)C2
REMARK SMILES IDX 15 1 16 2 17 3 18 4 27 5 28 6 14 7 13 8 3 9 4 10 8 11 5 12
REMARK SMILES IDX 7 13 6 14 29 15 11 16 12 17 2 18 1 19 9 20 10 21 19 22 20 23
REMARK SMILES IDX 21 24 26 25 22 26 24 27 23 28 25 29
REMARK H PARENT
ROOT
ATOM      1  C   UNL     1     -15.446 -43.023  24.761  1.00  0.00    -0.013 A 
ATOM      2  C   UNL     1     -15.857 -42.482  25.976  1.00  0.00     0.079 A 
ATOM      3  C   UNL     1     -15.439 -43.065  27.168  1.00  0.00     0.309 A 
ATOM      4  N   UNL     1     -14.627 -44.147  27.158  1.00  0.00    -0.201 N 
ATOM      5  C   UNL     1     -14.213 -44.685  25.986  1.00  0.00     0.309 A 
ATOM      6  C   UNL     1     -14.609 -44.135  24.772  1.00  0.00     0.079 A 
ENDROOT
BRANCH   1   7
ATOM      7  C   UNL     1     -15.848 -42.371  23.517  1.00  0.00     0.016 C 
BRANCH   7   8
ATOM      8  C   UNL     1     -17.077 -41.910  23.244  1.00  0.00     0.005 C 
ATOM      9  C   UNL     1     -21.411 -40.232  22.478  1.00  0.00     0.161 A 
ATOM     10  C   UNL     1     -20.713 -41.093  23.340  1.00  0.00     0.055 A 
ATOM     11  C   UNL     1     -20.733 -39.559  21.422  1.00  0.00     0.161 A 
ATOM     12  C   UNL     1     -19.353 -41.272  23.140  1.00  0.00    -0.028 A 
ATOM     13  C   UNL     1     -19.360 -39.749  21.234  1.00  0.00     0.063 A 
ATOM     14  C   UNL     1     -18.707 -40.604  22.102  1.00  0.00     0.030 A 
ATOM     15  C   UNL     1     -18.407 -42.135  23.920  1.00  0.00     0.076 C 
ATOM     16  C   UNL     1     -17.287 -40.957  22.109  1.00  0.00     0.189 C 
ATOM     17  O   UNL     1     -16.438 -40.549  21.342  1.00  0.00    -0.289 OA
BRANCH   9  18
ATOM     18  O   UNL     1     -22.758 -39.975  22.574  1.00  0.00    -0.493 OA
ATOM     19  C   UNL     1     -23.315 -39.794  23.867  1.00  0.00     0.278 C 
ENDBRANCH   9  18
BRANCH  11  20
ATOM     20  O   UNL     1     -21.511 -38.741  20.640  1.00  0.00    -0.493 OA
ATOM     21  C   UNL     1     -21.044 -38.433  19.333  1.00  0.00     0.278 C 
ENDBRANCH  11  20
ENDBRANCH   7   8
ENDBRANCH   1   7
BRANCH   4  22
ATOM     22  C   UNL     1     -14.189 -44.755  28.442  1.00  0.00     0.393 C 
BRANCH  22  23
ATOM     23  C   UNL     1     -12.700 -44.994  28.452  1.00  0.00     0.018 A 
ATOM     24  C   UNL     1     -12.191 -46.302  28.396  1.00  0.00     0.010 A 
ATOM     25  C   UNL     1     -11.799 -43.920  28.528  1.00  0.00     0.026 A 
ATOM     26  C   UNL     1     -10.812 -46.527  28.400  1.00  0.00     0.002 A 
ATOM     27  C   UNL     1     -10.422 -44.155  28.531  1.00  0.00     0.018 A 
ATOM     28  C   UNL     1      -9.926 -45.453  28.464  1.00  0.00     0.016 A 
ATOM     29  Br  UNL     1      -9.228 -42.694  28.624  1.00  0.00    -0.051 Br
ENDBRANCH  22  23
ENDBRANCH   4  22
TORSDOF 6
ENDMDL
MODEL 4
REMARK VINA RESULT:   -10.733      1.679      2.750
REMARK INTER + INTRA:         -15.091
REMARK INTER:                 -14.860
REMARK INTRA:                  -0.230
REMARK UNBOUND:                -0.593
REMARK SMILES COc1cc2c(cc1OC)C(=O)/C(=C/c1cc[n+](Cc3cccc(Br)c3)cc1)C2
REMARK SMILES IDX 15 1 16 2 17 3 18 4 27 5 28 6 14 7 13 8 3 9 4 10 8 11 5 12
REMARK SMILES IDX 7 13 6 14 29 15 11 16 12 17 2 18 1 19 9 20 10 21 19 22 20 23
REMARK SMILES IDX 21 24 26 25 22 26 24 27 23 28 25 29
REMARK H PARENT
ROOT
ATOM      1  C   UNL     1     -13.484 -43.576  26.563  1.00  0.00    -0.013 A 
ATOM      2  C   UNL     1     -13.984 -44.800  27.003  1.00  0.00     0.079 A 
ATOM      3  C   UNL     1     -13.322 -45.494  28.008  1.00  0.00     0.309 A 
ATOM      4  N   UNL     1     -12.201 -44.988  28.572  1.00  0.00    -0.201 N 
ATOM      5  C   UNL     1     -11.701 -43.799  28.161  1.00  0.00     0.309 A 
ATOM      6  C   UNL     1     -12.331 -43.072  27.157  1.00  0.00     0.079 A 
ENDROOT
BRANCH   1   7
ATOM      7  C   UNL     1     -14.218 -42.830  25.543  1.00  0.00     0.016 C 
BRANCH   7   8
ATOM      8  C   UNL     1     -15.553 -42.735  25.461  1.00  0.00     0.005 C 
ATOM      9  C   UNL     1     -20.245 -42.579  25.091  1.00  0.00     0.161 A 
ATOM     10  C   UNL     1     -19.099 -42.813  24.314  1.00  0.00     0.055 A 
ATOM     11  C   UNL     1     -20.131 -42.268  26.475  1.00  0.00     0.161 A 
ATOM     12  C   UNL     1     -17.857 -42.735  24.926  1.00  0.00    -0.028 A 
ATOM     13  C   UNL     1     -18.872 -42.193  27.078  1.00  0.00     0.063 A 
ATOM     14  C   UNL     1     -17.766 -42.429  26.282  1.00  0.00     0.030 A 
ATOM     15  C   UNL     1     -16.505 -42.938  24.309  1.00  0.00     0.076 C 
ATOM     16  C   UNL     1     -16.358 -42.413  26.681  1.00  0.00     0.189 C 
ATOM     17  O   UNL     1     -15.925 -42.185  27.793  1.00  0.00    -0.289 OA
BRANCH   9  18
ATOM     18  O   UNL     1     -21.528 -42.628  24.600  1.00  0.00    -0.493 OA
ATOM     19  C   UNL     1     -21.706 -42.841  23.208  1.00  0.00     0.278 C 
ENDBRANCH   9  18
BRANCH  11  20
ATOM     20  O   UNL     1     -21.315 -42.058  27.139  1.00  0.00    -0.493 OA
ATOM     21  C   UNL     1     -21.920 -40.777  27.029  1.00  0.00     0.278 C 
ENDBRANCH  11  20
ENDBRANCH   7   8
ENDBRANCH   1   7
BRANCH   4  22
ATOM     22  C   UNL     1     -11.506 -45.745  29.648  1.00  0.00     0.393 C 
BRANCH  22  23
ATOM     23  C   UNL     1     -11.116 -44.838  30.787  1.00  0.00     0.018 A 
ATOM     24  C   UNL     1     -12.102 -44.175  31.535  1.00  0.00     0.010 A 
ATOM     25  C   UNL     1      -9.766 -44.633  31.114  1.00  0.00     0.026 A 
ATOM     26  C   UNL     1     -11.745 -43.338  32.596  1.00  0.00     0.002 A 
ATOM     27  C   UNL     1      -9.419 -43.794  32.177  1.00  0.00     0.018 A 
ATOM     28  C   UNL     1     -10.403 -43.150  32.920  1.00  0.00     0.016 A 
ATOM     29  Br  UNL     1      -7.597 -43.541  32.606  1.00  0.00    -0.051 Br
ENDBRANCH  22  23
ENDBRANCH   4  22
TORSDOF 6
ENDMDL
MODEL 5
REMARK VINA RESULT:   -10.611      4.865     10.540
REMARK INTER + INTRA:         -14.926
REMARK INTER:                 -14.377
REMARK INTRA:                  -0.549
REMARK UNBOUND:                -0.593
REMARK SMILES COc1cc2c(cc1OC)C(=O)/C(=C/c1cc[n+](Cc3cccc(Br)c3)cc1)C2
REMARK SMILES IDX 15 1 16 2 17 3 18 4 27 5 28 6 14 7 13 8 3 9 4 10 8 11 5 12
REMARK SMILES IDX 7 13 6 14 29 15 11 16 12 17 2 18 1 19 9 20 10 21 19 22 20 23
REMARK SMILES IDX 21 24 26 25 22 26 24 27 23 28 25 29
REMARK H PARENT
ROOT
ATOM      1  C   UNL     1     -13.934 -44.614  26.603  1.00  0.00    -0.013 A 
ATOM      2  C   UNL     1     -14.198 -45.070  25.314  1.00  0.00     0.079 A 
ATOM      3  C   UNL     1     -14.644 -44.179  24.345  1.00  0.00     0.309 A 
ATOM      4  N   UNL     1     -14.814 -42.869  24.638  1.00  0.00    -0.201 N 
ATOM      5  C   UNL     1     -14.559 -42.405  25.885  1.00  0.00     0.309 A 
ATOM      6  C   UNL     1     -14.113 -43.262  26.885  1.00  0.00     0.079 A 
ENDROOT
BRANCH   1   7
ATOM      7  C   UNL     1     -13.415 -45.549  27.599  1.00  0.00     0.016 C 
BRANCH   7   8
ATOM      8  C   UNL     1     -12.458 -45.275  28.497  1.00  0.00     0.005 C 
ATOM      9  C   UNL     1      -9.000 -44.210  31.511  1.00  0.00     0.161 A 
ATOM     10  C   UNL     1      -9.202 -44.768  30.239  1.00  0.00     0.055 A 
ATOM     11  C   UNL     1     -10.105 -43.768  32.292  1.00  0.00     0.161 A 
ATOM     12  C   UNL     1     -10.499 -44.876  29.761  1.00  0.00    -0.028 A 
ATOM     13  C   UNL     1     -11.407 -43.883  31.796  1.00  0.00     0.063 A 
ATOM     14  C   UNL     1     -11.567 -44.437  30.539  1.00  0.00     0.030 A 
ATOM     15  C   UNL     1     -10.959 -45.435  28.448  1.00  0.00     0.076 C 
ATOM     16  C   UNL     1     -12.818 -44.656  29.812  1.00  0.00     0.189 C 
ATOM     17  O   UNL     1     -13.936 -44.383  30.200  1.00  0.00    -0.289 OA
BRANCH   9  18
ATOM     18  O   UNL     1      -7.764 -44.051  32.093  1.00  0.00    -0.493 OA
ATOM     19  C   UNL     1      -6.848 -45.133  32.028  1.00  0.00     0.278 C 
ENDBRANCH   9  18
BRANCH  11  20
ATOM     20  O   UNL     1      -9.794 -43.239  33.521  1.00  0.00    -0.493 OA
ATOM     21  C   UNL     1     -10.577 -42.151  33.992  1.00  0.00     0.278 C 
ENDBRANCH  11  20
ENDBRANCH   7   8
ENDBRANCH   1   7
BRANCH   4  22
ATOM     22  C   UNL     1     -15.290 -41.930  23.588  1.00  0.00     0.393 C 
BRANCH  22  23
ATOM     23  C   UNL     1     -16.795 -41.858  23.563  1.00  0.00     0.018 A 
ATOM     24  C   UNL     1     -17.551 -42.458  24.583  1.00  0.00     0.010 A 
ATOM     25  C   UNL     1     -17.467 -41.202  22.519  1.00  0.00     0.026 A 
ATOM     26  C   UNL     1     -18.947 -42.388  24.567  1.00  0.00     0.002 A 
ATOM     27  C   UNL     1     -18.863 -41.137  22.512  1.00  0.00     0.018 A 
ATOM     28  C   UNL     1     -19.604 -41.724  23.532  1.00  0.00     0.016 A 
ATOM     29  Br  UNL     1     -19.746 -40.240  21.103  1.00  0.00    -0.051 Br
ENDBRANCH  22  23
ENDBRANCH   4  22
TORSDOF 6
ENDMDL
MODEL 6
REMARK VINA RESULT:   -10.484      1.593      2.110
REMARK INTER + INTRA:         -14.755
REMARK INTER:                 -14.623
REMARK INTRA:                  -0.132
REMARK UNBOUND:                -0.593
REMARK SMILES COc1cc2c(cc1OC)C(=O)/C(=C/c1cc[n+](Cc3cccc(Br)c3)cc1)C2
REMARK SMILES IDX 15 1 16 2 17 3 18 4 27 5 28 6 14 7 13 8 3 9 4 10 8 11 5 12
REMARK SMILES IDX 7 13 6 14 29 15 11 16 12 17 2 18 1 19 9 20 10 21 19 22 20 23
REMARK SMILES IDX 21 24 26 25 22 26 24 27 23 28 25 29
REMARK H PARENT
ROOT
ATOM      1  C   UNL     1     -14.427 -44.302  26.393  1.00  0.00    -0.013 A 
ATOM      2  C   UNL     1     -14.724 -43.863  27.681  1.00  0.00     0.079 A 
ATOM      3  C   UNL     1     -14.179 -44.523  28.776  1.00  0.00     0.309 A 
ATOM      4  N   UNL     1     -13.354 -45.581  28.603  1.00  0.00    -0.201 N 
ATOM      5  C   UNL     1     -13.050 -46.020  27.359  1.00  0.00     0.309 A 
ATOM      6  C   UNL     1     -13.575 -45.390  26.235  1.00  0.00     0.079 A 
ENDROOT
BRANCH   1   7
ATOM      7  C   UNL     1     -14.963 -43.568  25.248  1.00  0.00     0.016 C 
BRANCH   7   8
ATOM      8  C   UNL     1     -16.200 -43.058  25.163  1.00  0.00     0.005 C 
ATOM      9  C   UNL     1     -20.496 -41.134  25.004  1.00  0.00     0.161 A 
ATOM     10  C   UNL     1     -19.574 -41.666  25.919  1.00  0.00     0.055 A 
ATOM     11  C   UNL     1     -20.190 -41.085  23.614  1.00  0.00     0.161 A 
ATOM     12  C   UNL     1     -18.363 -42.141  25.441  1.00  0.00    -0.028 A 
ATOM     13  C   UNL     1     -18.964 -41.568  23.147  1.00  0.00     0.063 A 
ATOM     14  C   UNL     1     -18.082 -42.084  24.077  1.00  0.00     0.030 A 
ATOM     15  C   UNL     1     -17.235 -42.752  26.217  1.00  0.00     0.076 C 
ATOM     16  C   UNL     1     -16.750 -42.639  23.835  1.00  0.00     0.189 C 
ATOM     17  O   UNL     1     -16.193 -42.738  22.760  1.00  0.00    -0.289 OA
BRANCH   9  18
ATOM     18  O   UNL     1     -21.727 -40.633  25.355  1.00  0.00    -0.493 OA
ATOM     19  C   UNL     1     -22.421 -41.253  26.427  1.00  0.00     0.278 C 
ENDBRANCH   9  18
BRANCH  11  20
ATOM     20  O   UNL     1     -21.161 -40.544  22.808  1.00  0.00    -0.493 OA
ATOM     21  C   UNL     1     -20.871 -39.320  22.149  1.00  0.00     0.278 C 
ENDBRANCH  11  20
ENDBRANCH   7   8
ENDBRANCH   1   7
BRANCH   4  22
ATOM     22  C   UNL     1     -12.780 -46.274  29.787  1.00  0.00     0.393 C 
BRANCH  22  23
ATOM     23  C   UNL     1     -11.428 -45.710  30.146  1.00  0.00     0.018 A 
ATOM     24  C   UNL     1     -10.735 -46.190  31.269  1.00  0.00     0.010 A 
ATOM     25  C   UNL     1     -10.845 -44.692  29.374  1.00  0.00     0.026 A 
ATOM     26  C   UNL     1      -9.480 -45.674  31.602  1.00  0.00     0.002 A 
ATOM     27  C   UNL     1      -9.589 -44.183  29.715  1.00  0.00     0.018 A 
ATOM     28  C   UNL     1      -8.904 -44.672  30.823  1.00  0.00     0.016 A 
ATOM     29  Br  UNL     1      -8.819 -42.821  28.657  1.00  0.00    -0.051 Br
ENDBRANCH  22  23
ENDBRANCH   4  22
TORSDOF 6
ENDMDL
MODEL 7
REMARK VINA RESULT:   -10.229      4.744     10.074
REMARK INTER + INTRA:         -14.411
REMARK INTER:                 -13.757
REMARK INTRA:                  -0.654
REMARK UNBOUND:                -0.593
REMARK SMILES COc1cc2c(cc1OC)C(=O)/C(=C/c1cc[n+](Cc3cccc(Br)c3)cc1)C2
REMARK SMILES IDX 15 1 16 2 17 3 18 4 27 5 28 6 14 7 13 8 3 9 4 10 8 11 5 12
REMARK SMILES IDX 7 13 6 14 29 15 11 16 12 17 2 18 1 19 9 20 10 21 19 22 20 23
REMARK SMILES IDX 21 24 26 25 22 26 24 27 23 28 25 29
REMARK H PARENT
ROOT
ATOM      1  C   UNL     1     -15.202 -43.073  25.816  1.00  0.00    -0.013 A 
ATOM      2  C   UNL     1     -15.968 -42.999  24.655  1.00  0.00     0.079 A 
ATOM      3  C   UNL     1     -17.315 -42.664  24.739  1.00  0.00     0.309 A 
ATOM      4  N   UNL     1     -17.886 -42.400  25.936  1.00  0.00    -0.201 N 
ATOM      5  C   UNL     1     -17.157 -42.463  27.075  1.00  0.00     0.309 A 
ATOM      6  C   UNL     1     -15.807 -42.796  27.038  1.00  0.00     0.079 A 
ENDROOT
BRANCH   1   7
ATOM      7  C   UNL     1     -13.775 -43.373  25.711  1.00  0.00     0.016 C 
BRANCH   7   8
ATOM      8  C   UNL     1     -12.945 -43.570  26.745  1.00  0.00     0.005 C 
ATOM      9  C   UNL     1     -10.111 -44.103  30.469  1.00  0.00     0.161 A 
ATOM     10  C   UNL     1     -10.522 -43.130  29.544  1.00  0.00     0.055 A 
ATOM     11  C   UNL     1     -10.623 -45.430  30.400  1.00  0.00     0.161 A 
ATOM     12  C   UNL     1     -11.436 -43.490  28.565  1.00  0.00    -0.028 A 
ATOM     13  C   UNL     1     -11.545 -45.777  29.408  1.00  0.00     0.063 A 
ATOM     14  C   UNL     1     -11.927 -44.793  28.515  1.00  0.00     0.030 A 
ATOM     15  C   UNL     1     -12.014 -42.635  27.477  1.00  0.00     0.076 C 
ATOM     16  C   UNL     1     -12.871 -44.912  27.404  1.00  0.00     0.189 C 
ATOM     17  O   UNL     1     -13.483 -45.910  27.080  1.00  0.00    -0.289 OA
BRANCH   9  18
ATOM     18  O   UNL     1      -9.212 -43.869  31.482  1.00  0.00    -0.493 OA
ATOM     19  C   UNL     1      -9.675 -43.206  32.648  1.00  0.00     0.278 C 
ENDBRANCH   9  18
BRANCH  11  20
ATOM     20  O   UNL     1     -10.154 -46.300  31.353  1.00  0.00    -0.493 OA
ATOM     21  C   UNL     1      -8.906 -46.935  31.115  1.00  0.00     0.278 C 
ENDBRANCH  11  20
ENDBRANCH   7   8
ENDBRANCH   1   7
BRANCH   4  22
ATOM     22  C   UNL     1     -19.328 -42.042  26.006  1.00  0.00     0.393 C 
BRANCH  22  23
ATOM     23  C   UNL     1     -20.168 -43.235  26.384  1.00  0.00     0.018 A 
ATOM     24  C   UNL     1     -20.430 -43.519  27.734  1.00  0.00     0.010 A 
ATOM     25  C   UNL     1     -20.694 -44.087  25.399  1.00  0.00     0.026 A 
ATOM     26  C   UNL     1     -21.212 -44.621  28.089  1.00  0.00     0.002 A 
ATOM     27  C   UNL     1     -21.476 -45.186  25.764  1.00  0.00     0.018 A 
ATOM     28  C   UNL     1     -21.739 -45.454  27.103  1.00  0.00     0.016 A 
ATOM     29  Br  UNL     1     -22.181 -46.313  24.422  1.00  0.00    -0.051 Br
ENDBRANCH  22  23
ENDBRANCH   4  22
TORSDOF 6
ENDMDL
MODEL 8
REMARK VINA RESULT:    -9.824      4.684     10.654
REMARK INTER + INTRA:         -13.863
REMARK INTER:                 -13.555
REMARK INTRA:                  -0.307
REMARK UNBOUND:                -0.593
REMARK SMILES COc1cc2c(cc1OC)C(=O)/C(=C/c1cc[n+](Cc3cccc(Br)c3)cc1)C2
REMARK SMILES IDX 15 1 16 2 17 3 18 4 27 5 28 6 14 7 13 8 3 9 4 10 8 11 5 12
REMARK SMILES IDX 7 13 6 14 29 15 11 16 12 17 2 18 1 19 9 20 10 21 19 22 20 23
REMARK SMILES IDX 21 24 26 25 22 26 24 27 23 28 25 29
REMARK H PARENT
ROOT
ATOM      1  C   UNL     1     -15.597 -43.361  25.707  1.00  0.00    -0.013 A 
ATOM      2  C   UNL     1     -16.314 -43.174  24.527  1.00  0.00     0.079 A 
ATOM      3  C   UNL     1     -17.591 -42.626  24.577  1.00  0.00     0.309 A 
ATOM      4  N   UNL     1     -18.140 -42.262  25.758  1.00  0.00    -0.201 N 
ATOM      5  C   UNL     1     -17.457 -42.433  26.915  1.00  0.00     0.309 A 
ATOM      6  C   UNL     1     -16.178 -42.979  26.912  1.00  0.00     0.079 A 
ENDROOT
BRANCH   1   7
ATOM      7  C   UNL     1     -14.236 -43.889  25.638  1.00  0.00     0.016 C 
BRANCH   7   8
ATOM      8  C   UNL     1     -13.492 -44.257  26.690  1.00  0.00     0.005 C 
ATOM      9  C   UNL     1     -10.811 -45.707  30.281  1.00  0.00     0.161 A 
ATOM     10  C   UNL     1     -11.786 -46.181  29.389  1.00  0.00     0.055 A 
ATOM     11  C   UNL     1     -10.371 -44.354  30.220  1.00  0.00     0.161 A 
ATOM     12  C   UNL     1     -12.308 -45.305  28.450  1.00  0.00    -0.028 A 
ATOM     13  C   UNL     1     -10.906 -43.483  29.267  1.00  0.00     0.063 A 
ATOM     14  C   UNL     1     -11.864 -43.985  28.405  1.00  0.00     0.030 A 
ATOM     15  C   UNL     1     -13.350 -45.578  27.407  1.00  0.00     0.076 C 
ATOM     16  C   UNL     1     -12.561 -43.276  27.332  1.00  0.00     0.189 C 
ATOM     17  O   UNL     1     -12.410 -42.113  27.018  1.00  0.00    -0.289 OA
BRANCH   9  18
ATOM     18  O   UNL     1     -10.220 -46.477  31.254  1.00  0.00    -0.493 OA
ATOM     19  C   UNL     1      -8.944 -47.035  30.984  1.00  0.00     0.278 C 
ENDBRANCH   9  18
BRANCH  11  20
ATOM     20  O   UNL     1      -9.415 -43.996  31.138  1.00  0.00    -0.493 OA
ATOM     21  C   UNL     1      -8.166 -43.529  30.648  1.00  0.00     0.278 C 
ENDBRANCH  11  20
ENDBRANCH   7   8
ENDBRANCH   1   7
BRANCH   4  22
ATOM     22  C   UNL     1     -19.506 -41.676  25.791  1.00  0.00     0.393 C 
BRANCH  22  23
ATOM     23  C   UNL     1     -20.148 -41.712  24.428  1.00  0.00     0.018 A 
ATOM     24  C   UNL     1     -20.818 -42.865  23.990  1.00  0.00     0.010 A 
ATOM     25  C   UNL     1     -20.080 -40.601  23.571  1.00  0.00     0.026 A 
ATOM     26  C   UNL     1     -21.419 -42.901  22.729  1.00  0.00     0.002 A 
ATOM     27  C   UNL     1     -20.685 -40.647  22.312  1.00  0.00     0.018 A 
ATOM     28  C   UNL     1     -21.356 -41.790  21.890  1.00  0.00     0.016 A 
ATOM     29  Br  UNL     1     -20.589 -39.138  21.179  1.00  0.00    -0.051 Br
ENDBRANCH  22  23
ENDBRANCH   4  22
TORSDOF 6
ENDMDL
MODEL 9
REMARK VINA RESULT:    -9.810      2.251      4.041
REMARK INTER + INTRA:         -13.844
REMARK INTER:                 -13.627
REMARK INTRA:                  -0.217
REMARK UNBOUND:                -0.593
REMARK SMILES COc1cc2c(cc1OC)C(=O)/C(=C/c1cc[n+](Cc3cccc(Br)c3)cc1)C2
REMARK SMILES IDX 15 1 16 2 17 3 18 4 27 5 28 6 14 7 13 8 3 9 4 10 8 11 5 12
REMARK SMILES IDX 7 13 6 14 29 15 11 16 12 17 2 18 1 19 9 20 10 21 19 22 20 23
REMARK SMILES IDX 21 24 26 25 22 26 24 27 23 28 25 29
REMARK H PARENT
ROOT
ATOM      1  C   UNL     1     -15.886 -43.187  25.184  1.00  0.00    -0.013 A 
ATOM      2  C   UNL     1     -15.858 -42.988  26.562  1.00  0.00     0.079 A 
ATOM      3  C   UNL     1     -14.952 -43.697  27.343  1.00  0.00     0.309 A 
ATOM      4  N   UNL     1     -14.090 -44.572  26.776  1.00  0.00    -0.201 N 
ATOM      5  C   UNL     1     -14.099 -44.776  25.437  1.00  0.00     0.309 A 
ATOM      6  C   UNL     1     -14.989 -44.089  24.619  1.00  0.00     0.079 A 
ENDROOT
BRANCH   1   7
ATOM      7  C   UNL     1     -16.805 -42.397  24.368  1.00  0.00     0.016 C 
BRANCH   7   8
ATOM      8  C   UNL     1     -18.050 -42.046  24.720  1.00  0.00     0.005 C 
ATOM      9  C   UNL     1     -22.347 -40.690  26.092  1.00  0.00     0.161 A 
ATOM     10  C   UNL     1     -21.142 -41.185  26.616  1.00  0.00     0.055 A 
ATOM     11  C   UNL     1     -22.491 -40.468  24.693  1.00  0.00     0.161 A 
ATOM     12  C   UNL     1     -20.098 -41.450  25.743  1.00  0.00    -0.028 A 
ATOM     13  C   UNL     1     -21.429 -40.740  23.825  1.00  0.00     0.063 A 
ATOM     14  C   UNL     1     -20.258 -41.225  24.377  1.00  0.00     0.030 A 
ATOM     15  C   UNL     1     -18.733 -41.981  26.064  1.00  0.00     0.076 C 
ATOM     16  C   UNL     1     -19.020 -41.577  23.681  1.00  0.00     0.189 C 
ATOM     17  O   UNL     1     -18.816 -41.498  22.486  1.00  0.00    -0.289 OA
BRANCH   9  18
ATOM     18  O   UNL     1     -23.451 -40.390  26.854  1.00  0.00    -0.493 OA
ATOM     19  C   UNL     1     -23.385 -39.262  27.713  1.00  0.00     0.278 C 
ENDBRANCH   9  18
BRANCH  11  20
ATOM     20  O   UNL     1     -23.711 -39.983  24.288  1.00  0.00    -0.493 OA
ATOM     21  C   UNL     1     -24.221 -40.430  23.040  1.00  0.00     0.278 C 
ENDBRANCH  11  20
ENDBRANCH   7   8
ENDBRANCH   1   7
BRANCH   4  22
ATOM     22  C   UNL     1     -13.127 -45.321  27.627  1.00  0.00     0.393 C 
BRANCH  22  23
ATOM     23  C   UNL     1     -12.133 -44.390  28.274  1.00  0.00     0.018 A 
ATOM     24  C   UNL     1     -11.686 -43.246  27.595  1.00  0.00     0.010 A 
ATOM     25  C   UNL     1     -11.630 -44.655  29.559  1.00  0.00     0.026 A 
ATOM     26  C   UNL     1     -10.768 -42.379  28.193  1.00  0.00     0.002 A 
ATOM     27  C   UNL     1     -10.714 -43.781  30.149  1.00  0.00     0.018 A 
ATOM     28  C   UNL     1     -10.284 -42.644  29.473  1.00  0.00     0.016 A 
ATOM     29  Br  UNL     1     -10.059 -44.151  31.882  1.00  0.00    -0.051 Br
ENDBRANCH  22  23
ENDBRANCH   4  22
TORSDOF 6
ENDMDL
