MODEL 1
REMARK VINA RESULT:    -9.649      0.000      0.000
REMARK INTER + INTRA:         -17.487
REMARK INTER:                 -15.853
REMARK INTRA:                  -1.634
REMARK UNBOUND:                -1.634
REMARK SMILES O=[N+]([O-])OCCC[NH2+]CCCCN=c1c2c([nH]c3ccccc13)CCCC2
REMARK SMILES IDX 9 1 10 2 11 3 12 4 13 5 14 6 17 7 16 8 18 9 15 10 24 11
REMARK SMILES IDX 19 12 23 13 27 14 25 15 20 16 22 17 26 18 21 19 8 21 7 24
REMARK SMILES IDX 6 25 5 26 4 27 2 28 1 29 3 30
REMARK H PARENT 17 20 8 22 8 23
ROOT
ATOM      1  C   UNL     1     -13.219 -43.962  26.967  1.00  0.00     0.260 C 
ENDROOT
BRANCH   1   2
ATOM      2  C   UNL     1     -13.648 -45.054  27.940  1.00  0.00     0.063 C 
BRANCH   2   3
ATOM      3  C   UNL     1     -12.752 -46.299  28.021  1.00  0.00     0.029 C 
BRANCH   3   4
ATOM      4  C   UNL     1     -11.349 -46.081  28.605  1.00  0.00     0.143 C 
BRANCH   4   5
ATOM      5  N   UNL     1     -11.380 -46.405  30.011  1.00  0.00    -0.284 NA
BRANCH   5   6
ATOM      6  C   UNL     1     -11.166 -45.562  30.960  1.00  0.00     0.072 A 
ATOM      7  N   UNL     1     -10.311 -43.230  32.292  1.00  0.00    -0.358 N 
ATOM      8  C   UNL     1     -11.657 -43.553  32.281  1.00  0.00     0.021 A 
ATOM      9  C   UNL     1      -9.354 -44.223  32.029  1.00  0.00     0.048 A 
ATOM     10  C   UNL     1     -12.148 -44.662  31.684  1.00  0.00    -0.003 A 
ATOM     11  C   UNL     1     -12.552 -42.591  33.041  1.00  0.00     0.054 C 
ATOM     12  C   UNL     1      -8.003 -44.013  32.326  1.00  0.00     0.027 A 
ATOM     13  C   UNL     1      -9.734 -45.405  31.382  1.00  0.00     0.024 A 
ATOM     14  C   UNL     1     -13.590 -45.071  31.814  1.00  0.00     0.039 C 
ATOM     15  C   UNL     1     -14.047 -42.845  32.860  1.00  0.00     0.007 C 
ATOM     16  C   UNL     1      -7.054 -44.995  32.029  1.00  0.00     0.002 A 
ATOM     17  C   UNL     1      -8.782 -46.389  31.080  1.00  0.00     0.012 A 
ATOM     18  C   UNL     1     -14.344 -44.334  32.923  1.00  0.00     0.005 C 
ATOM     19  C   UNL     1      -7.443 -46.184  31.415  1.00  0.00     0.001 A 
ATOM     20  H   UNL     1     -10.031 -42.535  32.979  1.00  0.00     0.166 HD
ENDBRANCH   5   6
ENDBRANCH   4   5
ENDBRANCH   3   4
ENDBRANCH   2   3
ENDBRANCH   1   2
BRANCH   1  21
ATOM     21  N   UNL     1     -12.558 -42.804  27.658  1.00  0.00    -0.346 N 
ATOM     22  H   UNL     1     -13.037 -41.938  27.377  1.00  0.00     0.346 HD
ATOM     23  H   UNL     1     -12.765 -42.917  28.659  1.00  0.00     0.346 HD
BRANCH  21  24
ATOM     24  C   UNL     1     -11.084 -42.680  27.439  1.00  0.00     0.262 C 
BRANCH  24  25
ATOM     25  C   UNL     1     -10.340 -42.634  28.769  1.00  0.00     0.089 C 
BRANCH  25  26
ATOM     26  C   UNL     1      -8.844 -42.916  28.645  1.00  0.00     0.214 C 
BRANCH  26  27
ATOM     27  O   UNL     1      -8.172 -41.669  28.505  1.00  0.00    -0.314 OA
BRANCH  27  28
ATOM     28  N   UNL     1      -7.657 -41.474  27.196  1.00  0.00     0.294 N 
ATOM     29  O   UNL     1      -6.941 -40.486  27.027  1.00  0.00    -0.109 OA
ATOM     30  O   UNL     1      -8.029 -42.335  26.405  1.00  0.00    -0.109 OA
ENDBRANCH  27  28
ENDBRANCH  26  27
ENDBRANCH  25  26
ENDBRANCH  24  25
ENDBRANCH  21  24
ENDBRANCH   1  21
TORSDOF 11
ENDMDL
MODEL 2
REMARK VINA RESULT:    -9.239      3.323      4.327
REMARK INTER + INTRA:         -16.814
REMARK INTER:                 -15.377
REMARK INTRA:                  -1.437
REMARK UNBOUND:                -1.634
REMARK SMILES O=[N+]([O-])OCCC[NH2+]CCCCN=c1c2c([nH]c3ccccc13)CCCC2
REMARK SMILES IDX 9 1 10 2 11 3 12 4 13 5 14 6 17 7 16 8 18 9 15 10 24 11
REMARK SMILES IDX 19 12 23 13 27 14 25 15 20 16 22 17 26 18 21 19 8 21 7 24
REMARK SMILES IDX 6 25 5 26 4 27 2 28 1 29 3 30
REMARK H PARENT 17 20 8 22 8 23
ROOT
ATOM      1  C   UNL     1     -12.316 -44.036  27.694  1.00  0.00     0.260 C 
ENDROOT
BRANCH   1   2
ATOM      2  C   UNL     1     -12.758 -45.492  27.626  1.00  0.00     0.063 C 
BRANCH   2   3
ATOM      3  C   UNL     1     -11.803 -46.535  28.226  1.00  0.00     0.029 C 
BRANCH   3   4
ATOM      4  C   UNL     1     -10.489 -45.991  28.800  1.00  0.00     0.143 C 
BRANCH   4   5
ATOM      5  N   UNL     1     -10.444 -46.291  30.212  1.00  0.00    -0.284 NA
BRANCH   5   6
ATOM      6  C   UNL     1     -10.567 -45.417  31.149  1.00  0.00     0.072 A 
ATOM      7  N   UNL     1     -10.472 -42.944  32.497  1.00  0.00    -0.358 N 
ATOM      8  C   UNL     1     -11.691 -43.573  32.314  1.00  0.00     0.021 A 
ATOM      9  C   UNL     1      -9.284 -43.687  32.405  1.00  0.00     0.048 A 
ATOM     10  C   UNL     1     -11.823 -44.769  31.697  1.00  0.00    -0.003 A 
ATOM     11  C   UNL     1     -12.883 -42.844  32.908  1.00  0.00     0.054 C 
ATOM     12  C   UNL     1      -8.075 -43.166  32.877  1.00  0.00     0.027 A 
ATOM     13  C   UNL     1      -9.285 -44.928  31.757  1.00  0.00     0.024 A 
ATOM     14  C   UNL     1     -13.135 -45.504  31.643  1.00  0.00     0.039 C 
ATOM     15  C   UNL     1     -14.237 -43.441  32.533  1.00  0.00     0.007 C 
ATOM     16  C   UNL     1      -6.891 -43.899  32.749  1.00  0.00     0.002 A 
ATOM     17  C   UNL     1      -8.099 -45.663  31.626  1.00  0.00     0.012 A 
ATOM     18  C   UNL     1     -14.188 -44.959  32.610  1.00  0.00     0.005 C 
ATOM     19  C   UNL     1      -6.904 -45.149  32.133  1.00  0.00     0.001 A 
ATOM     20  H   UNL     1     -10.461 -42.200  33.190  1.00  0.00     0.166 HD
ENDBRANCH   5   6
ENDBRANCH   4   5
ENDBRANCH   3   4
ENDBRANCH   2   3
ENDBRANCH   1   2
BRANCH   1  21
ATOM     21  N   UNL     1     -13.181 -43.132  26.865  1.00  0.00    -0.346 N 
ATOM     22  H   UNL     1     -13.587 -42.413  27.478  1.00  0.00     0.346 HD
ATOM     23  H   UNL     1     -12.541 -42.626  26.238  1.00  0.00     0.346 HD
BRANCH  21  24
ATOM     24  C   UNL     1     -14.255 -43.814  26.077  1.00  0.00     0.262 C 
BRANCH  24  25
ATOM     25  C   UNL     1     -15.269 -42.802  25.555  1.00  0.00     0.089 C 
BRANCH  25  26
ATOM     26  C   UNL     1     -16.515 -42.678  26.429  1.00  0.00     0.214 C 
BRANCH  26  27
ATOM     27  O   UNL     1     -16.094 -42.353  27.750  1.00  0.00    -0.314 OA
BRANCH  27  28
ATOM     28  N   UNL     1     -17.111 -42.583  28.714  1.00  0.00     0.294 N 
ATOM     29  O   UNL     1     -18.259 -42.710  28.284  1.00  0.00    -0.109 OA
ATOM     30  O   UNL     1     -16.683 -42.605  29.863  1.00  0.00    -0.109 OA
ENDBRANCH  27  28
ENDBRANCH  26  27
ENDBRANCH  25  26
ENDBRANCH  24  25
ENDBRANCH  21  24
ENDBRANCH   1  21
TORSDOF 11
ENDMDL
MODEL 3
REMARK VINA RESULT:    -9.043      3.663      4.565
REMARK INTER + INTRA:         -16.492
REMARK INTER:                 -15.697
REMARK INTRA:                  -0.795
REMARK UNBOUND:                -1.634
REMARK SMILES O=[N+]([O-])OCCC[NH2+]CCCCN=c1c2c([nH]c3ccccc13)CCCC2
REMARK SMILES IDX 9 1 10 2 11 3 12 4 13 5 14 6 17 7 16 8 18 9 15 10 24 11
REMARK SMILES IDX 19 12 23 13 27 14 25 15 20 16 22 17 26 18 21 19 8 21 7 24
REMARK SMILES IDX 6 25 5 26 4 27 2 28 1 29 3 30
REMARK H PARENT 17 20 8 22 8 23
ROOT
ATOM      1  C   UNL     1     -12.878 -43.909  27.300  1.00  0.00     0.260 C 
ENDROOT
BRANCH   1   2
ATOM      2  C   UNL     1     -13.260 -45.380  27.186  1.00  0.00     0.063 C 
BRANCH   2   3
ATOM      3  C   UNL     1     -12.485 -46.367  28.072  1.00  0.00     0.029 C 
BRANCH   3   4
ATOM      4  C   UNL     1     -11.167 -45.849  28.662  1.00  0.00     0.143 C 
BRANCH   4   5
ATOM      5  N   UNL     1     -11.107 -46.223  30.055  1.00  0.00    -0.284 NA
BRANCH   5   6
ATOM      6  C   UNL     1     -10.991 -45.391  31.030  1.00  0.00     0.072 A 
ATOM      7  N   UNL     1     -10.368 -43.036  32.446  1.00  0.00    -0.358 N 
ATOM      8  C   UNL     1     -11.683 -43.462  32.381  1.00  0.00     0.021 A 
ATOM      9  C   UNL     1      -9.327 -43.943  32.193  1.00  0.00     0.048 A 
ATOM     10  C   UNL     1     -12.064 -44.591  31.741  1.00  0.00    -0.003 A 
ATOM     11  C   UNL     1     -12.676 -42.594  33.133  1.00  0.00     0.054 C 
ATOM     12  C   UNL     1      -8.008 -43.636  32.542  1.00  0.00     0.027 A 
ATOM     13  C   UNL     1      -9.591 -45.133  31.505  1.00  0.00     0.024 A 
ATOM     14  C   UNL     1     -13.473 -45.115  31.811  1.00  0.00     0.039 C 
ATOM     15  C   UNL     1     -14.139 -42.960  32.894  1.00  0.00     0.007 C 
ATOM     16  C   UNL     1      -6.974 -44.532  32.254  1.00  0.00     0.002 A 
ATOM     17  C   UNL     1      -8.555 -46.031  31.213  1.00  0.00     0.012 A 
ATOM     18  C   UNL     1     -14.319 -44.469  32.911  1.00  0.00     0.005 C 
ATOM     19  C   UNL     1      -7.247 -45.731  31.599  1.00  0.00     0.001 A 
ATOM     20  H   UNL     1     -10.166 -42.339  33.159  1.00  0.00     0.166 HD
ENDBRANCH   5   6
ENDBRANCH   4   5
ENDBRANCH   3   4
ENDBRANCH   2   3
ENDBRANCH   1   2
BRANCH   1  21
ATOM     21  N   UNL     1     -13.849 -43.007  26.595  1.00  0.00    -0.346 N 
ATOM     22  H   UNL     1     -14.281 -42.383  27.290  1.00  0.00     0.346 HD
ATOM     23  H   UNL     1     -13.281 -42.395  25.995  1.00  0.00     0.346 HD
BRANCH  21  24
ATOM     24  C   UNL     1     -14.902 -43.699  25.789  1.00  0.00     0.262 C 
BRANCH  24  25
ATOM     25  C   UNL     1     -15.871 -42.689  25.182  1.00  0.00     0.089 C 
BRANCH  25  26
ATOM     26  C   UNL     1     -16.077 -42.865  23.679  1.00  0.00     0.214 C 
BRANCH  26  27
ATOM     27  O   UNL     1     -15.550 -41.714  23.027  1.00  0.00    -0.314 OA
BRANCH  27  28
ATOM     28  N   UNL     1     -16.492 -41.109  22.152  1.00  0.00     0.294 N 
ATOM     29  O   UNL     1     -17.681 -41.243  22.447  1.00  0.00    -0.109 OA
ATOM     30  O   UNL     1     -15.964 -40.544  21.201  1.00  0.00    -0.109 OA
ENDBRANCH  27  28
ENDBRANCH  26  27
ENDBRANCH  25  26
ENDBRANCH  24  25
ENDBRANCH  21  24
ENDBRANCH   1  21
TORSDOF 11
ENDMDL
MODEL 4
REMARK VINA RESULT:    -8.649      2.297      4.526
REMARK INTER + INTRA:         -15.845
REMARK INTER:                 -14.339
REMARK INTRA:                  -1.506
REMARK UNBOUND:                -1.634
REMARK SMILES O=[N+]([O-])OCCC[NH2+]CCCCN=c1c2c([nH]c3ccccc13)CCCC2
REMARK SMILES IDX 9 1 10 2 11 3 12 4 13 5 14 6 17 7 16 8 18 9 15 10 24 11
REMARK SMILES IDX 19 12 23 13 27 14 25 15 20 16 22 17 26 18 21 19 8 21 7 24
REMARK SMILES IDX 6 25 5 26 4 27 2 28 1 29 3 30
REMARK H PARENT 17 20 8 22 8 23
ROOT
ATOM      1  C   UNL     1      -8.732 -43.164  29.969  1.00  0.00     0.260 C 
ENDROOT
BRANCH   1   2
ATOM      2  C   UNL     1      -7.664 -43.647  30.943  1.00  0.00     0.063 C 
BRANCH   2   3
ATOM      3  C   UNL     1      -7.951 -44.957  31.691  1.00  0.00     0.029 C 
BRANCH   3   4
ATOM      4  C   UNL     1      -8.664 -46.050  30.885  1.00  0.00     0.143 C 
BRANCH   4   5
ATOM      5  N   UNL     1      -9.995 -46.220  31.416  1.00  0.00    -0.284 NA
BRANCH   5   6
ATOM      6  C   UNL     1     -11.021 -45.535  31.049  1.00  0.00     0.072 A 
ATOM      7  N   UNL     1     -13.684 -44.900  30.380  1.00  0.00    -0.358 N 
ATOM      8  C   UNL     1     -13.078 -44.256  31.444  1.00  0.00     0.021 A 
ATOM      9  C   UNL     1     -12.895 -45.527  29.403  1.00  0.00     0.048 A 
ATOM     10  C   UNL     1     -11.799 -44.485  31.818  1.00  0.00    -0.003 A 
ATOM     11  C   UNL     1     -13.940 -43.219  32.140  1.00  0.00     0.054 C 
ATOM     12  C   UNL     1     -13.445 -45.916  28.177  1.00  0.00     0.027 A 
ATOM     13  C   UNL     1     -11.562 -45.849  29.684  1.00  0.00     0.024 A 
ATOM     14  C   UNL     1     -11.113 -43.667  32.878  1.00  0.00     0.039 C 
ATOM     15  C   UNL     1     -13.337 -42.657  33.425  1.00  0.00     0.007 C 
ATOM     16  C   UNL     1     -12.659 -46.570  27.225  1.00  0.00     0.002 A 
ATOM     17  C   UNL     1     -10.773 -46.508  28.731  1.00  0.00     0.012 A 
ATOM     18  C   UNL     1     -11.855 -42.377  33.238  1.00  0.00     0.005 C 
ATOM     19  C   UNL     1     -11.323 -46.859  27.497  1.00  0.00     0.001 A 
ATOM     20  H   UNL     1     -14.536 -44.468  30.031  1.00  0.00     0.166 HD
ENDBRANCH   5   6
ENDBRANCH   4   5
ENDBRANCH   3   4
ENDBRANCH   2   3
ENDBRANCH   1   2
BRANCH   1  21
ATOM     21  N   UNL     1      -8.162 -42.784  28.633  1.00  0.00    -0.346 N 
ATOM     22  H   UNL     1      -7.488 -42.019  28.769  1.00  0.00     0.346 HD
ATOM     23  H   UNL     1      -7.601 -43.590  28.326  1.00  0.00     0.346 HD
BRANCH  21  24
ATOM     24  C   UNL     1      -9.165 -42.415  27.586  1.00  0.00     0.262 C 
BRANCH  24  25
ATOM     25  C   UNL     1     -10.586 -42.576  28.115  1.00  0.00     0.089 C 
BRANCH  25  26
ATOM     26  C   UNL     1     -11.576 -43.079  27.067  1.00  0.00     0.214 C 
BRANCH  26  27
ATOM     27  O   UNL     1     -12.806 -42.388  27.258  1.00  0.00    -0.314 OA
BRANCH  27  28
ATOM     28  N   UNL     1     -13.857 -42.923  26.466  1.00  0.00     0.294 N 
ATOM     29  O   UNL     1     -13.586 -43.177  25.291  1.00  0.00    -0.109 OA
ATOM     30  O   UNL     1     -14.909 -43.040  27.086  1.00  0.00    -0.109 OA
ENDBRANCH  27  28
ENDBRANCH  26  27
ENDBRANCH  25  26
ENDBRANCH  24  25
ENDBRANCH  21  24
ENDBRANCH   1  21
TORSDOF 11
ENDMDL
MODEL 5
REMARK VINA RESULT:    -7.511      6.384     10.202
REMARK INTER + INTRA:         -13.975
REMARK INTER:                 -13.039
REMARK INTRA:                  -0.935
REMARK UNBOUND:                -1.634
REMARK SMILES O=[N+]([O-])OCCC[NH2+]CCCCN=c1c2c([nH]c3ccccc13)CCCC2
REMARK SMILES IDX 9 1 10 2 11 3 12 4 13 5 14 6 17 7 16 8 18 9 15 10 24 11
REMARK SMILES IDX 19 12 23 13 27 14 25 15 20 16 22 17 26 18 21 19 8 21 7 24
REMARK SMILES IDX 6 25 5 26 4 27 2 28 1 29 3 30
REMARK H PARENT 17 20 8 22 8 23
ROOT
ATOM      1  C   UNL     1     -13.835 -44.497  26.591  1.00  0.00     0.260 C 
ENDROOT
BRANCH   1   2
ATOM      2  C   UNL     1     -15.064 -43.875  25.940  1.00  0.00     0.063 C 
BRANCH   2   3
ATOM      3  C   UNL     1     -14.833 -43.074  24.650  1.00  0.00     0.029 C 
BRANCH   3   4
ATOM      4  C   UNL     1     -15.949 -43.154  23.600  1.00  0.00     0.143 C 
BRANCH   4   5
ATOM      5  N   UNL     1     -16.743 -41.951  23.679  1.00  0.00    -0.284 NA
BRANCH   5   6
ATOM      6  C   UNL     1     -18.007 -41.925  23.921  1.00  0.00     0.072 A 
ATOM      7  N   UNL     1     -20.743 -42.588  23.804  1.00  0.00    -0.358 N 
ATOM      8  C   UNL     1     -20.065 -42.711  25.003  1.00  0.00     0.021 A 
ATOM      9  C   UNL     1     -20.223 -41.769  22.789  1.00  0.00     0.048 A 
ATOM     10  C   UNL     1     -18.758 -42.394  25.151  1.00  0.00    -0.003 A 
ATOM     11  C   UNL     1     -20.910 -43.180  26.173  1.00  0.00     0.054 C 
ATOM     12  C   UNL     1     -21.015 -41.384  21.702  1.00  0.00     0.027 A 
ATOM     13  C   UNL     1     -18.873 -41.401  22.812  1.00  0.00     0.024 A 
ATOM     14  C   UNL     1     -18.080 -42.391  26.495  1.00  0.00     0.039 C 
ATOM     15  C   UNL     1     -20.116 -43.499  27.437  1.00  0.00     0.007 C 
ATOM     16  C   UNL     1     -20.478 -40.597  20.680  1.00  0.00     0.002 A 
ATOM     17  C   UNL     1     -18.332 -40.615  21.786  1.00  0.00     0.012 A 
ATOM     18  C   UNL     1     -19.051 -42.440  27.676  1.00  0.00     0.005 C 
ATOM     19  C   UNL     1     -19.141 -40.205  20.725  1.00  0.00     0.001 A 
ATOM     20  H   UNL     1     -21.758 -42.598  23.870  1.00  0.00     0.166 HD
ENDBRANCH   5   6
ENDBRANCH   4   5
ENDBRANCH   3   4
ENDBRANCH   2   3
ENDBRANCH   1   2
BRANCH   1  21
ATOM     21  N   UNL     1     -13.020 -43.494  27.355  1.00  0.00    -0.346 N 
ATOM     22  H   UNL     1     -12.668 -42.787  26.697  1.00  0.00     0.346 HD
ATOM     23  H   UNL     1     -13.684 -42.995  27.963  1.00  0.00     0.346 HD
BRANCH  21  24
ATOM     24  C   UNL     1     -11.895 -44.059  28.164  1.00  0.00     0.262 C 
BRANCH  24  25
ATOM     25  C   UNL     1     -11.870 -45.581  28.069  1.00  0.00     0.089 C 
BRANCH  25  26
ATOM     26  C   UNL     1     -12.276 -46.282  29.363  1.00  0.00     0.214 C 
BRANCH  26  27
ATOM     27  O   UNL     1     -13.558 -45.792  29.744  1.00  0.00    -0.314 OA
BRANCH  27  28
ATOM     28  N   UNL     1     -13.746 -45.805  31.152  1.00  0.00     0.294 N 
ATOM     29  O   UNL     1     -13.848 -46.911  31.684  1.00  0.00    -0.109 OA
ATOM     30  O   UNL     1     -13.796 -44.679  31.636  1.00  0.00    -0.109 OA
ENDBRANCH  27  28
ENDBRANCH  26  27
ENDBRANCH  25  26
ENDBRANCH  24  25
ENDBRANCH  21  24
ENDBRANCH   1  21
TORSDOF 11
ENDMDL
MODEL 6
REMARK VINA RESULT:    -7.407      8.770     12.168
REMARK INTER + INTRA:         -13.804
REMARK INTER:                 -11.866
REMARK INTRA:                  -1.938
REMARK UNBOUND:                -1.634
REMARK SMILES O=[N+]([O-])OCCC[NH2+]CCCCN=c1c2c([nH]c3ccccc13)CCCC2
REMARK SMILES IDX 9 1 10 2 11 3 12 4 13 5 14 6 17 7 16 8 18 9 15 10 24 11
REMARK SMILES IDX 19 12 23 13 27 14 25 15 20 16 22 17 26 18 21 19 8 21 7 24
REMARK SMILES IDX 6 25 5 26 4 27 2 28 1 29 3 30
REMARK H PARENT 17 20 8 22 8 23
ROOT
ATOM      1  C   UNL     1     -22.636 -43.411  21.378  1.00  0.00     0.260 C 
ENDROOT
BRANCH   1   2
ATOM      2  C   UNL     1     -22.160 -41.979  21.172  1.00  0.00     0.063 C 
BRANCH   2   3
ATOM      3  C   UNL     1     -20.742 -41.795  20.609  1.00  0.00     0.029 C 
BRANCH   3   4
ATOM      4  C   UNL     1     -19.686 -41.288  21.599  1.00  0.00     0.143 C 
BRANCH   4   5
ATOM      5  N   UNL     1     -19.475 -42.301  22.606  1.00  0.00    -0.284 NA
BRANCH   5   6
ATOM      6  C   UNL     1     -18.990 -42.077  23.778  1.00  0.00     0.072 A 
ATOM      7  N   UNL     1     -18.491 -42.354  26.537  1.00  0.00    -0.358 N 
ATOM      8  C   UNL     1     -17.444 -42.478  25.641  1.00  0.00     0.021 A 
ATOM      9  C   UNL     1     -19.670 -41.698  26.147  1.00  0.00     0.048 A 
ATOM     10  C   UNL     1     -17.593 -42.339  24.304  1.00  0.00    -0.003 A 
ATOM     11  C   UNL     1     -16.087 -42.731  26.272  1.00  0.00     0.054 C 
ATOM     12  C   UNL     1     -20.611 -41.290  27.097  1.00  0.00     0.027 A 
ATOM     13  C   UNL     1     -19.953 -41.524  24.787  1.00  0.00     0.024 A 
ATOM     14  C   UNL     1     -16.419 -42.327  23.362  1.00  0.00     0.039 C 
ATOM     15  C   UNL     1     -14.979 -43.060  25.273  1.00  0.00     0.007 C 
ATOM     16  C   UNL     1     -21.797 -40.668  26.696  1.00  0.00     0.002 A 
ATOM     17  C   UNL     1     -21.144 -40.904  24.383  1.00  0.00     0.012 A 
ATOM     18  C   UNL     1     -15.070 -42.147  24.061  1.00  0.00     0.005 C 
ATOM     19  C   UNL     1     -22.060 -40.467  25.342  1.00  0.00     0.001 A 
ATOM     20  H   UNL     1     -18.224 -42.216  27.509  1.00  0.00     0.166 HD
ENDBRANCH   5   6
ENDBRANCH   4   5
ENDBRANCH   3   4
ENDBRANCH   2   3
ENDBRANCH   1   2
BRANCH   1  21
ATOM     21  N   UNL     1     -21.856 -44.129  22.441  1.00  0.00    -0.346 N 
ATOM     22  H   UNL     1     -21.581 -45.052  22.079  1.00  0.00     0.346 HD
ATOM     23  H   UNL     1     -20.977 -43.605  22.548  1.00  0.00     0.346 HD
BRANCH  21  24
ATOM     24  C   UNL     1     -22.545 -44.271  23.761  1.00  0.00     0.262 C 
BRANCH  24  25
ATOM     25  C   UNL     1     -21.569 -44.743  24.834  1.00  0.00     0.089 C 
BRANCH  25  26
ATOM     26  C   UNL     1     -22.088 -44.556  26.258  1.00  0.00     0.214 C 
BRANCH  26  27
ATOM     27  O   UNL     1     -21.180 -45.202  27.144  1.00  0.00    -0.314 OA
BRANCH  27  28
ATOM     28  N   UNL     1     -21.140 -44.585  28.423  1.00  0.00     0.294 N 
ATOM     29  O   UNL     1     -20.098 -43.997  28.718  1.00  0.00    -0.109 OA
ATOM     30  O   UNL     1     -22.172 -44.750  29.064  1.00  0.00    -0.109 OA
ENDBRANCH  27  28
ENDBRANCH  26  27
ENDBRANCH  25  26
ENDBRANCH  24  25
ENDBRANCH  21  24
ENDBRANCH   1  21
TORSDOF 11
ENDMDL
MODEL 7
REMARK VINA RESULT:    -7.391      3.622      5.761
REMARK INTER + INTRA:         -13.778
REMARK INTER:                 -13.556
REMARK INTRA:                  -0.222
REMARK UNBOUND:                -1.634
REMARK SMILES O=[N+]([O-])OCCC[NH2+]CCCCN=c1c2c([nH]c3ccccc13)CCCC2
REMARK SMILES IDX 9 1 10 2 11 3 12 4 13 5 14 6 17 7 16 8 18 9 15 10 24 11
REMARK SMILES IDX 19 12 23 13 27 14 25 15 20 16 22 17 26 18 21 19 8 21 7 24
REMARK SMILES IDX 6 25 5 26 4 27 2 28 1 29 3 30
REMARK H PARENT 17 20 8 22 8 23
ROOT
ATOM      1  C   UNL     1     -14.179 -44.636  27.935  1.00  0.00     0.260 C 
ENDROOT
BRANCH   1   2
ATOM      2  C   UNL     1     -13.531 -45.559  28.959  1.00  0.00     0.063 C 
BRANCH   2   3
ATOM      3  C   UNL     1     -12.190 -46.197  28.566  1.00  0.00     0.029 C 
BRANCH   3   4
ATOM      4  C   UNL     1     -11.056 -46.065  29.589  1.00  0.00     0.143 C 
BRANCH   4   5
ATOM      5  N   UNL     1     -11.622 -45.664  30.855  1.00  0.00    -0.284 NA
BRANCH   5   6
ATOM      6  C   UNL     1     -11.250 -44.631  31.528  1.00  0.00     0.072 A 
ATOM      7  N   UNL     1     -10.779 -42.924  33.720  1.00  0.00    -0.358 N 
ATOM      8  C   UNL     1      -9.710 -43.367  32.961  1.00  0.00     0.021 A 
ATOM      9  C   UNL     1     -12.077 -42.962  33.186  1.00  0.00     0.048 A 
ATOM     10  C   UNL     1      -9.851 -44.170  31.881  1.00  0.00    -0.003 A 
ATOM     11  C   UNL     1      -8.354 -42.840  33.394  1.00  0.00     0.054 C 
ATOM     12  C   UNL     1     -13.122 -42.255  33.790  1.00  0.00     0.027 A 
ATOM     13  C   UNL     1     -12.356 -43.785  32.088  1.00  0.00     0.024 A 
ATOM     14  C   UNL     1      -8.694 -44.515  30.983  1.00  0.00     0.039 C 
ATOM     15  C   UNL     1      -7.170 -43.484  32.679  1.00  0.00     0.007 C 
ATOM     16  C   UNL     1     -14.417 -42.327  33.270  1.00  0.00     0.002 A 
ATOM     17  C   UNL     1     -13.655 -43.861  31.568  1.00  0.00     0.012 A 
ATOM     18  C   UNL     1      -7.463 -43.632  31.194  1.00  0.00     0.005 C 
ATOM     19  C   UNL     1     -14.683 -43.121  32.156  1.00  0.00     0.001 A 
ATOM     20  H   UNL     1     -10.588 -42.132  34.328  1.00  0.00     0.166 HD
ENDBRANCH   5   6
ENDBRANCH   4   5
ENDBRANCH   3   4
ENDBRANCH   2   3
ENDBRANCH   1   2
BRANCH   1  21
ATOM     21  N   UNL     1     -13.664 -44.869  26.544  1.00  0.00    -0.346 N 
ATOM     22  H   UNL     1     -12.637 -44.916  26.578  1.00  0.00     0.346 HD
ATOM     23  H   UNL     1     -13.971 -45.816  26.283  1.00  0.00     0.346 HD
BRANCH  21  24
ATOM     24  C   UNL     1     -14.107 -43.875  25.518  1.00  0.00     0.262 C 
BRANCH  24  25
ATOM     25  C   UNL     1     -15.229 -42.998  26.061  1.00  0.00     0.089 C 
BRANCH  25  26
ATOM     26  C   UNL     1     -16.340 -42.728  25.048  1.00  0.00     0.214 C 
BRANCH  26  27
ATOM     27  O   UNL     1     -15.759 -42.084  23.919  1.00  0.00    -0.314 OA
BRANCH  27  28
ATOM     28  N   UNL     1     -16.670 -41.960  22.838  1.00  0.00     0.294 N 
ATOM     29  O   UNL     1     -17.632 -42.731  22.837  1.00  0.00    -0.109 OA
ATOM     30  O   UNL     1     -16.344 -41.091  22.036  1.00  0.00    -0.109 OA
ENDBRANCH  27  28
ENDBRANCH  26  27
ENDBRANCH  25  26
ENDBRANCH  24  25
ENDBRANCH  21  24
ENDBRANCH   1  21
TORSDOF 11
ENDMDL
MODEL 8
REMARK VINA RESULT:    -7.343      5.749      9.472
REMARK INTER + INTRA:         -13.699
REMARK INTER:                 -12.757
REMARK INTRA:                  -0.942
REMARK UNBOUND:                -1.634
REMARK SMILES O=[N+]([O-])OCCC[NH2+]CCCCN=c1c2c([nH]c3ccccc13)CCCC2
REMARK SMILES IDX 9 1 10 2 11 3 12 4 13 5 14 6 17 7 16 8 18 9 15 10 24 11
REMARK SMILES IDX 19 12 23 13 27 14 25 15 20 16 22 17 26 18 21 19 8 21 7 24
REMARK SMILES IDX 6 25 5 26 4 27 2 28 1 29 3 30
REMARK H PARENT 17 20 8 22 8 23
ROOT
ATOM      1  C   UNL     1     -13.680 -44.153  26.732  1.00  0.00     0.260 C 
ENDROOT
BRANCH   1   2
ATOM      2  C   UNL     1     -14.869 -44.081  25.782  1.00  0.00     0.063 C 
BRANCH   2   3
ATOM      3  C   UNL     1     -14.626 -43.417  24.418  1.00  0.00     0.029 C 
BRANCH   3   4
ATOM      4  C   UNL     1     -15.862 -43.235  23.528  1.00  0.00     0.143 C 
BRANCH   4   5
ATOM      5  N   UNL     1     -16.569 -42.053  23.958  1.00  0.00    -0.284 NA
BRANCH   5   6
ATOM      6  C   UNL     1     -17.835 -42.001  24.188  1.00  0.00     0.072 A 
ATOM      7  N   UNL     1     -20.582 -42.611  24.047  1.00  0.00    -0.358 N 
ATOM      8  C   UNL     1     -19.918 -42.742  25.253  1.00  0.00     0.021 A 
ATOM      9  C   UNL     1     -20.037 -41.806  23.034  1.00  0.00     0.048 A 
ATOM     10  C   UNL     1     -18.607 -42.450  25.412  1.00  0.00    -0.003 A 
ATOM     11  C   UNL     1     -20.783 -43.191  26.416  1.00  0.00     0.054 C 
ATOM     12  C   UNL     1     -20.811 -41.410  21.938  1.00  0.00     0.027 A 
ATOM     13  C   UNL     1     -18.680 -41.465  23.069  1.00  0.00     0.024 A 
ATOM     14  C   UNL     1     -17.942 -42.455  26.763  1.00  0.00     0.039 C 
ATOM     15  C   UNL     1     -20.008 -43.520  27.690  1.00  0.00     0.007 C 
ATOM     16  C   UNL     1     -20.249 -40.637  20.918  1.00  0.00     0.002 A 
ATOM     17  C   UNL     1     -18.114 -40.693  22.045  1.00  0.00     0.012 A 
ATOM     18  C   UNL     1     -18.925 -42.482  27.934  1.00  0.00     0.005 C 
ATOM     19  C   UNL     1     -18.905 -40.272  20.975  1.00  0.00     0.001 A 
ATOM     20  H   UNL     1     -21.598 -42.602  24.103  1.00  0.00     0.166 HD
ENDBRANCH   5   6
ENDBRANCH   4   5
ENDBRANCH   3   4
ENDBRANCH   2   3
ENDBRANCH   1   2
BRANCH   1  21
ATOM     21  N   UNL     1     -13.030 -42.817  26.941  1.00  0.00    -0.346 N 
ATOM     22  H   UNL     1     -13.051 -42.299  26.053  1.00  0.00     0.346 HD
ATOM     23  H   UNL     1     -13.651 -42.296  27.575  1.00  0.00     0.346 HD
BRANCH  21  24
ATOM     24  C   UNL     1     -11.638 -42.856  27.489  1.00  0.00     0.262 C 
BRANCH  24  25
ATOM     25  C   UNL     1     -11.402 -44.138  28.279  1.00  0.00     0.089 C 
BRANCH  25  26
ATOM     26  C   UNL     1     -10.946 -43.897  29.716  1.00  0.00     0.214 C 
BRANCH  26  27
ATOM     27  O   UNL     1     -10.121 -42.736  29.726  1.00  0.00    -0.314 OA
BRANCH  27  28
ATOM     28  N   UNL     1      -8.738 -43.055  29.754  1.00  0.00     0.294 N 
ATOM     29  O   UNL     1      -8.341 -43.699  30.727  1.00  0.00    -0.109 OA
ATOM     30  O   UNL     1      -8.127 -42.614  28.787  1.00  0.00    -0.109 OA
ENDBRANCH  27  28
ENDBRANCH  26  27
ENDBRANCH  25  26
ENDBRANCH  24  25
ENDBRANCH  21  24
ENDBRANCH   1  21
TORSDOF 11
ENDMDL
MODEL 9
REMARK VINA RESULT:    -7.068      9.602     12.512
REMARK INTER + INTRA:         -13.247
REMARK INTER:                 -12.130
REMARK INTRA:                  -1.118
REMARK UNBOUND:                -1.634
REMARK SMILES O=[N+]([O-])OCCC[NH2+]CCCCN=c1c2c([nH]c3ccccc13)CCCC2
REMARK SMILES IDX 9 1 10 2 11 3 12 4 13 5 14 6 17 7 16 8 18 9 15 10 24 11
REMARK SMILES IDX 19 12 23 13 27 14 25 15 20 16 22 17 26 18 21 19 8 21 7 24
REMARK SMILES IDX 6 25 5 26 4 27 2 28 1 29 3 30
REMARK H PARENT 17 20 8 22 8 23
ROOT
ATOM      1  C   UNL     1     -23.359 -43.402  27.020  1.00  0.00     0.260 C 
ENDROOT
BRANCH   1   2
ATOM      2  C   UNL     1     -22.669 -44.602  26.384  1.00  0.00     0.063 C 
BRANCH   2   3
ATOM      3  C   UNL     1     -21.133 -44.586  26.362  1.00  0.00     0.029 C 
BRANCH   3   4
ATOM      4  C   UNL     1     -20.484 -44.040  25.084  1.00  0.00     0.143 C 
BRANCH   4   5
ATOM      5  N   UNL     1     -19.684 -42.889  25.430  1.00  0.00    -0.284 NA
BRANCH   5   6
ATOM      6  C   UNL     1     -18.962 -42.224  24.597  1.00  0.00     0.072 A 
ATOM      7  N   UNL     1     -17.212 -41.670  22.459  1.00  0.00    -0.358 N 
ATOM      8  C   UNL     1     -18.499 -41.162  22.434  1.00  0.00     0.021 A 
ATOM      9  C   UNL     1     -16.648 -42.082  23.677  1.00  0.00     0.048 A 
ATOM     10  C   UNL     1     -19.394 -41.362  23.428  1.00  0.00    -0.003 A 
ATOM     11  C   UNL     1     -18.826 -40.306  21.224  1.00  0.00     0.054 C 
ATOM     12  C   UNL     1     -15.273 -42.309  23.790  1.00  0.00     0.027 A 
ATOM     13  C   UNL     1     -17.477 -42.355  24.772  1.00  0.00     0.024 A 
ATOM     14  C   UNL     1     -20.733 -40.676  23.451  1.00  0.00     0.039 C 
ATOM     15  C   UNL     1     -20.297 -39.915  21.108  1.00  0.00     0.007 C 
ATOM     16  C   UNL     1     -14.727 -42.752  24.998  1.00  0.00     0.002 A 
ATOM     17  C   UNL     1     -16.931 -42.803  25.983  1.00  0.00     0.012 A 
ATOM     18  C   UNL     1     -20.848 -39.511  22.466  1.00  0.00     0.005 C 
ATOM     19  C   UNL     1     -15.552 -42.991  26.096  1.00  0.00     0.001 A 
ATOM     20  H   UNL     1     -16.559 -41.245  21.805  1.00  0.00     0.166 HD
ENDBRANCH   5   6
ENDBRANCH   4   5
ENDBRANCH   3   4
ENDBRANCH   2   3
ENDBRANCH   1   2
BRANCH   1  21
ATOM     21  N   UNL     1     -23.346 -42.193  26.130  1.00  0.00    -0.346 N 
ATOM     22  H   UNL     1     -22.988 -42.469  25.206  1.00  0.00     0.346 HD
ATOM     23  H   UNL     1     -24.332 -41.943  25.976  1.00  0.00     0.346 HD
BRANCH  21  24
ATOM     24  C   UNL     1     -22.585 -41.016  26.653  1.00  0.00     0.262 C 
BRANCH  24  25
ATOM     25  C   UNL     1     -23.166 -39.712  26.117  1.00  0.00     0.089 C 
BRANCH  25  26
ATOM     26  C   UNL     1     -23.996 -38.944  27.144  1.00  0.00     0.214 C 
BRANCH  26  27
ATOM     27  O   UNL     1     -24.410 -37.719  26.547  1.00  0.00    -0.314 OA
BRANCH  27  28
ATOM     28  N   UNL     1     -23.914 -36.584  27.241  1.00  0.00     0.294 N 
ATOM     29  O   UNL     1     -23.725 -36.718  28.451  1.00  0.00    -0.109 OA
ATOM     30  O   UNL     1     -23.761 -35.609  26.513  1.00  0.00    -0.109 OA
ENDBRANCH  27  28
ENDBRANCH  26  27
ENDBRANCH  25  26
ENDBRANCH  24  25
ENDBRANCH  21  24
ENDBRANCH   1  21
TORSDOF 11
ENDMDL
