MODEL 1
REMARK VINA RESULT:   -12.453      0.000      0.000
REMARK INTER + INTRA:         -17.096
REMARK INTER:                 -16.457
REMARK INTRA:                  -0.640
REMARK UNBOUND:                -0.640
REMARK SMILES Oc1cc2cc3o[nH]c(CC[C@H]4CC[N@H+](Cc5ccccc5)CC4)c3cc2n1
REMARK SMILES IDX 10 1 9 2 8 3 7 4 6 5 25 6 5 7 26 8 4 9 27 10 3 11 28 12 2 13
REMARK SMILES IDX 1 15 11 17 12 18 24 19 13 20 23 21 14 22 15 23 16 25 17 26
REMARK SMILES IDX 18 27 22 28 19 29 21 30 20 31
REMARK H PARENT 8 14 1 16 15 24
ROOT
ATOM      1  C   UNL     1     -13.787 -43.827  26.372  1.00  0.00     0.058 C 
ENDROOT
BRANCH   1   2
ATOM      2  C   UNL     1     -14.809 -43.406  25.364  1.00  0.00     0.060 A 
ATOM      3  N   UNL     1     -14.546 -43.462  23.996  1.00  0.00    -0.226 N 
ATOM      4  O   UNL     1     -15.708 -43.120  23.252  1.00  0.00    -0.382 OA
ATOM      5  C   UNL     1     -16.616 -42.762  24.231  1.00  0.00     0.164 A 
ATOM      6  C   UNL     1     -16.052 -42.954  25.562  1.00  0.00     0.044 A 
ATOM      7  C   UNL     1     -17.871 -42.313  24.055  1.00  0.00     0.061 A 
ATOM      8  C   UNL     1     -16.808 -42.692  26.771  1.00  0.00     0.043 A 
ATOM      9  C   UNL     1     -18.626 -42.032  25.265  1.00  0.00     0.009 A 
ATOM     10  C   UNL     1     -18.060 -42.241  26.604  1.00  0.00     0.075 A 
ATOM     11  C   UNL     1     -19.877 -41.580  25.378  1.00  0.00     0.078 A 
ATOM     12  N   UNL     1     -18.990 -41.906  27.551  1.00  0.00    -0.214 NA
ATOM     13  C   UNL     1     -19.994 -41.542  26.820  1.00  0.00     0.211 A 
ATOM     14  H   UNL     1     -14.143 -44.344  23.687  1.00  0.00     0.208 HD
BRANCH  13  15
ATOM     15  O   UNL     1     -21.146 -41.126  27.331  1.00  0.00    -0.493 OA
ATOM     16  H   UNL     1     -20.990 -40.270  27.765  1.00  0.00     0.295 HD
ENDBRANCH  13  15
ENDBRANCH   1   2
BRANCH   1  17
ATOM     17  C   UNL     1     -13.808 -45.347  26.578  1.00  0.00     0.010 C 
BRANCH  17  18
ATOM     18  C   UNL     1     -13.109 -45.864  27.851  1.00  0.00     0.000 C 
ATOM     19  C   UNL     1     -11.585 -45.952  27.695  1.00  0.00     0.065 C 
ATOM     20  C   UNL     1     -13.459 -45.051  29.103  1.00  0.00     0.065 C 
ATOM     21  C   UNL     1     -10.934 -46.539  28.941  1.00  0.00     0.262 C 
ATOM     22  C   UNL     1     -12.804 -45.636  30.350  1.00  0.00     0.262 C 
ATOM     23  N   UNL     1     -11.307 -45.712  30.147  1.00  0.00    -0.331 N 
ATOM     24  H   UNL     1     -10.977 -44.753  29.984  1.00  0.00     0.348 HD
BRANCH  23  25
ATOM     25  C   UNL     1     -10.577 -46.193  31.387  1.00  0.00     0.299 C 
BRANCH  25  26
ATOM     26  C   UNL     1      -9.426 -45.306  31.774  1.00  0.00     0.006 A 
ATOM     27  C   UNL     1      -9.660 -44.044  32.343  1.00  0.00     0.009 A 
ATOM     28  C   UNL     1      -8.102 -45.735  31.591  1.00  0.00     0.009 A 
ATOM     29  C   UNL     1      -8.590 -43.233  32.726  1.00  0.00     0.001 A 
ATOM     30  C   UNL     1      -7.036 -44.921  31.977  1.00  0.00     0.001 A 
ATOM     31  C   UNL     1      -7.280 -43.673  32.545  1.00  0.00     0.000 A 
ENDBRANCH  25  26
ENDBRANCH  23  25
ENDBRANCH  17  18
ENDBRANCH   1  17
TORSDOF 6
ENDMDL
MODEL 2
REMARK VINA RESULT:   -12.236      1.631      2.420
REMARK INTER + INTRA:         -16.810
REMARK INTER:                 -16.295
REMARK INTRA:                  -0.515
REMARK UNBOUND:                -0.640
REMARK SMILES Oc1cc2cc3o[nH]c(CC[C@H]4CC[N@H+](Cc5ccccc5)CC4)c3cc2n1
REMARK SMILES IDX 10 1 9 2 8 3 7 4 6 5 25 6 5 7 26 8 4 9 27 10 3 11 28 12 2 13
REMARK SMILES IDX 1 15 11 17 12 18 24 19 13 20 23 21 14 22 15 23 16 25 17 26
REMARK SMILES IDX 18 27 22 28 19 29 21 30 20 31
REMARK H PARENT 8 14 1 16 15 24
ROOT
ATOM      1  C   UNL     1     -14.089 -43.501  26.587  1.00  0.00     0.058 C 
ENDROOT
BRANCH   1   2
ATOM      2  C   UNL     1     -15.513 -43.091  26.788  1.00  0.00     0.060 A 
ATOM      3  N   UNL     1     -16.063 -42.972  28.064  1.00  0.00    -0.226 N 
ATOM      4  O   UNL     1     -17.388 -42.463  27.989  1.00  0.00    -0.382 OA
ATOM      5  C   UNL     1     -17.623 -42.394  26.629  1.00  0.00     0.164 A 
ATOM      6  C   UNL     1     -16.437 -42.778  25.873  1.00  0.00     0.044 A 
ATOM      7  C   UNL     1     -18.757 -42.009  26.016  1.00  0.00     0.061 A 
ATOM      8  C   UNL     1     -16.399 -42.756  24.424  1.00  0.00     0.043 A 
ATOM      9  C   UNL     1     -18.728 -42.003  24.563  1.00  0.00     0.009 A 
ATOM     10  C   UNL     1     -17.527 -42.377  23.804  1.00  0.00     0.075 A 
ATOM     11  C   UNL     1     -19.703 -41.672  23.714  1.00  0.00     0.078 A 
ATOM     12  N   UNL     1     -17.781 -42.271  22.464  1.00  0.00    -0.214 NA
ATOM     13  C   UNL     1     -19.012 -41.873  22.458  1.00  0.00     0.211 A 
ATOM     14  H   UNL     1     -15.487 -42.442  28.715  1.00  0.00     0.208 HD
BRANCH  13  15
ATOM     15  O   UNL     1     -19.689 -41.633  21.342  1.00  0.00    -0.493 OA
ATOM     16  H   UNL     1     -20.241 -40.846  21.488  1.00  0.00     0.295 HD
ENDBRANCH  13  15
ENDBRANCH   1   2
BRANCH   1  17
ATOM     17  C   UNL     1     -13.949 -45.029  26.580  1.00  0.00     0.010 C 
BRANCH  17  18
ATOM     18  C   UNL     1     -13.228 -45.645  27.795  1.00  0.00     0.000 C 
ATOM     19  C   UNL     1     -11.703 -45.508  27.711  1.00  0.00     0.065 C 
ATOM     20  C   UNL     1     -13.729 -45.095  29.136  1.00  0.00     0.065 C 
ATOM     21  C   UNL     1     -11.019 -46.195  28.886  1.00  0.00     0.262 C 
ATOM     22  C   UNL     1     -13.041 -45.779  30.312  1.00  0.00     0.262 C 
ATOM     23  N   UNL     1     -11.542 -45.625  30.182  1.00  0.00    -0.331 N 
ATOM     24  H   UNL     1     -11.342 -44.618  30.186  1.00  0.00     0.348 HD
BRANCH  23  25
ATOM     25  C   UNL     1     -10.795 -46.197  31.372  1.00  0.00     0.299 C 
BRANCH  25  26
ATOM     26  C   UNL     1      -9.533 -45.446  31.691  1.00  0.00     0.006 A 
ATOM     27  C   UNL     1      -9.592 -44.153  32.235  1.00  0.00     0.009 A 
ATOM     28  C   UNL     1      -8.277 -46.033  31.469  1.00  0.00     0.009 A 
ATOM     29  C   UNL     1      -8.419 -43.467  32.556  1.00  0.00     0.001 A 
ATOM     30  C   UNL     1      -7.108 -45.343  31.793  1.00  0.00     0.001 A 
ATOM     31  C   UNL     1      -7.179 -44.063  32.337  1.00  0.00     0.000 A 
ENDBRANCH  25  26
ENDBRANCH  23  25
ENDBRANCH  17  18
ENDBRANCH   1  17
TORSDOF 6
ENDMDL
MODEL 3
REMARK VINA RESULT:   -12.008      3.595      8.299
REMARK INTER + INTRA:         -16.509
REMARK INTER:                 -15.294
REMARK INTRA:                  -1.214
REMARK UNBOUND:                -0.640
REMARK SMILES Oc1cc2cc3o[nH]c(CC[C@H]4CC[N@H+](Cc5ccccc5)CC4)c3cc2n1
REMARK SMILES IDX 10 1 9 2 8 3 7 4 6 5 25 6 5 7 26 8 4 9 27 10 3 11 28 12 2 13
REMARK SMILES IDX 1 15 11 17 12 18 24 19 13 20 23 21 14 22 15 23 16 25 17 26
REMARK SMILES IDX 18 27 22 28 19 29 21 30 20 31
REMARK H PARENT 8 14 1 16 15 24
ROOT
ATOM      1  C   UNL     1     -11.415 -46.292  30.231  1.00  0.00     0.058 C 
ENDROOT
BRANCH   1   2
ATOM      2  C   UNL     1     -11.082 -45.257  31.258  1.00  0.00     0.060 A 
ATOM      3  N   UNL     1      -9.771 -45.052  31.685  1.00  0.00    -0.226 N 
ATOM      4  O   UNL     1      -9.706 -43.945  32.574  1.00  0.00    -0.382 OA
ATOM      5  C   UNL     1     -11.031 -43.586  32.730  1.00  0.00     0.164 A 
ATOM      6  C   UNL     1     -11.897 -44.406  31.891  1.00  0.00     0.044 A 
ATOM      7  C   UNL     1     -11.525 -42.609  33.512  1.00  0.00     0.061 A 
ATOM      8  C   UNL     1     -13.332 -44.212  31.833  1.00  0.00     0.043 A 
ATOM      9  C   UNL     1     -12.966 -42.423  33.470  1.00  0.00     0.009 A 
ATOM     10  C   UNL     1     -13.834 -43.242  32.613  1.00  0.00     0.075 A 
ATOM     11  C   UNL     1     -13.710 -41.540  34.139  1.00  0.00     0.078 A 
ATOM     12  N   UNL     1     -15.134 -42.845  32.766  1.00  0.00    -0.214 NA
ATOM     13  C   UNL     1     -15.020 -41.888  33.630  1.00  0.00     0.211 A 
ATOM     14  H   UNL     1      -9.096 -44.972  30.928  1.00  0.00     0.208 HD
BRANCH  13  15
ATOM     15  O   UNL     1     -16.057 -41.197  34.084  1.00  0.00    -0.493 OA
ATOM     16  H   UNL     1     -16.211 -41.458  35.008  1.00  0.00     0.295 HD
ENDBRANCH  13  15
ENDBRANCH   1   2
BRANCH   1  17
ATOM     17  C   UNL     1     -10.741 -45.975  28.889  1.00  0.00     0.010 C 
BRANCH  17  18
ATOM     18  C   UNL     1     -11.602 -45.208  27.867  1.00  0.00     0.000 C 
ATOM     19  C   UNL     1     -13.043 -45.728  27.798  1.00  0.00     0.065 C 
ATOM     20  C   UNL     1     -11.603 -43.693  28.097  1.00  0.00     0.065 C 
ATOM     21  C   UNL     1     -13.844 -45.002  26.725  1.00  0.00     0.262 C 
ATOM     22  C   UNL     1     -12.408 -42.966  27.025  1.00  0.00     0.262 C 
ATOM     23  N   UNL     1     -13.817 -43.516  26.989  1.00  0.00    -0.331 N 
ATOM     24  H   UNL     1     -14.227 -43.355  27.917  1.00  0.00     0.348 HD
BRANCH  23  25
ATOM     25  C   UNL     1     -14.706 -42.771  26.011  1.00  0.00     0.299 C 
BRANCH  25  26
ATOM     26  C   UNL     1     -16.122 -42.625  26.496  1.00  0.00     0.006 A 
ATOM     27  C   UNL     1     -17.183 -42.545  25.580  1.00  0.00     0.009 A 
ATOM     28  C   UNL     1     -16.405 -42.589  27.870  1.00  0.00     0.009 A 
ATOM     29  C   UNL     1     -18.499 -42.437  26.033  1.00  0.00     0.001 A 
ATOM     30  C   UNL     1     -17.723 -42.482  28.317  1.00  0.00     0.001 A 
ATOM     31  C   UNL     1     -18.768 -42.408  27.400  1.00  0.00     0.000 A 
ENDBRANCH  25  26
ENDBRANCH  23  25
ENDBRANCH  17  18
ENDBRANCH   1  17
TORSDOF 6
ENDMDL
MODEL 4
REMARK VINA RESULT:   -11.865      3.633      9.321
REMARK INTER + INTRA:         -16.319
REMARK INTER:                 -15.459
REMARK INTRA:                  -0.860
REMARK UNBOUND:                -0.640
REMARK SMILES Oc1cc2cc3o[nH]c(CC[C@H]4CC[N@H+](Cc5ccccc5)CC4)c3cc2n1
REMARK SMILES IDX 10 1 9 2 8 3 7 4 6 5 25 6 5 7 26 8 4 9 27 10 3 11 28 12 2 13
REMARK SMILES IDX 1 15 11 17 12 18 24 19 13 20 23 21 14 22 15 23 16 25 17 26
REMARK SMILES IDX 18 27 22 28 19 29 21 30 20 31
REMARK H PARENT 8 14 1 16 15 24
ROOT
ATOM      1  C   UNL     1     -12.395 -46.145  30.002  1.00  0.00     0.058 C 
ENDROOT
BRANCH   1   2
ATOM      2  C   UNL     1     -12.815 -45.000  30.868  1.00  0.00     0.060 A 
ATOM      3  N   UNL     1     -14.138 -44.561  30.901  1.00  0.00    -0.226 N 
ATOM      4  O   UNL     1     -14.299 -43.543  31.880  1.00  0.00    -0.382 OA
ATOM      5  C   UNL     1     -13.010 -43.334  32.334  1.00  0.00     0.164 A 
ATOM      6  C   UNL     1     -12.078 -44.262  31.705  1.00  0.00     0.044 A 
ATOM      7  C   UNL     1     -12.603 -42.435  33.247  1.00  0.00     0.061 A 
ATOM      8  C   UNL     1     -10.666 -44.285  32.032  1.00  0.00     0.043 A 
ATOM      9  C   UNL     1     -11.184 -42.444  33.565  1.00  0.00     0.009 A 
ATOM     10  C   UNL     1     -10.250 -43.389  32.939  1.00  0.00     0.075 A 
ATOM     11  C   UNL     1     -10.520 -41.666  34.423  1.00  0.00     0.078 A 
ATOM     12  N   UNL     1      -8.990 -43.178  33.429  1.00  0.00    -0.214 NA
ATOM     13  C   UNL     1      -9.186 -42.204  34.258  1.00  0.00     0.211 A 
ATOM     14  H   UNL     1     -14.820 -45.307  31.013  1.00  0.00     0.208 HD
BRANCH  13  15
ATOM     15  O   UNL     1      -8.213 -41.661  34.978  1.00  0.00    -0.493 OA
ATOM     16  H   UNL     1      -8.136 -42.165  35.806  1.00  0.00     0.295 HD
ENDBRANCH  13  15
ENDBRANCH   1   2
BRANCH   1  17
ATOM     17  C   UNL     1     -11.449 -45.678  28.889  1.00  0.00     0.010 C 
BRANCH  17  18
ATOM     18  C   UNL     1     -12.113 -44.955  27.700  1.00  0.00     0.000 C 
ATOM     19  C   UNL     1     -13.545 -45.439  27.439  1.00  0.00     0.065 C 
ATOM     20  C   UNL     1     -12.093 -43.429  27.835  1.00  0.00     0.065 C 
ATOM     21  C   UNL     1     -14.143 -44.762  26.212  1.00  0.00     0.262 C 
ATOM     22  C   UNL     1     -12.695 -42.752  26.609  1.00  0.00     0.262 C 
ATOM     23  N   UNL     1     -14.101 -43.264  26.387  1.00  0.00    -0.331 N 
ATOM     24  H   UNL     1     -14.642 -43.030  27.228  1.00  0.00     0.348 HD
BRANCH  23  25
ATOM     25  C   UNL     1     -14.800 -42.559  25.239  1.00  0.00     0.299 C 
BRANCH  25  26
ATOM     26  C   UNL     1     -16.296 -42.540  25.385  1.00  0.00     0.006 A 
ATOM     27  C   UNL     1     -16.887 -42.454  26.656  1.00  0.00     0.009 A 
ATOM     28  C   UNL     1     -17.124 -42.585  24.252  1.00  0.00     0.009 A 
ATOM     29  C   UNL     1     -18.276 -42.408  26.788  1.00  0.00     0.001 A 
ATOM     30  C   UNL     1     -18.513 -42.539  24.390  1.00  0.00     0.001 A 
ATOM     31  C   UNL     1     -19.087 -42.448  25.656  1.00  0.00     0.000 A 
ENDBRANCH  25  26
ENDBRANCH  23  25
ENDBRANCH  17  18
ENDBRANCH   1  17
TORSDOF 6
ENDMDL
MODEL 5
REMARK VINA RESULT:   -11.483      3.524      9.832
REMARK INTER + INTRA:         -15.814
REMARK INTER:                 -15.156
REMARK INTRA:                  -0.659
REMARK UNBOUND:                -0.640
REMARK SMILES Oc1cc2cc3o[nH]c(CC[C@H]4CC[N@H+](Cc5ccccc5)CC4)c3cc2n1
REMARK SMILES IDX 10 1 9 2 8 3 7 4 6 5 25 6 5 7 26 8 4 9 27 10 3 11 28 12 2 13
REMARK SMILES IDX 1 15 11 17 12 18 24 19 13 20 23 21 14 22 15 23 16 25 17 26
REMARK SMILES IDX 18 27 22 28 19 29 21 30 20 31
REMARK H PARENT 8 14 1 16 15 24
ROOT
ATOM      1  C   UNL     1     -12.465 -46.083  29.895  1.00  0.00     0.058 C 
ENDROOT
BRANCH   1   2
ATOM      2  C   UNL     1     -12.282 -44.980  30.889  1.00  0.00     0.060 A 
ATOM      3  N   UNL     1     -13.365 -44.248  31.370  1.00  0.00    -0.226 N 
ATOM      4  O   UNL     1     -12.943 -43.341  32.380  1.00  0.00    -0.382 OA
ATOM      5  C   UNL     1     -11.570 -43.497  32.391  1.00  0.00     0.164 A 
ATOM      6  C   UNL     1     -11.155 -44.539  31.459  1.00  0.00     0.044 A 
ATOM      7  C   UNL     1     -10.680 -42.832  33.148  1.00  0.00     0.061 A 
ATOM      8  C   UNL     1      -9.769 -44.934  31.303  1.00  0.00     0.043 A 
ATOM      9  C   UNL     1      -9.287 -43.213  32.981  1.00  0.00     0.009 A 
ATOM     10  C   UNL     1      -8.873 -44.272  32.051  1.00  0.00     0.075 A 
ATOM     11  C   UNL     1      -8.210 -42.719  33.597  1.00  0.00     0.078 A 
ATOM     12  N   UNL     1      -7.515 -44.424  32.105  1.00  0.00    -0.214 NA
ATOM     13  C   UNL     1      -7.183 -43.534  32.984  1.00  0.00     0.211 A 
ATOM     14  H   UNL     1     -14.150 -44.820  31.676  1.00  0.00     0.208 HD
BRANCH  13  15
ATOM     15  O   UNL     1      -5.928 -43.324  33.361  1.00  0.00    -0.493 OA
ATOM     16  H   UNL     1      -5.920 -43.217  34.328  1.00  0.00     0.295 HD
ENDBRANCH  13  15
ENDBRANCH   1   2
BRANCH   1  17
ATOM     17  C   UNL     1     -11.565 -45.878  28.669  1.00  0.00     0.010 C 
BRANCH  17  18
ATOM     18  C   UNL     1     -12.199 -45.120  27.487  1.00  0.00     0.000 C 
ATOM     19  C   UNL     1     -13.555 -45.702  27.069  1.00  0.00     0.065 C 
ATOM     20  C   UNL     1     -12.333 -43.614  27.740  1.00  0.00     0.065 C 
ATOM     21  C   UNL     1     -14.116 -44.980  25.851  1.00  0.00     0.262 C 
ATOM     22  C   UNL     1     -12.899 -42.891  26.522  1.00  0.00     0.262 C 
ATOM     23  N   UNL     1     -14.229 -43.504  26.142  1.00  0.00    -0.331 N 
ATOM     24  H   UNL     1     -14.853 -43.390  26.950  1.00  0.00     0.348 HD
BRANCH  23  25
ATOM     25  C   UNL     1     -14.899 -42.769  24.997  1.00  0.00     0.299 C 
BRANCH  25  26
ATOM     26  C   UNL     1     -16.370 -42.552  25.218  1.00  0.00     0.006 A 
ATOM     27  C   UNL     1     -17.237 -42.384  24.126  1.00  0.00     0.009 A 
ATOM     28  C   UNL     1     -16.901 -42.533  26.517  1.00  0.00     0.009 A 
ATOM     29  C   UNL     1     -18.607 -42.209  24.333  1.00  0.00     0.001 A 
ATOM     30  C   UNL     1     -18.272 -42.359  26.718  1.00  0.00     0.001 A 
ATOM     31  C   UNL     1     -19.123 -42.199  25.627  1.00  0.00     0.000 A 
ENDBRANCH  25  26
ENDBRANCH  23  25
ENDBRANCH  17  18
ENDBRANCH   1  17
TORSDOF 6
ENDMDL
MODEL 6
REMARK VINA RESULT:   -11.339      3.530     10.888
REMARK INTER + INTRA:         -15.625
REMARK INTER:                 -15.175
REMARK INTRA:                  -0.450
REMARK UNBOUND:                -0.640
REMARK SMILES Oc1cc2cc3o[nH]c(CC[C@H]4CC[N@H+](Cc5ccccc5)CC4)c3cc2n1
REMARK SMILES IDX 10 1 9 2 8 3 7 4 6 5 25 6 5 7 26 8 4 9 27 10 3 11 28 12 2 13
REMARK SMILES IDX 1 15 11 17 12 18 24 19 13 20 23 21 14 22 15 23 16 25 17 26
REMARK SMILES IDX 18 27 22 28 19 29 21 30 20 31
REMARK H PARENT 8 14 1 16 15 24
ROOT
ATOM      1  C   UNL     1     -14.165 -44.456  26.157  1.00  0.00     0.058 C 
ENDROOT
BRANCH   1   2
ATOM      2  C   UNL     1     -14.079 -44.458  27.651  1.00  0.00     0.060 A 
ATOM      3  N   UNL     1     -15.102 -43.933  28.439  1.00  0.00    -0.226 N 
ATOM      4  O   UNL     1     -14.833 -44.156  29.816  1.00  0.00    -0.382 OA
ATOM      5  C   UNL     1     -13.575 -44.729  29.804  1.00  0.00     0.164 A 
ATOM      6  C   UNL     1     -13.106 -44.930  28.438  1.00  0.00     0.044 A 
ATOM      7  C   UNL     1     -12.837 -45.099  30.865  1.00  0.00     0.061 A 
ATOM      8  C   UNL     1     -11.832 -45.552  28.138  1.00  0.00     0.043 A 
ATOM      9  C   UNL     1     -11.550 -45.707  30.569  1.00  0.00     0.009 A 
ATOM     10  C   UNL     1     -11.086 -45.920  29.191  1.00  0.00     0.075 A 
ATOM     11  C   UNL     1     -10.627 -46.157  31.422  1.00  0.00     0.078 A 
ATOM     12  N   UNL     1      -9.854 -46.515  29.210  1.00  0.00    -0.214 NA
ATOM     13  C   UNL     1      -9.634 -46.630  30.480  1.00  0.00     0.211 A 
ATOM     14  H   UNL     1     -16.032 -44.251  28.176  1.00  0.00     0.208 HD
BRANCH  13  15
ATOM     15  O   UNL     1      -8.527 -47.167  30.976  1.00  0.00    -0.493 OA
ATOM     16  H   UNL     1      -8.582 -48.131  30.857  1.00  0.00     0.295 HD
ENDBRANCH  13  15
ENDBRANCH   1   2
BRANCH   1  17
ATOM     17  C   UNL     1     -14.697 -43.115  25.636  1.00  0.00     0.010 C 
BRANCH  17  18
ATOM     18  C   UNL     1     -16.069 -43.160  24.935  1.00  0.00     0.000 C 
ATOM     19  C   UNL     1     -17.187 -42.542  25.784  1.00  0.00     0.065 C 
ATOM     20  C   UNL     1     -16.056 -42.520  23.542  1.00  0.00     0.065 C 
ATOM     21  C   UNL     1     -18.541 -42.673  25.097  1.00  0.00     0.262 C 
ATOM     22  C   UNL     1     -17.412 -42.647  22.857  1.00  0.00     0.262 C 
ATOM     23  N   UNL     1     -18.482 -42.033  23.732  1.00  0.00    -0.331 N 
ATOM     24  H   UNL     1     -18.235 -41.044  23.859  1.00  0.00     0.348 HD
BRANCH  23  25
ATOM     25  C   UNL     1     -19.846 -42.035  23.068  1.00  0.00     0.299 C 
BRANCH  25  26
ATOM     26  C   UNL     1     -20.071 -40.840  22.183  1.00  0.00     0.006 A 
ATOM     27  C   UNL     1     -19.527 -40.799  20.890  1.00  0.00     0.009 A 
ATOM     28  C   UNL     1     -20.845 -39.758  22.630  1.00  0.00     0.009 A 
ATOM     29  C   UNL     1     -19.760 -39.701  20.060  1.00  0.00     0.001 A 
ATOM     30  C   UNL     1     -21.076 -38.663  21.796  1.00  0.00     0.001 A 
ATOM     31  C   UNL     1     -20.536 -38.636  20.512  1.00  0.00     0.000 A 
ENDBRANCH  25  26
ENDBRANCH  23  25
ENDBRANCH  17  18
ENDBRANCH   1  17
TORSDOF 6
ENDMDL
MODEL 7
REMARK VINA RESULT:   -11.282      3.438      9.503
REMARK INTER + INTRA:         -15.549
REMARK INTER:                 -14.895
REMARK INTRA:                  -0.654
REMARK UNBOUND:                -0.640
REMARK SMILES Oc1cc2cc3o[nH]c(CC[C@H]4CC[N@H+](Cc5ccccc5)CC4)c3cc2n1
REMARK SMILES IDX 10 1 9 2 8 3 7 4 6 5 25 6 5 7 26 8 4 9 27 10 3 11 28 12 2 13
REMARK SMILES IDX 1 15 11 17 12 18 24 19 13 20 23 21 14 22 15 23 16 25 17 26
REMARK SMILES IDX 18 27 22 28 19 29 21 30 20 31
REMARK H PARENT 8 14 1 16 15 24
ROOT
ATOM      1  C   UNL     1     -12.780 -46.181  29.192  1.00  0.00     0.058 C 
ENDROOT
BRANCH   1   2
ATOM      2  C   UNL     1     -11.511 -45.866  29.918  1.00  0.00     0.060 A 
ATOM      3  N   UNL     1     -10.314 -46.507  29.603  1.00  0.00    -0.226 N 
ATOM      4  O   UNL     1      -9.241 -45.953  30.352  1.00  0.00    -0.382 OA
ATOM      5  C   UNL     1      -9.871 -45.047  31.185  1.00  0.00     0.164 A 
ATOM      6  C   UNL     1     -11.300 -44.984  30.903  1.00  0.00     0.044 A 
ATOM      7  C   UNL     1      -9.304 -44.278  32.131  1.00  0.00     0.061 A 
ATOM      8  C   UNL     1     -12.191 -44.084  31.606  1.00  0.00     0.043 A 
ATOM      9  C   UNL     1     -10.198 -43.386  32.851  1.00  0.00     0.009 A 
ATOM     10  C   UNL     1     -11.635 -43.316  32.555  1.00  0.00     0.075 A 
ATOM     11  C   UNL     1      -9.905 -42.527  33.830  1.00  0.00     0.078 A 
ATOM     12  N   UNL     1     -12.226 -42.392  33.373  1.00  0.00    -0.214 NA
ATOM     13  C   UNL     1     -11.220 -41.974  34.072  1.00  0.00     0.211 A 
ATOM     14  H   UNL     1     -10.108 -46.534  28.607  1.00  0.00     0.208 HD
BRANCH  13  15
ATOM     15  O   UNL     1     -11.331 -41.048  35.016  1.00  0.00    -0.493 OA
ATOM     16  H   UNL     1     -12.200 -41.154  35.439  1.00  0.00     0.295 HD
ENDBRANCH  13  15
ENDBRANCH   1   2
BRANCH   1  17
ATOM     17  C   UNL     1     -12.604 -46.021  27.676  1.00  0.00     0.010 C 
BRANCH  17  18
ATOM     18  C   UNL     1     -13.381 -44.859  27.027  1.00  0.00     0.000 C 
ATOM     19  C   UNL     1     -13.905 -45.206  25.628  1.00  0.00     0.065 C 
ATOM     20  C   UNL     1     -14.528 -44.338  27.901  1.00  0.00     0.065 C 
ATOM     21  C   UNL     1     -14.599 -44.012  24.984  1.00  0.00     0.262 C 
ATOM     22  C   UNL     1     -15.225 -43.146  27.255  1.00  0.00     0.262 C 
ATOM     23  N   UNL     1     -15.717 -43.533  25.877  1.00  0.00    -0.331 N 
ATOM     24  H   UNL     1     -16.377 -44.311  26.001  1.00  0.00     0.348 HD
BRANCH  23  25
ATOM     25  C   UNL     1     -16.510 -42.423  25.212  1.00  0.00     0.299 C 
BRANCH  25  26
ATOM     26  C   UNL     1     -17.985 -42.502  25.497  1.00  0.00     0.006 A 
ATOM     27  C   UNL     1     -18.503 -42.022  26.710  1.00  0.00     0.009 A 
ATOM     28  C   UNL     1     -18.867 -43.039  24.545  1.00  0.00     0.009 A 
ATOM     29  C   UNL     1     -19.875 -42.071  26.961  1.00  0.00     0.001 A 
ATOM     30  C   UNL     1     -20.239 -43.085  24.801  1.00  0.00     0.001 A 
ATOM     31  C   UNL     1     -20.741 -42.600  26.006  1.00  0.00     0.000 A 
ENDBRANCH  25  26
ENDBRANCH  23  25
ENDBRANCH  17  18
ENDBRANCH   1  17
TORSDOF 6
ENDMDL
MODEL 8
REMARK VINA RESULT:   -11.163      1.739      2.180
REMARK INTER + INTRA:         -15.392
REMARK INTER:                 -14.861
REMARK INTRA:                  -0.531
REMARK UNBOUND:                -0.640
REMARK SMILES Oc1cc2cc3o[nH]c(CC[C@H]4CC[N@H+](Cc5ccccc5)CC4)c3cc2n1
REMARK SMILES IDX 10 1 9 2 8 3 7 4 6 5 25 6 5 7 26 8 4 9 27 10 3 11 28 12 2 13
REMARK SMILES IDX 1 15 11 17 12 18 24 19 13 20 23 21 14 22 15 23 16 25 17 26
REMARK SMILES IDX 18 27 22 28 19 29 21 30 20 31
REMARK H PARENT 8 14 1 16 15 24
ROOT
ATOM      1  C   UNL     1     -14.910 -44.207  25.864  1.00  0.00     0.058 C 
ENDROOT
BRANCH   1   2
ATOM      2  C   UNL     1     -15.161 -43.154  24.832  1.00  0.00     0.060 A 
ATOM      3  N   UNL     1     -14.113 -42.452  24.239  1.00  0.00    -0.226 N 
ATOM      4  O   UNL     1     -14.604 -41.594  23.217  1.00  0.00    -0.382 OA
ATOM      5  C   UNL     1     -15.975 -41.744  23.310  1.00  0.00     0.164 A 
ATOM      6  C   UNL     1     -16.325 -42.737  24.320  1.00  0.00     0.044 A 
ATOM      7  C   UNL     1     -16.916 -41.114  22.585  1.00  0.00     0.061 A 
ATOM      8  C   UNL     1     -17.696 -43.116  24.593  1.00  0.00     0.043 A 
ATOM      9  C   UNL     1     -18.294 -41.479  22.869  1.00  0.00     0.009 A 
ATOM     10  C   UNL     1     -18.642 -42.489  23.877  1.00  0.00     0.075 A 
ATOM     11  C   UNL     1     -19.410 -41.012  22.306  1.00  0.00     0.078 A 
ATOM     12  N   UNL     1     -20.001 -42.637  23.926  1.00  0.00    -0.214 NA
ATOM     13  C   UNL     1     -20.393 -41.791  23.029  1.00  0.00     0.211 A 
ATOM     14  H   UNL     1     -13.353 -43.042  23.908  1.00  0.00     0.208 HD
BRANCH  13  15
ATOM     15  O   UNL     1     -21.671 -41.594  22.731  1.00  0.00    -0.493 OA
ATOM     16  H   UNL     1     -22.136 -42.442  22.828  1.00  0.00     0.295 HD
ENDBRANCH  13  15
ENDBRANCH   1   2
BRANCH   1  17
ATOM     17  C   UNL     1     -14.259 -43.608  27.117  1.00  0.00     0.010 C 
BRANCH  17  18
ATOM     18  C   UNL     1     -13.344 -44.554  27.920  1.00  0.00     0.000 C 
ATOM     19  C   UNL     1     -11.923 -44.003  28.087  1.00  0.00     0.065 C 
ATOM     20  C   UNL     1     -13.922 -44.934  29.288  1.00  0.00     0.065 C 
ATOM     21  C   UNL     1     -11.025 -44.996  28.815  1.00  0.00     0.262 C 
ATOM     22  C   UNL     1     -13.022 -45.924  30.019  1.00  0.00     0.262 C 
ATOM     23  N   UNL     1     -11.632 -45.343  30.153  1.00  0.00    -0.331 N 
ATOM     24  H   UNL     1     -11.721 -44.473  30.692  1.00  0.00     0.348 HD
BRANCH  23  25
ATOM     25  C   UNL     1     -10.706 -46.233  30.959  1.00  0.00     0.299 C 
BRANCH  25  26
ATOM     26  C   UNL     1      -9.499 -45.506  31.484  1.00  0.00     0.006 A 
ATOM     27  C   UNL     1      -8.216 -46.055  31.335  1.00  0.00     0.009 A 
ATOM     28  C   UNL     1      -9.636 -44.258  32.113  1.00  0.00     0.009 A 
ATOM     29  C   UNL     1      -7.094 -45.365  31.799  1.00  0.00     0.001 A 
ATOM     30  C   UNL     1      -8.511 -43.572  32.574  1.00  0.00     0.001 A 
ATOM     31  C   UNL     1      -7.242 -44.125  32.415  1.00  0.00     0.000 A 
ENDBRANCH  25  26
ENDBRANCH  23  25
ENDBRANCH  17  18
ENDBRANCH   1  17
TORSDOF 6
ENDMDL
MODEL 9
REMARK VINA RESULT:   -11.146      3.249     10.055
REMARK INTER + INTRA:         -15.370
REMARK INTER:                 -14.918
REMARK INTRA:                  -0.452
REMARK UNBOUND:                -0.640
REMARK SMILES Oc1cc2cc3o[nH]c(CC[C@H]4CC[N@H+](Cc5ccccc5)CC4)c3cc2n1
REMARK SMILES IDX 10 1 9 2 8 3 7 4 6 5 25 6 5 7 26 8 4 9 27 10 3 11 28 12 2 13
REMARK SMILES IDX 1 15 11 17 12 18 24 19 13 20 23 21 14 22 15 23 16 25 17 26
REMARK SMILES IDX 18 27 22 28 19 29 21 30 20 31
REMARK H PARENT 8 14 1 16 15 24
ROOT
ATOM      1  C   UNL     1     -13.156 -44.801  27.283  1.00  0.00     0.058 C 
ENDROOT
BRANCH   1   2
ATOM      2  C   UNL     1     -12.897 -44.927  28.751  1.00  0.00     0.060 A 
ATOM      3  N   UNL     1     -13.865 -45.425  29.621  1.00  0.00    -0.226 N 
ATOM      4  O   UNL     1     -13.337 -45.549  30.934  1.00  0.00    -0.382 OA
ATOM      5  C   UNL     1     -12.070 -45.008  30.818  1.00  0.00     0.164 A 
ATOM      6  C   UNL     1     -11.789 -44.628  29.439  1.00  0.00     0.044 A 
ATOM      7  C   UNL     1     -11.159 -44.848  31.794  1.00  0.00     0.061 A 
ATOM      8  C   UNL     1     -10.514 -44.071  29.031  1.00  0.00     0.043 A 
ATOM      9  C   UNL     1      -9.886 -44.273  31.392  1.00  0.00     0.009 A 
ATOM     10  C   UNL     1      -9.601 -43.903  29.999  1.00  0.00     0.075 A 
ATOM     11  C   UNL     1      -8.819 -44.005  32.149  1.00  0.00     0.078 A 
ATOM     12  N   UNL     1      -8.332 -43.399  29.910  1.00  0.00    -0.214 NA
ATOM     13  C   UNL     1      -7.929 -43.475  31.138  1.00  0.00     0.211 A 
ATOM     14  H   UNL     1     -14.303 -46.287  29.304  1.00  0.00     0.208 HD
BRANCH  13  15
ATOM     15  O   UNL     1      -6.722 -43.085  31.527  1.00  0.00    -0.493 OA
ATOM     16  H   UNL     1      -6.793 -42.759  32.441  1.00  0.00     0.295 HD
ENDBRANCH  13  15
ENDBRANCH   1   2
BRANCH   1  17
ATOM     17  C   UNL     1     -13.094 -43.335  26.834  1.00  0.00     0.010 C 
BRANCH  17  18
ATOM     18  C   UNL     1     -14.370 -42.778  26.174  1.00  0.00     0.000 C 
ATOM     19  C   UNL     1     -14.547 -43.260  24.728  1.00  0.00     0.065 C 
ATOM     20  C   UNL     1     -15.641 -43.068  26.980  1.00  0.00     0.065 C 
ATOM     21  C   UNL     1     -15.774 -42.629  24.080  1.00  0.00     0.262 C 
ATOM     22  C   UNL     1     -16.870 -42.441  26.330  1.00  0.00     0.262 C 
ATOM     23  N   UNL     1     -16.999 -42.937  24.907  1.00  0.00    -0.331 N 
ATOM     24  H   UNL     1     -17.099 -43.958  24.952  1.00  0.00     0.348 HD
BRANCH  23  25
ATOM     25  C   UNL     1     -18.258 -42.431  24.228  1.00  0.00     0.299 C 
BRANCH  25  26
ATOM     26  C   UNL     1     -19.473 -42.508  25.109  1.00  0.00     0.006 A 
ATOM     27  C   UNL     1     -20.070 -43.747  25.392  1.00  0.00     0.009 A 
ATOM     28  C   UNL     1     -20.016 -41.345  25.679  1.00  0.00     0.009 A 
ATOM     29  C   UNL     1     -21.183 -43.819  26.232  1.00  0.00     0.001 A 
ATOM     30  C   UNL     1     -21.128 -41.424  26.519  1.00  0.00     0.001 A 
ATOM     31  C   UNL     1     -21.709 -42.659  26.797  1.00  0.00     0.000 A 
ENDBRANCH  25  26
ENDBRANCH  23  25
ENDBRANCH  17  18
ENDBRANCH   1  17
TORSDOF 6
ENDMDL
