MODEL 1
REMARK VINA RESULT:    -7.799      0.000      0.000
REMARK INTER + INTRA:         -10.549
REMARK INTER:                 -10.079
REMARK INTRA:                  -0.471
REMARK UNBOUND:                -0.471
REMARK SMILES CCC(CC)n1cc(C(=O)C(F)(F)F)cn1
REMARK SMILES IDX 6 1 7 2 8 3 15 4 16 5 3 6 2 7 1 8 4 9 5 10 9 11 10 12 11 13
REMARK SMILES IDX 12 14 13 15 14 16
REMARK H PARENT
ROOT
ATOM      1  N   UNL     1     -14.846 -43.750  27.098  1.00  0.00    -0.269 N 
ATOM      2  C   UNL     1     -13.958 -44.604  26.506  1.00  0.00     0.121 A 
ATOM      3  C   UNL     1     -13.380 -45.343  27.522  1.00  0.00     0.065 A 
ATOM      4  C   UNL     1     -13.998 -44.850  28.692  1.00  0.00     0.147 A 
ATOM      5  N   UNL     1     -14.885 -43.887  28.438  1.00  0.00    -0.180 NA
ENDROOT
BRANCH   1   6
ATOM      6  C   UNL     1     -15.696 -42.778  26.414  1.00  0.00     0.107 C 
BRANCH   6   7
ATOM      7  C   UNL     1     -15.928 -43.107  24.926  1.00  0.00     0.024 C 
ATOM      8  C   UNL     1     -15.334 -42.059  23.990  1.00  0.00     0.006 C 
ENDBRANCH   6   7
BRANCH   6   9
ATOM      9  C   UNL     1     -17.009 -42.529  27.185  1.00  0.00     0.024 C 
ATOM     10  C   UNL     1     -18.263 -42.396  26.329  1.00  0.00     0.006 C 
ENDBRANCH   6   9
ENDBRANCH   1   6
BRANCH   3  11
ATOM     11  C   UNL     1     -12.367 -46.381  27.360  1.00  0.00     0.269 C 
ATOM     12  O   UNL     1     -12.525 -47.279  26.527  1.00  0.00    -0.284 OA
BRANCH  11  13
ATOM     13  C   UNL     1     -11.132 -46.297  28.254  1.00  0.00     0.454 C 
ATOM     14  F   UNL     1     -10.635 -45.028  28.330  1.00  0.00    -0.163 F 
ATOM     15  F   UNL     1     -10.103 -47.084  27.835  1.00  0.00    -0.163 F 
ATOM     16  F   UNL     1     -11.399 -46.671  29.538  1.00  0.00    -0.163 F 
ENDBRANCH  11  13
ENDBRANCH   3  11
TORSDOF 5
ENDMDL
MODEL 2
REMARK VINA RESULT:    -7.610      3.675      4.863
REMARK INTER + INTRA:         -10.305
REMARK INTER:                  -9.881
REMARK INTRA:                  -0.425
REMARK UNBOUND:                -0.471
REMARK SMILES CCC(CC)n1cc(C(=O)C(F)(F)F)cn1
REMARK SMILES IDX 6 1 7 2 8 3 15 4 16 5 3 6 2 7 1 8 4 9 5 10 9 11 10 12 11 13
REMARK SMILES IDX 12 14 13 15 14 16
REMARK H PARENT
ROOT
ATOM      1  N   UNL     1     -11.882 -43.978  28.626  1.00  0.00    -0.269 N 
ATOM      2  C   UNL     1     -10.998 -44.411  29.575  1.00  0.00     0.121 A 
ATOM      3  C   UNL     1     -10.048 -43.417  29.717  1.00  0.00     0.065 A 
ATOM      4  C   UNL     1     -10.460 -42.424  28.801  1.00  0.00     0.147 A 
ATOM      5  N   UNL     1     -11.569 -42.761  28.141  1.00  0.00    -0.180 NA
ENDROOT
BRANCH   1   6
ATOM      6  C   UNL     1     -13.061 -44.700  28.151  1.00  0.00     0.107 C 
BRANCH   6   7
ATOM      7  C   UNL     1     -13.573 -44.204  26.784  1.00  0.00     0.024 C 
ATOM      8  C   UNL     1     -14.978 -43.615  26.859  1.00  0.00     0.006 C 
ENDBRANCH   6   7
BRANCH   6   9
ATOM      9  C   UNL     1     -12.847 -46.228  28.193  1.00  0.00     0.024 C 
ATOM     10  C   UNL     1     -12.550 -46.891  26.854  1.00  0.00     0.006 C 
ENDBRANCH   6   9
ENDBRANCH   1   6
BRANCH   3  11
ATOM     11  C   UNL     1      -8.904 -43.444  30.622  1.00  0.00     0.269 C 
ATOM     12  O   UNL     1      -7.810 -43.008  30.254  1.00  0.00    -0.284 OA
BRANCH  11  13
ATOM     13  C   UNL     1      -9.130 -44.029  32.015  1.00  0.00     0.454 C 
ATOM     14  F   UNL     1      -8.162 -43.646  32.898  1.00  0.00    -0.163 F 
ATOM     15  F   UNL     1      -9.149 -45.389  32.037  1.00  0.00    -0.163 F 
ATOM     16  F   UNL     1     -10.313 -43.622  32.559  1.00  0.00    -0.163 F 
ENDBRANCH  11  13
ENDBRANCH   3  11
TORSDOF 5
ENDMDL
MODEL 3
REMARK VINA RESULT:    -7.370      3.570      6.329
REMARK INTER + INTRA:          -9.995
REMARK INTER:                  -9.527
REMARK INTRA:                  -0.468
REMARK UNBOUND:                -0.471
REMARK SMILES CCC(CC)n1cc(C(=O)C(F)(F)F)cn1
REMARK SMILES IDX 6 1 7 2 8 3 15 4 16 5 3 6 2 7 1 8 4 9 5 10 9 11 10 12 11 13
REMARK SMILES IDX 12 14 13 15 14 16
REMARK H PARENT
ROOT
ATOM      1  N   UNL     1     -11.043 -45.745  30.791  1.00  0.00    -0.269 N 
ATOM      2  C   UNL     1     -11.036 -45.636  29.428  1.00  0.00     0.121 A 
ATOM      3  C   UNL     1     -12.300 -45.988  28.994  1.00  0.00     0.065 A 
ATOM      4  C   UNL     1     -12.994 -46.292  30.186  1.00  0.00     0.147 A 
ATOM      5  N   UNL     1     -12.236 -46.145  31.274  1.00  0.00    -0.180 NA
ENDROOT
BRANCH   1   6
ATOM      6  C   UNL     1      -9.922 -45.466  31.685  1.00  0.00     0.107 C 
BRANCH   6   7
ATOM      7  C   UNL     1      -8.670 -46.314  31.381  1.00  0.00     0.024 C 
ATOM      8  C   UNL     1      -7.418 -45.467  31.180  1.00  0.00     0.006 C 
ENDBRANCH   6   7
BRANCH   6   9
ATOM      9  C   UNL     1      -9.618 -43.955  31.763  1.00  0.00     0.024 C 
ATOM     10  C   UNL     1      -9.879 -43.298  33.112  1.00  0.00     0.006 C 
ENDBRANCH   6   9
ENDBRANCH   1   6
BRANCH   3  11
ATOM     11  C   UNL     1     -12.755 -46.019  27.608  1.00  0.00     0.269 C 
ATOM     12  O   UNL     1     -12.470 -46.977  26.882  1.00  0.00    -0.284 OA
BRANCH  11  13
ATOM     13  C   UNL     1     -13.582 -44.833  27.117  1.00  0.00     0.454 C 
ATOM     14  F   UNL     1     -14.587 -44.511  27.981  1.00  0.00    -0.163 F 
ATOM     15  F   UNL     1     -14.172 -45.045  25.909  1.00  0.00    -0.163 F 
ATOM     16  F   UNL     1     -12.831 -43.703  26.980  1.00  0.00    -0.163 F 
ENDBRANCH  11  13
ENDBRANCH   3  11
TORSDOF 5
ENDMDL
MODEL 4
REMARK VINA RESULT:    -7.303      3.890      4.972
REMARK INTER + INTRA:          -9.909
REMARK INTER:                  -9.443
REMARK INTRA:                  -0.466
REMARK UNBOUND:                -0.471
REMARK SMILES CCC(CC)n1cc(C(=O)C(F)(F)F)cn1
REMARK SMILES IDX 6 1 7 2 8 3 15 4 16 5 3 6 2 7 1 8 4 9 5 10 9 11 10 12 11 13
REMARK SMILES IDX 12 14 13 15 14 16
REMARK H PARENT
ROOT
ATOM      1  N   UNL     1     -11.475 -44.078  28.814  1.00  0.00    -0.269 N 
ATOM      2  C   UNL     1     -10.122 -44.163  28.989  1.00  0.00     0.121 A 
ATOM      3  C   UNL     1      -9.851 -43.654  30.245  1.00  0.00     0.065 A 
ATOM      4  C   UNL     1     -11.121 -43.291  30.744  1.00  0.00     0.147 A 
ATOM      5  N   UNL     1     -12.105 -43.547  29.879  1.00  0.00    -0.180 NA
ENDROOT
BRANCH   1   6
ATOM      6  C   UNL     1     -12.221 -44.505  27.632  1.00  0.00     0.107 C 
BRANCH   6   7
ATOM      7  C   UNL     1     -13.000 -45.819  27.840  1.00  0.00     0.024 C 
ATOM      8  C   UNL     1     -12.594 -46.908  26.853  1.00  0.00     0.006 C 
ENDBRANCH   6   7
BRANCH   6   9
ATOM      9  C   UNL     1     -13.102 -43.368  27.074  1.00  0.00     0.024 C 
ATOM     10  C   UNL     1     -14.514 -43.766  26.664  1.00  0.00     0.006 C 
ENDBRANCH   6   9
ENDBRANCH   1   6
BRANCH   3  11
ATOM     11  C   UNL     1      -8.533 -43.543  30.861  1.00  0.00     0.269 C 
ATOM     12  O   UNL     1      -7.660 -42.842  30.340  1.00  0.00    -0.284 OA
BRANCH  11  13
ATOM     13  C   UNL     1      -8.298 -44.322  32.154  1.00  0.00     0.454 C 
ATOM     14  F   UNL     1      -8.699 -43.625  33.256  1.00  0.00    -0.163 F 
ATOM     15  F   UNL     1      -6.993 -44.647  32.363  1.00  0.00    -0.163 F 
ATOM     16  F   UNL     1      -8.992 -45.496  32.182  1.00  0.00    -0.163 F 
ENDBRANCH  11  13
ENDBRANCH   3  11
TORSDOF 5
ENDMDL
MODEL 5
REMARK VINA RESULT:    -7.291      3.820      6.051
REMARK INTER + INTRA:          -9.893
REMARK INTER:                  -9.444
REMARK INTRA:                  -0.449
REMARK UNBOUND:                -0.471
REMARK SMILES CCC(CC)n1cc(C(=O)C(F)(F)F)cn1
REMARK SMILES IDX 6 1 7 2 8 3 15 4 16 5 3 6 2 7 1 8 4 9 5 10 9 11 10 12 11 13
REMARK SMILES IDX 12 14 13 15 14 16
REMARK H PARENT
ROOT
ATOM      1  N   UNL     1     -13.265 -44.227  27.696  1.00  0.00    -0.269 N 
ATOM      2  C   UNL     1     -14.524 -44.347  27.176  1.00  0.00     0.121 A 
ATOM      3  C   UNL     1     -14.685 -43.307  26.279  1.00  0.00     0.065 A 
ATOM      4  C   UNL     1     -13.453 -42.619  26.336  1.00  0.00     0.147 A 
ATOM      5  N   UNL     1     -12.593 -43.174  27.192  1.00  0.00    -0.180 NA
ENDROOT
BRANCH   1   6
ATOM      6  C   UNL     1     -12.651 -45.111  28.684  1.00  0.00     0.107 C 
BRANCH   6   7
ATOM      7  C   UNL     1     -13.598 -45.491  29.840  1.00  0.00     0.024 C 
ATOM      8  C   UNL     1     -12.856 -46.027  31.059  1.00  0.00     0.006 C 
ENDBRANCH   6   7
BRANCH   6   9
ATOM      9  C   UNL     1     -11.995 -46.339  28.018  1.00  0.00     0.024 C 
ATOM     10  C   UNL     1     -10.510 -46.529  28.299  1.00  0.00     0.006 C 
ENDBRANCH   6   9
ENDBRANCH   1   6
BRANCH   3  11
ATOM     11  C   UNL     1     -15.878 -43.035  25.485  1.00  0.00     0.269 C 
ATOM     12  O   UNL     1     -16.927 -42.689  26.037  1.00  0.00    -0.284 OA
BRANCH  11  13
ATOM     13  C   UNL     1     -15.761 -43.197  23.970  1.00  0.00     0.454 C 
ATOM     14  F   UNL     1     -16.976 -43.368  23.374  1.00  0.00    -0.163 F 
ATOM     15  F   UNL     1     -15.000 -44.262  23.595  1.00  0.00    -0.163 F 
ATOM     16  F   UNL     1     -15.205 -42.103  23.376  1.00  0.00    -0.163 F 
ENDBRANCH  11  13
ENDBRANCH   3  11
TORSDOF 5
ENDMDL
MODEL 6
REMARK VINA RESULT:    -7.270      3.734      5.795
REMARK INTER + INTRA:          -9.866
REMARK INTER:                  -9.531
REMARK INTRA:                  -0.334
REMARK UNBOUND:                -0.471
REMARK SMILES CCC(CC)n1cc(C(=O)C(F)(F)F)cn1
REMARK SMILES IDX 6 1 7 2 8 3 15 4 16 5 3 6 2 7 1 8 4 9 5 10 9 11 10 12 11 13
REMARK SMILES IDX 12 14 13 15 14 16
REMARK H PARENT
ROOT
ATOM      1  N   UNL     1     -13.776 -45.033  27.576  1.00  0.00    -0.269 N 
ATOM      2  C   UNL     1     -13.802 -45.050  26.210  1.00  0.00     0.121 A 
ATOM      3  C   UNL     1     -14.648 -44.030  25.815  1.00  0.00     0.065 A 
ATOM      4  C   UNL     1     -15.077 -43.458  27.033  1.00  0.00     0.147 A 
ATOM      5  N   UNL     1     -14.550 -44.063  28.099  1.00  0.00    -0.180 NA
ENDROOT
BRANCH   1   6
ATOM      6  C   UNL     1     -13.008 -45.931  28.436  1.00  0.00     0.107 C 
BRANCH   6   7
ATOM      7  C   UNL     1     -11.782 -46.551  27.736  1.00  0.00     0.024 C 
ATOM      8  C   UNL     1     -10.497 -46.385  28.540  1.00  0.00     0.006 C 
ENDBRANCH   6   7
BRANCH   6   9
ATOM      9  C   UNL     1     -12.657 -45.267  29.784  1.00  0.00     0.024 C 
ATOM     10  C   UNL     1     -13.139 -46.002  31.028  1.00  0.00     0.006 C 
ENDBRANCH   6   9
ENDBRANCH   1   6
BRANCH   3  11
ATOM     11  C   UNL     1     -14.982 -43.674  24.441  1.00  0.00     0.269 C 
ATOM     12  O   UNL     1     -14.744 -44.460  23.519  1.00  0.00    -0.284 OA
BRANCH  11  13
ATOM     13  C   UNL     1     -15.626 -42.308  24.210  1.00  0.00     0.454 C 
ATOM     14  F   UNL     1     -14.841 -41.285  24.656  1.00  0.00    -0.163 F 
ATOM     15  F   UNL     1     -16.829 -42.163  24.830  1.00  0.00    -0.163 F 
ATOM     16  F   UNL     1     -15.847 -42.059  22.887  1.00  0.00    -0.163 F 
ENDBRANCH  11  13
ENDBRANCH   3  11
TORSDOF 5
ENDMDL
MODEL 7
REMARK VINA RESULT:    -7.240      1.864      2.807
REMARK INTER + INTRA:          -9.827
REMARK INTER:                  -9.345
REMARK INTRA:                  -0.481
REMARK UNBOUND:                -0.471
REMARK SMILES CCC(CC)n1cc(C(=O)C(F)(F)F)cn1
REMARK SMILES IDX 6 1 7 2 8 3 15 4 16 5 3 6 2 7 1 8 4 9 5 10 9 11 10 12 11 13
REMARK SMILES IDX 12 14 13 15 14 16
REMARK H PARENT
ROOT
ATOM      1  N   UNL     1     -13.670 -44.086  27.122  1.00  0.00    -0.269 N 
ATOM      2  C   UNL     1     -13.318 -45.240  27.766  1.00  0.00     0.121 A 
ATOM      3  C   UNL     1     -12.114 -44.992  28.398  1.00  0.00     0.065 A 
ATOM      4  C   UNL     1     -11.830 -43.648  28.067  1.00  0.00     0.147 A 
ATOM      5  N   UNL     1     -12.770 -43.099  27.296  1.00  0.00    -0.180 NA
ENDROOT
BRANCH   1   6
ATOM      6  C   UNL     1     -14.876 -43.876  26.324  1.00  0.00     0.107 C 
BRANCH   6   7
ATOM      7  C   UNL     1     -15.582 -42.538  26.621  1.00  0.00     0.024 C 
ATOM      8  C   UNL     1     -16.582 -42.641  27.768  1.00  0.00     0.006 C 
ENDBRANCH   6   7
BRANCH   6   9
ATOM      9  C   UNL     1     -14.607 -44.091  24.820  1.00  0.00     0.024 C 
ATOM     10  C   UNL     1     -15.539 -43.349  23.869  1.00  0.00     0.006 C 
ENDBRANCH   6   9
ENDBRANCH   1   6
BRANCH   3  11
ATOM     11  C   UNL     1     -11.357 -45.941  29.207  1.00  0.00     0.269 C 
ATOM     12  O   UNL     1     -10.519 -46.679  28.679  1.00  0.00    -0.284 OA
BRANCH  11  13
ATOM     13  C   UNL     1     -11.650 -45.971  30.705  1.00  0.00     0.454 C 
ATOM     14  F   UNL     1     -10.735 -46.712  31.396  1.00  0.00    -0.163 F 
ATOM     15  F   UNL     1     -12.870 -46.492  31.010  1.00  0.00    -0.163 F 
ATOM     16  F   UNL     1     -11.618 -44.726  31.262  1.00  0.00    -0.163 F 
ENDBRANCH  11  13
ENDBRANCH   3  11
TORSDOF 5
ENDMDL
MODEL 8
REMARK VINA RESULT:    -7.081      4.523      6.219
REMARK INTER + INTRA:          -9.622
REMARK INTER:                  -9.256
REMARK INTRA:                  -0.366
REMARK UNBOUND:                -0.471
REMARK SMILES CCC(CC)n1cc(C(=O)C(F)(F)F)cn1
REMARK SMILES IDX 6 1 7 2 8 3 15 4 16 5 3 6 2 7 1 8 4 9 5 10 9 11 10 12 11 13
REMARK SMILES IDX 12 14 13 15 14 16
REMARK H PARENT
ROOT
ATOM      1  N   UNL     1     -12.209 -45.249  29.775  1.00  0.00    -0.269 N 
ATOM      2  C   UNL     1     -12.106 -44.029  30.383  1.00  0.00     0.121 A 
ATOM      3  C   UNL     1     -12.771 -44.130  31.592  1.00  0.00     0.065 A 
ATOM      4  C   UNL     1     -13.237 -45.464  31.610  1.00  0.00     0.147 A 
ATOM      5  N   UNL     1     -12.897 -46.142  30.512  1.00  0.00    -0.180 NA
ENDROOT
BRANCH   1   6
ATOM      6  C   UNL     1     -11.650 -45.614  28.475  1.00  0.00     0.107 C 
BRANCH   6   7
ATOM      7  C   UNL     1     -10.457 -46.585  28.571  1.00  0.00     0.024 C 
ATOM      8  C   UNL     1      -9.619 -46.369  29.826  1.00  0.00     0.006 C 
ENDBRANCH   6   7
BRANCH   6   9
ATOM      9  C   UNL     1     -12.745 -46.103  27.503  1.00  0.00     0.024 C 
ATOM     10  C   UNL     1     -13.690 -45.030  26.977  1.00  0.00     0.006 C 
ENDBRANCH   6   9
ENDBRANCH   1   6
BRANCH   3  11
ATOM     11  C   UNL     1     -12.923 -43.068  32.580  1.00  0.00     0.269 C 
ATOM     12  O   UNL     1     -11.940 -42.419  32.951  1.00  0.00    -0.284 OA
BRANCH  11  13
ATOM     13  C   UNL     1     -14.329 -42.811  33.118  1.00  0.00     0.454 C 
ATOM     14  F   UNL     1     -15.259 -42.751  32.122  1.00  0.00    -0.163 F 
ATOM     15  F   UNL     1     -14.440 -41.646  33.813  1.00  0.00    -0.163 F 
ATOM     16  F   UNL     1     -14.747 -43.799  33.960  1.00  0.00    -0.163 F 
ENDBRANCH  11  13
ENDBRANCH   3  11
TORSDOF 5
ENDMDL
MODEL 9
REMARK VINA RESULT:    -7.023      3.808      5.069
REMARK INTER + INTRA:          -9.547
REMARK INTER:                  -9.217
REMARK INTRA:                  -0.331
REMARK UNBOUND:                -0.471
REMARK SMILES CCC(CC)n1cc(C(=O)C(F)(F)F)cn1
REMARK SMILES IDX 6 1 7 2 8 3 15 4 16 5 3 6 2 7 1 8 4 9 5 10 9 11 10 12 11 13
REMARK SMILES IDX 12 14 13 15 14 16
REMARK H PARENT
ROOT
ATOM      1  N   UNL     1     -12.609 -44.497  29.377  1.00  0.00    -0.269 N 
ATOM      2  C   UNL     1     -11.542 -43.881  29.968  1.00  0.00     0.121 A 
ATOM      3  C   UNL     1     -11.871 -43.705  31.299  1.00  0.00     0.065 A 
ATOM      4  C   UNL     1     -13.168 -44.256  31.402  1.00  0.00     0.147 A 
ATOM      5  N   UNL     1     -13.615 -44.736  30.240  1.00  0.00    -0.180 NA
ENDROOT
BRANCH   1   6
ATOM      6  C   UNL     1     -12.710 -44.889  27.973  1.00  0.00     0.107 C 
BRANCH   6   7
ATOM      7  C   UNL     1     -12.294 -46.350  27.712  1.00  0.00     0.024 C 
ATOM      8  C   UNL     1     -10.828 -46.613  28.039  1.00  0.00     0.006 C 
ENDBRANCH   6   7
BRANCH   6   9
ATOM      9  C   UNL     1     -14.096 -44.546  27.385  1.00  0.00     0.024 C 
ATOM     10  C   UNL     1     -14.105 -43.487  26.290  1.00  0.00     0.006 C 
ENDBRANCH   6   9
ENDBRANCH   1   6
BRANCH   3  11
ATOM     11  C   UNL     1     -11.031 -43.083  32.318  1.00  0.00     0.269 C 
ATOM     12  O   UNL     1     -11.489 -42.198  33.046  1.00  0.00    -0.284 OA
BRANCH  11  13
ATOM     13  C   UNL     1      -9.590 -43.576  32.430  1.00  0.00     0.454 C 
ATOM     14  F   UNL     1      -9.012 -43.217  33.613  1.00  0.00    -0.163 F 
ATOM     15  F   UNL     1      -8.775 -43.101  31.449  1.00  0.00    -0.163 F 
ATOM     16  F   UNL     1      -9.504 -44.936  32.371  1.00  0.00    -0.163 F 
ENDBRANCH  11  13
ENDBRANCH   3  11
TORSDOF 5
ENDMDL
