MODEL 1
REMARK VINA RESULT:   -10.227      0.000      0.000
REMARK INTER + INTRA:         -11.746
REMARK INTER:                 -11.423
REMARK INTRA:                  -0.324
REMARK UNBOUND:                -0.324
REMARK SMILES C[N@H+]1CC[C@H](C[C@@H]2Cc3ccccc3C2=O)CC1
REMARK SMILES IDX 6 1 5 2 2 3 3 4 18 5 4 6 17 7 1 8 7 10 8 11 15 12 9 13 14 14
REMARK SMILES IDX 10 15 13 16 11 17 12 18 16 19
REMARK H PARENT 2 9
ROOT
ATOM      1  C   UNL     1     -13.838 -44.856  26.309  1.00  0.00     0.016 C 
ENDROOT
BRANCH   1   2
ATOM      2  C   UNL     1     -13.031 -44.925  27.622  1.00  0.00     0.001 C 
ATOM      3  N   UNL     1     -10.424 -45.169  28.940  1.00  0.00    -0.337 N 
ATOM      4  C   UNL     1     -11.174 -43.865  28.999  1.00  0.00     0.262 C 
ATOM      5  C   UNL     1     -11.355 -46.354  28.894  1.00  0.00     0.262 C 
ATOM      6  C   UNL     1     -12.072 -43.734  27.775  1.00  0.00     0.065 C 
ATOM      7  C   UNL     1     -12.244 -46.247  27.664  1.00  0.00     0.065 C 
ATOM      8  C   UNL     1      -9.424 -45.289  30.057  1.00  0.00     0.332 C 
ATOM      9  H   UNL     1      -9.880 -45.172  28.064  1.00  0.00     0.347 HD
ENDBRANCH   1   2
BRANCH   1  10
ATOM     10  C   UNL     1     -14.492 -43.500  26.019  1.00  0.00     0.066 C 
ATOM     11  C   UNL     1     -15.663 -43.150  26.965  1.00  0.00     0.048 C 
ATOM     12  C   UNL     1     -15.111 -43.494  24.631  1.00  0.00     0.166 C 
ATOM     13  C   UNL     1     -16.776 -42.757  26.048  1.00  0.00    -0.036 A 
ATOM     14  C   UNL     1     -16.470 -42.978  24.710  1.00  0.00     0.021 A 
ATOM     15  C   UNL     1     -18.023 -42.258  26.392  1.00  0.00     0.004 A 
ATOM     16  C   UNL     1     -17.355 -42.722  23.680  1.00  0.00     0.012 A 
ATOM     17  C   UNL     1     -18.938 -41.985  25.369  1.00  0.00     0.000 A 
ATOM     18  C   UNL     1     -18.608 -42.216  24.023  1.00  0.00     0.001 A 
ATOM     19  O   UNL     1     -14.562 -43.844  23.602  1.00  0.00    -0.294 OA
ENDBRANCH   1  10
TORSDOF 2
ENDMDL
MODEL 2
REMARK VINA RESULT:    -9.820      1.310      1.964
REMARK INTER + INTRA:         -11.292
REMARK INTER:                 -10.927
REMARK INTRA:                  -0.364
REMARK UNBOUND:                -0.324
REMARK SMILES C[N@H+]1CC[C@H](C[C@@H]2Cc3ccccc3C2=O)CC1
REMARK SMILES IDX 6 1 5 2 2 3 3 4 18 5 4 6 17 7 1 8 7 10 8 11 15 12 9 13 14 14
REMARK SMILES IDX 10 15 13 16 11 17 12 18 16 19
REMARK H PARENT 2 9
ROOT
ATOM      1  C   UNL     1     -13.169 -43.144  26.624  1.00  0.00     0.016 C 
ENDROOT
BRANCH   1   2
ATOM      2  C   UNL     1     -12.534 -43.859  27.835  1.00  0.00     0.001 C 
ATOM      3  N   UNL     1     -10.505 -45.711  28.857  1.00  0.00    -0.337 N 
ATOM      4  C   UNL     1     -10.396 -44.239  29.160  1.00  0.00     0.262 C 
ATOM      5  C   UNL     1     -11.939 -46.158  28.743  1.00  0.00     0.262 C 
ATOM      6  C   UNL     1     -11.072 -43.439  28.053  1.00  0.00     0.065 C 
ATOM      7  C   UNL     1     -12.621 -45.381  27.627  1.00  0.00     0.065 C 
ATOM      8  C   UNL     1      -9.739 -46.542  29.850  1.00  0.00     0.332 C 
ATOM      9  H   UNL     1     -10.059 -45.871  27.943  1.00  0.00     0.347 HD
ENDBRANCH   1   2
BRANCH   1  10
ATOM     10  C   UNL     1     -14.441 -43.800  26.075  1.00  0.00     0.066 C 
ATOM     11  C   UNL     1     -14.623 -43.643  24.548  1.00  0.00     0.048 C 
ATOM     12  C   UNL     1     -15.677 -43.149  26.673  1.00  0.00     0.166 C 
ATOM     13  C   UNL     1     -16.020 -43.133  24.392  1.00  0.00    -0.036 A 
ATOM     14  C   UNL     1     -16.616 -42.825  25.610  1.00  0.00     0.021 A 
ATOM     15  C   UNL     1     -16.717 -42.917  23.213  1.00  0.00     0.004 A 
ATOM     16  C   UNL     1     -17.893 -42.306  25.716  1.00  0.00     0.012 A 
ATOM     17  C   UNL     1     -18.014 -42.397  23.291  1.00  0.00     0.000 A 
ATOM     18  C   UNL     1     -18.598 -42.093  24.532  1.00  0.00     0.001 A 
ATOM     19  O   UNL     1     -15.874 -42.943  27.857  1.00  0.00    -0.294 OA
ENDBRANCH   1  10
TORSDOF 2
ENDMDL
MODEL 3
REMARK VINA RESULT:    -9.669      1.592      2.648
REMARK INTER + INTRA:         -11.123
REMARK INTER:                 -10.748
REMARK INTRA:                  -0.376
REMARK UNBOUND:                -0.324
REMARK SMILES C[N@H+]1CC[C@H](C[C@@H]2Cc3ccccc3C2=O)CC1
REMARK SMILES IDX 6 1 5 2 2 3 3 4 18 5 4 6 17 7 1 8 7 10 8 11 15 12 9 13 14 14
REMARK SMILES IDX 10 15 13 16 11 17 12 18 16 19
REMARK H PARENT 2 9
ROOT
ATOM      1  C   UNL     1     -14.282 -42.591  26.241  1.00  0.00     0.016 C 
ENDROOT
BRANCH   1   2
ATOM      2  C   UNL     1     -13.144 -43.570  26.598  1.00  0.00     0.001 C 
ATOM      3  N   UNL     1     -11.700 -45.071  28.661  1.00  0.00    -0.337 N 
ATOM      4  C   UNL     1     -12.559 -45.804  27.664  1.00  0.00     0.262 C 
ATOM      5  C   UNL     1     -11.086 -43.829  28.069  1.00  0.00     0.262 C 
ATOM      6  C   UNL     1     -13.677 -44.888  27.182  1.00  0.00     0.065 C 
ATOM      7  C   UNL     1     -12.192 -42.895  27.602  1.00  0.00     0.065 C 
ATOM      8  C   UNL     1     -10.659 -45.972  29.269  1.00  0.00     0.332 C 
ATOM      9  H   UNL     1     -12.311 -44.773  29.434  1.00  0.00     0.347 HD
ENDBRANCH   1   2
BRANCH   1  10
ATOM     10  C   UNL     1     -15.673 -43.226  26.124  1.00  0.00     0.066 C 
ATOM     11  C   UNL     1     -16.431 -42.849  24.830  1.00  0.00     0.048 C 
ATOM     12  C   UNL     1     -16.574 -42.743  27.247  1.00  0.00     0.166 C 
ATOM     13  C   UNL     1     -17.775 -42.399  25.307  1.00  0.00    -0.036 A 
ATOM     14  C   UNL     1     -17.850 -42.314  26.693  1.00  0.00     0.021 A 
ATOM     15  C   UNL     1     -18.873 -42.045  24.538  1.00  0.00     0.004 A 
ATOM     16  C   UNL     1     -18.982 -41.889  27.364  1.00  0.00     0.012 A 
ATOM     17  C   UNL     1     -20.034 -41.616  25.191  1.00  0.00     0.000 A 
ATOM     18  C   UNL     1     -20.088 -41.538  26.593  1.00  0.00     0.001 A 
ATOM     19  O   UNL     1     -16.295 -42.731  28.433  1.00  0.00    -0.294 OA
ENDBRANCH   1  10
TORSDOF 2
ENDMDL
MODEL 4
REMARK VINA RESULT:    -9.455      3.476      8.301
REMARK INTER + INTRA:         -10.884
REMARK INTER:                 -10.358
REMARK INTRA:                  -0.526
REMARK UNBOUND:                -0.324
REMARK SMILES C[N@H+]1CC[C@H](C[C@@H]2Cc3ccccc3C2=O)CC1
REMARK SMILES IDX 6 1 5 2 2 3 3 4 18 5 4 6 17 7 1 8 7 10 8 11 15 12 9 13 14 14
REMARK SMILES IDX 10 15 13 16 11 17 12 18 16 19
REMARK H PARENT 2 9
ROOT
ATOM      1  C   UNL     1     -11.286 -46.229  29.444  1.00  0.00     0.016 C 
ENDROOT
BRANCH   1   2
ATOM      2  C   UNL     1     -12.172 -45.060  28.964  1.00  0.00     0.001 C 
ATOM      3  N   UNL     1     -13.354 -43.581  26.726  1.00  0.00    -0.337 N 
ATOM      4  C   UNL     1     -14.234 -44.406  27.626  1.00  0.00     0.262 C 
ATOM      5  C   UNL     1     -12.173 -43.006  27.465  1.00  0.00     0.262 C 
ATOM      6  C   UNL     1     -13.426 -45.552  28.223  1.00  0.00     0.065 C 
ATOM      7  C   UNL     1     -11.344 -44.140  28.049  1.00  0.00     0.065 C 
ATOM      8  C   UNL     1     -14.134 -42.515  26.007  1.00  0.00     0.332 C 
ATOM      9  H   UNL     1     -12.984 -44.208  25.997  1.00  0.00     0.347 HD
ENDBRANCH   1   2
BRANCH   1  10
ATOM     10  C   UNL     1     -10.780 -46.110  30.887  1.00  0.00     0.066 C 
ATOM     11  C   UNL     1     -11.226 -44.817  31.607  1.00  0.00     0.048 C 
ATOM     12  C   UNL     1      -9.262 -46.057  30.915  1.00  0.00     0.166 C 
ATOM     13  C   UNL     1      -9.962 -44.257  32.177  1.00  0.00    -0.036 A 
ATOM     14  C   UNL     1      -8.833 -44.952  31.760  1.00  0.00     0.021 A 
ATOM     15  C   UNL     1      -9.821 -43.152  33.002  1.00  0.00     0.004 A 
ATOM     16  C   UNL     1      -7.549 -44.599  32.130  1.00  0.00     0.012 A 
ATOM     17  C   UNL     1      -8.533 -42.774  33.397  1.00  0.00     0.000 A 
ATOM     18  C   UNL     1      -7.405 -43.491  32.964  1.00  0.00     0.001 A 
ATOM     19  O   UNL     1      -8.509 -46.824  30.343  1.00  0.00    -0.294 OA
ENDBRANCH   1  10
TORSDOF 2
ENDMDL
MODEL 5
REMARK VINA RESULT:    -9.295      1.303      2.056
REMARK INTER + INTRA:         -10.706
REMARK INTER:                 -10.441
REMARK INTRA:                  -0.265
REMARK UNBOUND:                -0.324
REMARK SMILES C[N@H+]1CC[C@H](C[C@@H]2Cc3ccccc3C2=O)CC1
REMARK SMILES IDX 6 1 5 2 2 3 3 4 18 5 4 6 17 7 1 8 7 10 8 11 15 12 9 13 14 14
REMARK SMILES IDX 10 15 13 16 11 17 12 18 16 19
REMARK H PARENT 2 9
ROOT
ATOM      1  C   UNL     1     -14.837 -44.214  25.431  1.00  0.00     0.016 C 
ENDROOT
BRANCH   1   2
ATOM      2  C   UNL     1     -13.569 -44.334  26.303  1.00  0.00     0.001 C 
ATOM      3  N   UNL     1     -12.160 -43.617  28.772  1.00  0.00    -0.337 N 
ATOM      4  C   UNL     1     -12.641 -45.030  28.567  1.00  0.00     0.262 C 
ATOM      5  C   UNL     1     -11.779 -42.957  27.471  1.00  0.00     0.262 C 
ATOM      6  C   UNL     1     -13.854 -45.029  27.645  1.00  0.00     0.065 C 
ATOM      7  C   UNL     1     -12.987 -42.931  26.548  1.00  0.00     0.065 C 
ATOM      8  C   UNL     1     -11.046 -43.547  29.780  1.00  0.00     0.332 C 
ATOM      9  H   UNL     1     -12.944 -43.080  29.170  1.00  0.00     0.347 HD
ENDBRANCH   1   2
BRANCH   1  10
ATOM     10  C   UNL     1     -15.600 -42.893  25.573  1.00  0.00     0.066 C 
ATOM     11  C   UNL     1     -16.450 -42.791  26.861  1.00  0.00     0.048 C 
ATOM     12  C   UNL     1     -16.603 -42.733  24.443  1.00  0.00     0.166 C 
ATOM     13  C   UNL     1     -17.800 -42.364  26.380  1.00  0.00    -0.036 A 
ATOM     14  C   UNL     1     -17.896 -42.355  24.993  1.00  0.00     0.021 A 
ATOM     15  C   UNL     1     -18.907 -42.033  27.146  1.00  0.00     0.004 A 
ATOM     16  C   UNL     1     -19.056 -42.026  24.318  1.00  0.00     0.012 A 
ATOM     17  C   UNL     1     -20.095 -41.690  26.489  1.00  0.00     0.000 A 
ATOM     18  C   UNL     1     -20.170 -41.688  25.086  1.00  0.00     0.001 A 
ATOM     19  O   UNL     1     -16.370 -42.876  23.256  1.00  0.00    -0.294 OA
ENDBRANCH   1  10
TORSDOF 2
ENDMDL
MODEL 6
REMARK VINA RESULT:    -8.857      3.340      7.479
REMARK INTER + INTRA:         -10.216
REMARK INTER:                  -9.900
REMARK INTRA:                  -0.315
REMARK UNBOUND:                -0.324
REMARK SMILES C[N@H+]1CC[C@H](C[C@@H]2Cc3ccccc3C2=O)CC1
REMARK SMILES IDX 6 1 5 2 2 3 3 4 18 5 4 6 17 7 1 8 7 10 8 11 15 12 9 13 14 14
REMARK SMILES IDX 10 15 13 16 11 17 12 18 16 19
REMARK H PARENT 2 9
ROOT
ATOM      1  C   UNL     1     -16.945 -43.258  25.139  1.00  0.00     0.016 C 
ENDROOT
BRANCH   1   2
ATOM      2  C   UNL     1     -17.394 -42.051  24.290  1.00  0.00     0.001 C 
ATOM      3  N   UNL     1     -18.573 -41.051  21.799  1.00  0.00    -0.337 N 
ATOM      4  C   UNL     1     -19.344 -40.942  23.089  1.00  0.00     0.262 C 
ATOM      5  C   UNL     1     -17.086 -40.946  22.020  1.00  0.00     0.262 C 
ATOM      6  C   UNL     1     -18.911 -42.053  24.038  1.00  0.00     0.065 C 
ATOM      7  C   UNL     1     -16.636 -42.063  22.951  1.00  0.00     0.065 C 
ATOM      8  C   UNL     1     -19.056 -40.059  20.776  1.00  0.00     0.332 C 
ATOM      9  H   UNL     1     -18.760 -41.985  21.407  1.00  0.00     0.347 HD
ENDBRANCH   1   2
BRANCH   1  10
ATOM     10  C   UNL     1     -15.523 -43.163  25.704  1.00  0.00     0.066 C 
ATOM     11  C   UNL     1     -14.595 -44.322  25.273  1.00  0.00     0.048 C 
ATOM     12  C   UNL     1     -15.547 -43.239  27.221  1.00  0.00     0.166 C 
ATOM     13  C   UNL     1     -13.997 -44.812  26.553  1.00  0.00    -0.036 A 
ATOM     14  C   UNL     1     -14.560 -44.209  27.672  1.00  0.00     0.021 A 
ATOM     15  C   UNL     1     -13.018 -45.780  26.715  1.00  0.00     0.004 A 
ATOM     16  C   UNL     1     -14.191 -44.525  28.966  1.00  0.00     0.012 A 
ATOM     17  C   UNL     1     -12.621 -46.116  28.015  1.00  0.00     0.000 A 
ATOM     18  C   UNL     1     -13.204 -45.494  29.132  1.00  0.00     0.001 A 
ATOM     19  O   UNL     1     -16.260 -42.582  27.958  1.00  0.00    -0.294 OA
ENDBRANCH   1  10
TORSDOF 2
ENDMDL
MODEL 7
REMARK VINA RESULT:    -8.822      2.212      3.712
REMARK INTER + INTRA:         -10.177
REMARK INTER:                  -9.771
REMARK INTRA:                  -0.406
REMARK UNBOUND:                -0.324
REMARK SMILES C[N@H+]1CC[C@H](C[C@@H]2Cc3ccccc3C2=O)CC1
REMARK SMILES IDX 6 1 5 2 2 3 3 4 18 5 4 6 17 7 1 8 7 10 8 11 15 12 9 13 14 14
REMARK SMILES IDX 10 15 13 16 11 17 12 18 16 19
REMARK H PARENT 2 9
ROOT
ATOM      1  C   UNL     1     -12.960 -44.628  30.099  1.00  0.00     0.016 C 
ENDROOT
BRANCH   1   2
ATOM      2  C   UNL     1     -11.505 -45.127  29.971  1.00  0.00     0.001 C 
ATOM      3  N   UNL     1      -8.804 -45.263  31.101  1.00  0.00    -0.337 N 
ATOM      4  C   UNL     1      -9.658 -46.502  31.052  1.00  0.00     0.262 C 
ATOM      5  C   UNL     1      -9.089 -44.335  29.948  1.00  0.00     0.262 C 
ATOM      6  C   UNL     1     -11.130 -46.111  31.091  1.00  0.00     0.065 C 
ATOM      7  C   UNL     1     -10.552 -43.919  29.987  1.00  0.00     0.065 C 
ATOM      8  C   UNL     1      -7.341 -45.597  31.199  1.00  0.00     0.332 C 
ATOM      9  H   UNL     1      -9.043 -44.759  31.967  1.00  0.00     0.347 HD
ENDBRANCH   1   2
BRANCH   1  10
ATOM     10  C   UNL     1     -13.893 -45.043  28.956  1.00  0.00     0.066 C 
ATOM     11  C   UNL     1     -13.202 -45.123  27.576  1.00  0.00     0.048 C 
ATOM     12  C   UNL     1     -14.996 -44.015  28.770  1.00  0.00     0.166 C 
ATOM     13  C   UNL     1     -14.087 -44.324  26.672  1.00  0.00    -0.036 A 
ATOM     14  C   UNL     1     -15.101 -43.668  27.360  1.00  0.00     0.021 A 
ATOM     15  C   UNL     1     -13.971 -44.160  25.301  1.00  0.00     0.004 A 
ATOM     16  C   UNL     1     -16.023 -42.845  26.742  1.00  0.00     0.012 A 
ATOM     17  C   UNL     1     -14.894 -43.335  24.647  1.00  0.00     0.000 A 
ATOM     18  C   UNL     1     -15.912 -42.681  25.362  1.00  0.00     0.001 A 
ATOM     19  O   UNL     1     -15.704 -43.559  29.650  1.00  0.00    -0.294 OA
ENDBRANCH   1  10
TORSDOF 2
ENDMDL
MODEL 8
REMARK VINA RESULT:    -8.578      2.558      7.252
REMARK INTER + INTRA:          -9.905
REMARK INTER:                  -9.605
REMARK INTRA:                  -0.300
REMARK UNBOUND:                -0.324
REMARK SMILES C[N@H+]1CC[C@H](C[C@@H]2Cc3ccccc3C2=O)CC1
REMARK SMILES IDX 6 1 5 2 2 3 3 4 18 5 4 6 17 7 1 8 7 10 8 11 15 12 9 13 14 14
REMARK SMILES IDX 10 15 13 16 11 17 12 18 16 19
REMARK H PARENT 2 9
ROOT
ATOM      1  C   UNL     1     -13.373 -44.076  26.780  1.00  0.00     0.016 C 
ENDROOT
BRANCH   1   2
ATOM      2  C   UNL     1     -14.735 -44.022  26.056  1.00  0.00     0.001 C 
ATOM      3  N   UNL     1     -16.665 -42.476  24.482  1.00  0.00    -0.337 N 
ATOM      4  C   UNL     1     -15.916 -43.615  23.840  1.00  0.00     0.262 C 
ATOM      5  C   UNL     1     -16.918 -42.723  25.947  1.00  0.00     0.262 C 
ATOM      6  C   UNL     1     -14.577 -43.806  24.542  1.00  0.00     0.065 C 
ATOM      7  C   UNL     1     -15.588 -42.895  26.665  1.00  0.00     0.065 C 
ATOM      8  C   UNL     1     -17.936 -42.159  23.743  1.00  0.00     0.332 C 
ATOM      9  H   UNL     1     -16.072 -41.638  24.409  1.00  0.00     0.347 HD
ENDBRANCH   1   2
BRANCH   1  10
ATOM     10  C   UNL     1     -13.346 -44.931  28.052  1.00  0.00     0.066 C 
ATOM     11  C   UNL     1     -13.121 -44.124  29.350  1.00  0.00     0.048 C 
ATOM     12  C   UNL     1     -12.187 -45.912  28.008  1.00  0.00     0.166 C 
ATOM     13  C   UNL     1     -12.008 -44.842  30.045  1.00  0.00    -0.036 A 
ATOM     14  C   UNL     1     -11.455 -45.852  29.265  1.00  0.00     0.021 A 
ATOM     15  C   UNL     1     -11.487 -44.582  31.303  1.00  0.00     0.004 A 
ATOM     16  C   UNL     1     -10.392 -46.631  29.682  1.00  0.00     0.012 A 
ATOM     17  C   UNL     1     -10.413 -45.359  31.753  1.00  0.00     0.000 A 
ATOM     18  C   UNL     1      -9.869 -46.375  30.948  1.00  0.00     0.001 A 
ATOM     19  O   UNL     1     -11.912 -46.654  27.083  1.00  0.00    -0.294 OA
ENDBRANCH   1  10
TORSDOF 2
ENDMDL
MODEL 9
REMARK VINA RESULT:    -8.266      4.364      7.975
REMARK INTER + INTRA:          -9.556
REMARK INTER:                  -9.150
REMARK INTRA:                  -0.406
REMARK UNBOUND:                -0.324
REMARK SMILES C[N@H+]1CC[C@H](C[C@@H]2Cc3ccccc3C2=O)CC1
REMARK SMILES IDX 6 1 5 2 2 3 3 4 18 5 4 6 17 7 1 8 7 10 8 11 15 12 9 13 14 14
REMARK SMILES IDX 10 15 13 16 11 17 12 18 16 19
REMARK H PARENT 2 9
ROOT
ATOM      1  C   UNL     1     -19.517 -42.802  27.683  1.00  0.00     0.016 C 
ENDROOT
BRANCH   1   2
ATOM      2  C   UNL     1     -20.647 -43.255  26.736  1.00  0.00     0.001 C 
ATOM      3  N   UNL     1     -23.473 -43.949  26.374  1.00  0.00    -0.337 N 
ATOM      4  C   UNL     1     -22.930 -42.679  25.771  1.00  0.00     0.262 C 
ATOM      5  C   UNL     1     -22.433 -45.039  26.423  1.00  0.00     0.262 C 
ATOM      6  C   UNL     1     -21.745 -42.188  26.594  1.00  0.00     0.065 C 
ATOM      7  C   UNL     1     -21.252 -44.569  27.260  1.00  0.00     0.065 C 
ATOM      8  C   UNL     1     -24.726 -44.405  25.678  1.00  0.00     0.332 C 
ATOM      9  H   UNL     1     -23.743 -43.737  27.345  1.00  0.00     0.347 HD
ENDBRANCH   1   2
BRANCH   1  10
ATOM     10  C   UNL     1     -18.351 -42.076  27.003  1.00  0.00     0.066 C 
ATOM     11  C   UNL     1     -18.185 -42.415  25.504  1.00  0.00     0.048 C 
ATOM     12  C   UNL     1     -17.030 -42.483  27.634  1.00  0.00     0.166 C 
ATOM     13  C   UNL     1     -16.738 -42.767  25.362  1.00  0.00    -0.036 A 
ATOM     14  C   UNL     1     -16.081 -42.831  26.586  1.00  0.00     0.021 A 
ATOM     15  C   UNL     1     -16.046 -43.054  24.196  1.00  0.00     0.004 A 
ATOM     16  C   UNL     1     -14.747 -43.170  26.710  1.00  0.00     0.012 A 
ATOM     17  C   UNL     1     -14.692 -43.396  24.291  1.00  0.00     0.000 A 
ATOM     18  C   UNL     1     -14.047 -43.455  25.539  1.00  0.00     0.001 A 
ATOM     19  O   UNL     1     -16.782 -42.501  28.826  1.00  0.00    -0.294 OA
ENDBRANCH   1  10
TORSDOF 2
ENDMDL
