MODEL 1
REMARK VINA RESULT:    -7.716      0.000      0.000
REMARK INTER + INTRA:         -10.472
REMARK INTER:                  -9.971
REMARK INTRA:                  -0.501
REMARK UNBOUND:                -0.501
REMARK SMILES CCC[C@H](C)n1cc(C(=O)C(F)(F)F)cn1
REMARK SMILES IDX 6 1 7 2 8 3 15 4 16 5 4 6 5 7 3 8 2 9 1 10 9 11 10 12 11 13
REMARK SMILES IDX 12 14 13 15 14 16
REMARK H PARENT
ROOT
ATOM      1  N   UNL     1     -11.532 -44.198  28.421  1.00  0.00    -0.269 N 
ATOM      2  C   UNL     1     -10.574 -44.641  29.289  1.00  0.00     0.121 A 
ATOM      3  C   UNL     1      -9.912 -43.523  29.760  1.00  0.00     0.065 A 
ATOM      4  C   UNL     1     -10.557 -42.450  29.108  1.00  0.00     0.147 A 
ATOM      5  N   UNL     1     -11.538 -42.856  28.298  1.00  0.00    -0.180 NA
ENDROOT
BRANCH   1   6
ATOM      6  C   UNL     1     -12.502 -44.984  27.662  1.00  0.00     0.104 C 
ATOM      7  C   UNL     1     -12.172 -46.479  27.629  1.00  0.00     0.033 C 
BRANCH   6   8
ATOM      8  C   UNL     1     -13.953 -44.690  28.090  1.00  0.00     0.027 C 
BRANCH   8   9
ATOM      9  C   UNL     1     -14.787 -43.896  27.080  1.00  0.00    -0.001 C 
ATOM     10  C   UNL     1     -14.392 -44.237  25.651  1.00  0.00     0.004 C 
ENDBRANCH   8   9
ENDBRANCH   6   8
ENDBRANCH   1   6
BRANCH   3  11
ATOM     11  C   UNL     1      -8.809 -43.517  30.715  1.00  0.00     0.269 C 
ATOM     12  O   UNL     1      -7.718 -43.035  30.402  1.00  0.00    -0.284 OA
BRANCH  11  13
ATOM     13  C   UNL     1      -9.075 -44.127  32.090  1.00  0.00     0.454 C 
ATOM     14  F   UNL     1     -10.357 -43.962  32.519  1.00  0.00    -0.163 F 
ATOM     15  F   UNL     1      -8.836 -45.470  32.115  1.00  0.00    -0.163 F 
ATOM     16  F   UNL     1      -8.278 -43.588  33.056  1.00  0.00    -0.163 F 
ENDBRANCH  11  13
ENDBRANCH   3  11
TORSDOF 5
ENDMDL
MODEL 2
REMARK VINA RESULT:    -7.425      3.785      4.985
REMARK INTER + INTRA:         -10.096
REMARK INTER:                  -9.671
REMARK INTRA:                  -0.425
REMARK UNBOUND:                -0.501
REMARK SMILES CCC[C@H](C)n1cc(C(=O)C(F)(F)F)cn1
REMARK SMILES IDX 6 1 7 2 8 3 15 4 16 5 4 6 5 7 3 8 2 9 1 10 9 11 10 12 11 13
REMARK SMILES IDX 12 14 13 15 14 16
REMARK H PARENT
ROOT
ATOM      1  N   UNL     1     -14.841 -43.521  26.585  1.00  0.00    -0.269 N 
ATOM      2  C   UNL     1     -13.964 -44.464  26.128  1.00  0.00     0.121 A 
ATOM      3  C   UNL     1     -13.515 -45.162  27.234  1.00  0.00     0.065 A 
ATOM      4  C   UNL     1     -14.192 -44.554  28.313  1.00  0.00     0.147 A 
ATOM      5  N   UNL     1     -14.995 -43.563  27.923  1.00  0.00    -0.180 NA
ENDROOT
BRANCH   1   6
ATOM      6  C   UNL     1     -15.594 -42.534  25.814  1.00  0.00     0.104 C 
ATOM      7  C   UNL     1     -15.089 -42.380  24.377  1.00  0.00     0.033 C 
BRANCH   6   8
ATOM      8  C   UNL     1     -17.115 -42.762  25.905  1.00  0.00     0.027 C 
BRANCH   8   9
ATOM      9  C   UNL     1     -17.862 -42.744  24.567  1.00  0.00    -0.001 C 
ATOM     10  C   UNL     1     -19.053 -41.798  24.615  1.00  0.00     0.004 C 
ENDBRANCH   8   9
ENDBRANCH   6   8
ENDBRANCH   1   6
BRANCH   3  11
ATOM     11  C   UNL     1     -12.563 -46.267  27.223  1.00  0.00     0.269 C 
ATOM     12  O   UNL     1     -12.727 -47.222  26.459  1.00  0.00    -0.284 OA
BRANCH  11  13
ATOM     13  C   UNL     1     -11.380 -46.177  28.185  1.00  0.00     0.454 C 
ATOM     14  F   UNL     1     -11.686 -46.546  29.459  1.00  0.00    -0.163 F 
ATOM     15  F   UNL     1     -10.339 -46.971  27.800  1.00  0.00    -0.163 F 
ATOM     16  F   UNL     1     -10.875 -44.913  28.265  1.00  0.00    -0.163 F 
ENDBRANCH  11  13
ENDBRANCH   3  11
TORSDOF 5
ENDMDL
MODEL 3
REMARK VINA RESULT:    -7.301      4.957      6.589
REMARK INTER + INTRA:          -9.936
REMARK INTER:                  -9.490
REMARK INTRA:                  -0.446
REMARK UNBOUND:                -0.501
REMARK SMILES CCC[C@H](C)n1cc(C(=O)C(F)(F)F)cn1
REMARK SMILES IDX 6 1 7 2 8 3 15 4 16 5 4 6 5 7 3 8 2 9 1 10 9 11 10 12 11 13
REMARK SMILES IDX 12 14 13 15 14 16
REMARK H PARENT
ROOT
ATOM      1  N   UNL     1     -12.359 -45.121  28.263  1.00  0.00    -0.269 N 
ATOM      2  C   UNL     1     -13.632 -45.032  27.778  1.00  0.00     0.121 A 
ATOM      3  C   UNL     1     -13.741 -43.799  27.161  1.00  0.00     0.065 A 
ATOM      4  C   UNL     1     -12.463 -43.224  27.332  1.00  0.00     0.147 A 
ATOM      5  N   UNL     1     -11.625 -44.021  27.997  1.00  0.00    -0.180 NA
ENDROOT
BRANCH   1   6
ATOM      6  C   UNL     1     -11.740 -46.227  28.991  1.00  0.00     0.104 C 
ATOM      7  C   UNL     1     -10.352 -46.595  28.460  1.00  0.00     0.033 C 
BRANCH   6   8
ATOM      8  C   UNL     1     -11.771 -46.009  30.517  1.00  0.00     0.027 C 
BRANCH   8   9
ATOM      9  C   UNL     1     -10.457 -46.302  31.248  1.00  0.00    -0.001 C 
ATOM     10  C   UNL     1      -9.862 -45.033  31.840  1.00  0.00     0.004 C 
ENDBRANCH   8   9
ENDBRANCH   6   8
ENDBRANCH   1   6
BRANCH   3  11
ATOM     11  C   UNL     1     -14.929 -43.273  26.498  1.00  0.00     0.269 C 
ATOM     12  O   UNL     1     -15.806 -42.705  27.153  1.00  0.00    -0.284 OA
BRANCH  11  13
ATOM     13  C   UNL     1     -15.023 -43.460  24.984  1.00  0.00     0.454 C 
ATOM     14  F   UNL     1     -16.279 -43.280  24.492  1.00  0.00    -0.163 F 
ATOM     15  F   UNL     1     -14.221 -42.591  24.306  1.00  0.00    -0.163 F 
ATOM     16  F   UNL     1     -14.636 -44.708  24.594  1.00  0.00    -0.163 F 
ENDBRANCH  11  13
ENDBRANCH   3  11
TORSDOF 5
ENDMDL
MODEL 4
REMARK VINA RESULT:    -7.289      3.179      3.993
REMARK INTER + INTRA:          -9.920
REMARK INTER:                  -9.706
REMARK INTRA:                  -0.214
REMARK UNBOUND:                -0.501
REMARK SMILES CCC[C@H](C)n1cc(C(=O)C(F)(F)F)cn1
REMARK SMILES IDX 6 1 7 2 8 3 15 4 16 5 4 6 5 7 3 8 2 9 1 10 9 11 10 12 11 13
REMARK SMILES IDX 12 14 13 15 14 16
REMARK H PARENT
ROOT
ATOM      1  N   UNL     1     -14.330 -44.418  28.061  1.00  0.00    -0.269 N 
ATOM      2  C   UNL     1     -13.126 -45.061  28.030  1.00  0.00     0.121 A 
ATOM      3  C   UNL     1     -12.812 -45.389  29.336  1.00  0.00     0.065 A 
ATOM      4  C   UNL     1     -13.905 -44.894  30.079  1.00  0.00     0.147 A 
ATOM      5  N   UNL     1     -14.825 -44.307  29.311  1.00  0.00    -0.180 NA
ENDROOT
BRANCH   1   6
ATOM      6  C   UNL     1     -15.099 -43.875  26.943  1.00  0.00     0.104 C 
ATOM      7  C   UNL     1     -16.051 -42.750  27.357  1.00  0.00     0.033 C 
BRANCH   6   8
ATOM      8  C   UNL     1     -14.203 -43.506  25.745  1.00  0.00     0.027 C 
BRANCH   8   9
ATOM      9  C   UNL     1     -14.640 -44.085  24.396  1.00  0.00    -0.001 C 
ATOM     10  C   UNL     1     -15.721 -43.228  23.754  1.00  0.00     0.004 C 
ENDBRANCH   8   9
ENDBRANCH   6   8
ENDBRANCH   1   6
BRANCH   3  11
ATOM     11  C   UNL     1     -11.613 -46.091  29.780  1.00  0.00     0.269 C 
ATOM     12  O   UNL     1     -11.540 -46.530  30.930  1.00  0.00    -0.284 OA
BRANCH  11  13
ATOM     13  C   UNL     1     -10.481 -46.247  28.766  1.00  0.00     0.454 C 
ATOM     14  F   UNL     1     -10.000 -45.061  28.301  1.00  0.00    -0.163 F 
ATOM     15  F   UNL     1      -9.410 -46.913  29.285  1.00  0.00    -0.163 F 
ATOM     16  F   UNL     1     -10.867 -46.957  27.668  1.00  0.00    -0.163 F 
ENDBRANCH  11  13
ENDBRANCH   3  11
TORSDOF 5
ENDMDL
MODEL 5
REMARK VINA RESULT:    -7.251      3.997      5.989
REMARK INTER + INTRA:          -9.872
REMARK INTER:                  -9.803
REMARK INTRA:                  -0.068
REMARK UNBOUND:                -0.501
REMARK SMILES CCC[C@H](C)n1cc(C(=O)C(F)(F)F)cn1
REMARK SMILES IDX 6 1 7 2 8 3 15 4 16 5 4 6 5 7 3 8 2 9 1 10 9 11 10 12 11 13
REMARK SMILES IDX 12 14 13 15 14 16
REMARK H PARENT
ROOT
ATOM      1  N   UNL     1     -11.064 -46.176  30.507  1.00  0.00    -0.269 N 
ATOM      2  C   UNL     1     -11.069 -46.076  29.145  1.00  0.00     0.121 A 
ATOM      3  C   UNL     1     -12.391 -46.145  28.744  1.00  0.00     0.065 A 
ATOM      4  C   UNL     1     -13.103 -46.285  29.955  1.00  0.00     0.147 A 
ATOM      5  N   UNL     1     -12.303 -46.303  31.023  1.00  0.00    -0.180 NA
ENDROOT
BRANCH   1   6
ATOM      6  C   UNL     1      -9.918 -46.151  31.415  1.00  0.00     0.104 C 
ATOM      7  C   UNL     1      -8.662 -46.787  30.815  1.00  0.00     0.033 C 
BRANCH   6   8
ATOM      8  C   UNL     1      -9.670 -44.747  32.000  1.00  0.00     0.027 C 
BRANCH   8   9
ATOM      9  C   UNL     1     -10.927 -43.908  32.247  1.00  0.00    -0.001 C 
ATOM     10  C   UNL     1     -10.626 -42.718  33.148  1.00  0.00     0.004 C 
ENDBRANCH   8   9
ENDBRANCH   6   8
ENDBRANCH   1   6
BRANCH   3  11
ATOM     11  C   UNL     1     -12.875 -46.078  27.369  1.00  0.00     0.269 C 
ATOM     12  O   UNL     1     -12.663 -47.011  26.590  1.00  0.00    -0.284 OA
BRANCH  11  13
ATOM     13  C   UNL     1     -13.640 -44.821  26.960  1.00  0.00     0.454 C 
ATOM     14  F   UNL     1     -14.666 -44.511  27.801  1.00  0.00    -0.163 F 
ATOM     15  F   UNL     1     -12.838 -43.719  26.917  1.00  0.00    -0.163 F 
ATOM     16  F   UNL     1     -14.188 -44.933  25.717  1.00  0.00    -0.163 F 
ENDBRANCH  11  13
ENDBRANCH   3  11
TORSDOF 5
ENDMDL
MODEL 6
REMARK VINA RESULT:    -7.251      3.395      5.792
REMARK INTER + INTRA:          -9.872
REMARK INTER:                  -9.439
REMARK INTRA:                  -0.432
REMARK UNBOUND:                -0.501
REMARK SMILES CCC[C@H](C)n1cc(C(=O)C(F)(F)F)cn1
REMARK SMILES IDX 6 1 7 2 8 3 15 4 16 5 4 6 5 7 3 8 2 9 1 10 9 11 10 12 11 13
REMARK SMILES IDX 12 14 13 15 14 16
REMARK H PARENT
ROOT
ATOM      1  N   UNL     1      -9.438 -44.214  30.642  1.00  0.00    -0.269 N 
ATOM      2  C   UNL     1     -10.626 -44.728  30.208  1.00  0.00     0.121 A 
ATOM      3  C   UNL     1     -10.873 -44.171  28.967  1.00  0.00     0.065 A 
ATOM      4  C   UNL     1      -9.761 -43.331  28.747  1.00  0.00     0.147 A 
ATOM      5  N   UNL     1      -8.890 -43.356  29.758  1.00  0.00    -0.180 NA
ENDROOT
BRANCH   1   6
ATOM      6  C   UNL     1      -8.732 -44.490  31.892  1.00  0.00     0.104 C 
ATOM      7  C   UNL     1      -7.426 -45.261  31.688  1.00  0.00     0.033 C 
BRANCH   6   8
ATOM      8  C   UNL     1      -8.565 -43.226  32.758  1.00  0.00     0.027 C 
BRANCH   8   9
ATOM      9  C   UNL     1      -9.796 -42.822  33.574  1.00  0.00    -0.001 C 
ATOM     10  C   UNL     1      -9.396 -42.113  34.859  1.00  0.00     0.004 C 
ENDBRANCH   8   9
ENDBRANCH   6   8
ENDBRANCH   1   6
BRANCH   3  11
ATOM     11  C   UNL     1     -12.035 -44.434  28.124  1.00  0.00     0.269 C 
ATOM     12  O   UNL     1     -12.703 -43.499  27.676  1.00  0.00    -0.284 OA
BRANCH  11  13
ATOM     13  C   UNL     1     -12.369 -45.897  27.834  1.00  0.00     0.454 C 
ATOM     14  F   UNL     1     -13.075 -46.500  28.830  1.00  0.00    -0.163 F 
ATOM     15  F   UNL     1     -13.111 -46.042  26.699  1.00  0.00    -0.163 F 
ATOM     16  F   UNL     1     -11.250 -46.654  27.649  1.00  0.00    -0.163 F 
ENDBRANCH  11  13
ENDBRANCH   3  11
TORSDOF 5
ENDMDL
MODEL 7
REMARK VINA RESULT:    -7.214      2.231      3.148
REMARK INTER + INTRA:          -9.823
REMARK INTER:                  -9.392
REMARK INTRA:                  -0.431
REMARK UNBOUND:                -0.501
REMARK SMILES CCC[C@H](C)n1cc(C(=O)C(F)(F)F)cn1
REMARK SMILES IDX 6 1 7 2 8 3 15 4 16 5 4 6 5 7 3 8 2 9 1 10 9 11 10 12 11 13
REMARK SMILES IDX 12 14 13 15 14 16
REMARK H PARENT
ROOT
ATOM      1  N   UNL     1     -13.363 -44.266  27.346  1.00  0.00    -0.269 N 
ATOM      2  C   UNL     1     -12.924 -45.411  27.948  1.00  0.00     0.121 A 
ATOM      3  C   UNL     1     -11.729 -45.102  28.572  1.00  0.00     0.065 A 
ATOM      4  C   UNL     1     -11.541 -43.733  28.281  1.00  0.00     0.147 A 
ATOM      5  N   UNL     1     -12.529 -43.225  27.541  1.00  0.00    -0.180 NA
ENDROOT
BRANCH   1   6
ATOM      6  C   UNL     1     -14.581 -44.062  26.564  1.00  0.00     0.104 C 
ATOM      7  C   UNL     1     -15.581 -43.123  27.242  1.00  0.00     0.033 C 
BRANCH   6   8
ATOM      8  C   UNL     1     -14.276 -43.676  25.103  1.00  0.00     0.027 C 
BRANCH   8   9
ATOM      9  C   UNL     1     -15.018 -42.441  24.583  1.00  0.00    -0.001 C 
ATOM     10  C   UNL     1     -16.097 -42.829  23.582  1.00  0.00     0.004 C 
ENDBRANCH   8   9
ENDBRANCH   6   8
ENDBRANCH   1   6
BRANCH   3  11
ATOM     11  C   UNL     1     -10.901 -46.022  29.343  1.00  0.00     0.269 C 
ATOM     12  O   UNL     1     -10.094 -46.760  28.772  1.00  0.00    -0.284 OA
BRANCH  11  13
ATOM     13  C   UNL     1     -11.084 -46.021  30.860  1.00  0.00     0.454 C 
ATOM     14  F   UNL     1     -10.901 -44.798  31.429  1.00  0.00    -0.163 F 
ATOM     15  F   UNL     1     -12.331 -46.430  31.230  1.00  0.00    -0.163 F 
ATOM     16  F   UNL     1     -10.214 -46.865  31.485  1.00  0.00    -0.163 F 
ENDBRANCH  11  13
ENDBRANCH   3  11
TORSDOF 5
ENDMDL
MODEL 8
REMARK VINA RESULT:    -7.149      3.922      6.202
REMARK INTER + INTRA:          -9.740
REMARK INTER:                  -9.285
REMARK INTRA:                  -0.455
REMARK UNBOUND:                -0.501
REMARK SMILES CCC[C@H](C)n1cc(C(=O)C(F)(F)F)cn1
REMARK SMILES IDX 6 1 7 2 8 3 15 4 16 5 4 6 5 7 3 8 2 9 1 10 9 11 10 12 11 13
REMARK SMILES IDX 12 14 13 15 14 16
REMARK H PARENT
ROOT
ATOM      1  N   UNL     1     -11.269 -45.604  30.984  1.00  0.00    -0.269 N 
ATOM      2  C   UNL     1     -11.723 -44.850  29.940  1.00  0.00     0.121 A 
ATOM      3  C   UNL     1     -13.043 -45.206  29.733  1.00  0.00     0.065 A 
ATOM      4  C   UNL     1     -13.285 -46.189  30.717  1.00  0.00     0.147 A 
ATOM      5  N   UNL     1     -12.214 -46.431  31.475  1.00  0.00    -0.180 NA
ENDROOT
BRANCH   1   6
ATOM      6  C   UNL     1      -9.941 -45.601  31.595  1.00  0.00     0.104 C 
ATOM      7  C   UNL     1      -8.945 -46.513  30.875  1.00  0.00     0.033 C 
BRANCH   6   8
ATOM      8  C   UNL     1      -9.407 -44.173  31.820  1.00  0.00     0.027 C 
BRANCH   8   9
ATOM      9  C   UNL     1      -7.904 -43.991  31.586  1.00  0.00    -0.001 C 
ATOM     10  C   UNL     1      -7.220 -43.421  32.820  1.00  0.00     0.004 C 
ENDBRANCH   8   9
ENDBRANCH   6   8
ENDBRANCH   1   6
BRANCH   3  11
ATOM     11  C   UNL     1     -13.933 -44.653  28.717  1.00  0.00     0.269 C 
ATOM     12  O   UNL     1     -14.982 -44.096  29.047  1.00  0.00    -0.284 OA
BRANCH  11  13
ATOM     13  C   UNL     1     -13.501 -44.800  27.259  1.00  0.00     0.454 C 
ATOM     14  F   UNL     1     -12.605 -43.855  26.860  1.00  0.00    -0.163 F 
ATOM     15  F   UNL     1     -12.916 -46.007  27.012  1.00  0.00    -0.163 F 
ATOM     16  F   UNL     1     -14.555 -44.713  26.398  1.00  0.00    -0.163 F 
ENDBRANCH  11  13
ENDBRANCH   3  11
TORSDOF 5
ENDMDL
MODEL 9
REMARK VINA RESULT:    -6.974      3.365      5.648
REMARK INTER + INTRA:          -9.513
REMARK INTER:                  -9.026
REMARK INTRA:                  -0.487
REMARK UNBOUND:                -0.501
REMARK SMILES CCC[C@H](C)n1cc(C(=O)C(F)(F)F)cn1
REMARK SMILES IDX 6 1 7 2 8 3 15 4 16 5 4 6 5 7 3 8 2 9 1 10 9 11 10 12 11 13
REMARK SMILES IDX 12 14 13 15 14 16
REMARK H PARENT
ROOT
ATOM      1  N   UNL     1     -10.278 -43.381  30.467  1.00  0.00    -0.269 N 
ATOM      2  C   UNL     1     -11.402 -44.025  30.037  1.00  0.00     0.121 A 
ATOM      3  C   UNL     1     -11.338 -44.065  28.656  1.00  0.00     0.065 A 
ATOM      4  C   UNL     1     -10.123 -43.412  28.357  1.00  0.00     0.147 A 
ATOM      5  N   UNL     1      -9.479 -42.998  29.450  1.00  0.00    -0.180 NA
ENDROOT
BRANCH   1   6
ATOM      6  C   UNL     1      -9.869 -43.087  31.839  1.00  0.00     0.104 C 
ATOM      7  C   UNL     1     -11.033 -43.112  32.833  1.00  0.00     0.033 C 
BRANCH   6   8
ATOM      8  C   UNL     1      -8.669 -43.945  32.285  1.00  0.00     0.027 C 
BRANCH   8   9
ATOM      9  C   UNL     1      -8.702 -45.407  31.830  1.00  0.00    -0.001 C 
ATOM     10  C   UNL     1      -7.367 -45.828  31.233  1.00  0.00     0.004 C 
ENDBRANCH   8   9
ENDBRANCH   6   8
ENDBRANCH   1   6
BRANCH   3  11
ATOM     11  C   UNL     1     -12.328 -44.663  27.768  1.00  0.00     0.269 C 
ATOM     12  O   UNL     1     -13.072 -43.946  27.093  1.00  0.00    -0.284 OA
BRANCH  11  13
ATOM     13  C   UNL     1     -12.392 -46.189  27.720  1.00  0.00     0.454 C 
ATOM     14  F   UNL     1     -11.169 -46.785  27.769  1.00  0.00    -0.163 F 
ATOM     15  F   UNL     1     -13.109 -46.708  28.757  1.00  0.00    -0.163 F 
ATOM     16  F   UNL     1     -12.992 -46.645  26.584  1.00  0.00    -0.163 F 
ENDBRANCH  11  13
ENDBRANCH   3  11
TORSDOF 5
ENDMDL
