MODEL 1
REMARK VINA RESULT:    -9.787      0.000      0.000
REMARK INTER + INTRA:         -10.073
REMARK INTER:                 -10.073
REMARK INTRA:                   0.000
REMARK UNBOUND:                 0.000
REMARK SMILES CC1=C[C@@H]2Cc3nc4cc(Cl)ccc4c(N)c3[C@H](C1)C2
REMARK SMILES IDX 1 1 2 2 3 3 4 4 5 5 6 6 7 7 8 8 9 9 10 10 11 11 12 12 13 13
REMARK SMILES IDX 14 14 15 15 17 16 18 17 19 18 20 19 16 20
REMARK H PARENT 16 21 16 22
ROOT
ATOM      1  C   UNL     1     -10.431 -42.983  30.993  1.00  0.00     0.039 C 
ATOM      2  C   UNL     1     -11.282 -44.129  30.534  1.00  0.00    -0.076 C 
ATOM      3  C   UNL     1     -10.795 -45.131  29.777  1.00  0.00    -0.024 C 
ATOM      4  C   UNL     1     -11.636 -46.304  29.323  1.00  0.00     0.018 C 
ATOM      5  C   UNL     1     -12.122 -46.103  27.882  1.00  0.00     0.064 C 
ATOM      6  C   UNL     1     -13.295 -45.155  27.753  1.00  0.00     0.047 A 
ATOM      7  N   UNL     1     -13.610 -44.817  26.481  1.00  0.00    -0.252 NA
ATOM      8  C   UNL     1     -14.682 -44.052  26.259  1.00  0.00     0.074 A 
ATOM      9  C   UNL     1     -15.000 -43.766  24.939  1.00  0.00     0.049 A 
ATOM     10  C   UNL     1     -16.115 -43.002  24.613  1.00  0.00     0.043 A 
ATOM     11  Cl  UNL     1     -16.478 -42.673  22.964  1.00  0.00    -0.084 Cl
ATOM     12  C   UNL     1     -16.942 -42.511  25.611  1.00  0.00     0.021 A 
ATOM     13  C   UNL     1     -16.635 -42.784  26.943  1.00  0.00     0.014 A 
ATOM     14  C   UNL     1     -15.493 -43.548  27.298  1.00  0.00     0.024 A 
ATOM     15  C   UNL     1     -15.107 -43.841  28.637  1.00  0.00     0.046 A 
ATOM     16  C   UNL     1     -14.029 -44.721  28.865  1.00  0.00     0.001 A 
ATOM     17  C   UNL     1     -13.620 -45.163  30.267  1.00  0.00     0.028 C 
ATOM     18  C   UNL     1     -12.737 -44.095  30.957  1.00  0.00     0.039 C 
ATOM     19  C   UNL     1     -12.857 -46.492  30.226  1.00  0.00     0.017 C 
ENDROOT
BRANCH  15  20
ATOM     20  N   UNL     1     -15.920 -43.424  29.720  1.00  0.00    -0.398 N 
ATOM     21  H   UNL     1     -16.904 -43.640  29.592  1.00  0.00     0.156 HD
ATOM     22  H   UNL     1     -15.804 -42.451  29.978  1.00  0.00     0.156 HD
ENDBRANCH  15  20
TORSDOF 1
ENDMDL
MODEL 2
REMARK VINA RESULT:    -9.538      2.135      3.372
REMARK INTER + INTRA:          -9.816
REMARK INTER:                  -9.816
REMARK INTRA:                   0.000
REMARK UNBOUND:                 0.000
REMARK SMILES CC1=C[C@@H]2Cc3nc4cc(Cl)ccc4c(N)c3[C@H](C1)C2
REMARK SMILES IDX 1 1 2 2 3 3 4 4 5 5 6 6 7 7 8 8 9 9 10 10 11 11 12 12 13 13
REMARK SMILES IDX 14 14 15 15 17 16 18 17 19 18 20 19 16 20
REMARK H PARENT 16 21 16 22
ROOT
ATOM      1  C   UNL     1     -10.050 -42.805  33.694  1.00  0.00     0.039 C 
ATOM      2  C   UNL     1      -9.635 -43.595  32.489  1.00  0.00    -0.076 C 
ATOM      3  C   UNL     1      -8.631 -43.205  31.682  1.00  0.00    -0.024 C 
ATOM      4  C   UNL     1      -8.187 -44.002  30.474  1.00  0.00     0.018 C 
ATOM      5  C   UNL     1      -8.794 -43.428  29.188  1.00  0.00     0.064 C 
ATOM      6  C   UNL     1     -10.241 -43.812  28.964  1.00  0.00     0.047 A 
ATOM      7  N   UNL     1     -10.846 -43.161  27.943  1.00  0.00    -0.252 NA
ATOM      8  C   UNL     1     -12.098 -43.491  27.614  1.00  0.00     0.074 A 
ATOM      9  C   UNL     1     -12.667 -42.835  26.532  1.00  0.00     0.049 A 
ATOM     10  C   UNL     1     -13.955 -43.135  26.100  1.00  0.00     0.043 A 
ATOM     11  Cl  UNL     1     -14.624 -42.302  24.752  1.00  0.00    -0.084 Cl
ATOM     12  C   UNL     1     -14.699 -44.109  26.746  1.00  0.00     0.021 A 
ATOM     13  C   UNL     1     -14.145 -44.775  27.839  1.00  0.00     0.014 A 
ATOM     14  C   UNL     1     -12.840 -44.472  28.305  1.00  0.00     0.024 A 
ATOM     15  C   UNL     1     -12.224 -45.095  29.429  1.00  0.00     0.046 A 
ATOM     16  C   UNL     1     -10.874 -44.809  29.719  1.00  0.00     0.001 A 
ATOM     17  C   UNL     1     -10.116 -45.510  30.842  1.00  0.00     0.028 C 
ATOM     18  C   UNL     1     -10.422 -44.862  32.215  1.00  0.00     0.039 C 
ATOM     19  C   UNL     1      -8.603 -45.470  30.596  1.00  0.00     0.017 C 
ENDROOT
BRANCH  15  20
ATOM     20  N   UNL     1     -12.890 -46.137  30.119  1.00  0.00    -0.398 N 
ATOM     21  H   UNL     1     -13.662 -45.813  30.692  1.00  0.00     0.156 HD
ATOM     22  H   UNL     1     -12.278 -46.737  30.660  1.00  0.00     0.156 HD
ENDBRANCH  15  20
TORSDOF 1
ENDMDL
MODEL 3
REMARK VINA RESULT:    -8.868      4.111      7.199
REMARK INTER + INTRA:          -9.127
REMARK INTER:                  -9.127
REMARK INTRA:                   0.000
REMARK UNBOUND:                 0.000
REMARK SMILES CC1=C[C@@H]2Cc3nc4cc(Cl)ccc4c(N)c3[C@H](C1)C2
REMARK SMILES IDX 1 1 2 2 3 3 4 4 5 5 6 6 7 7 8 8 9 9 10 10 11 11 12 12 13 13
REMARK SMILES IDX 14 14 15 15 17 16 18 17 19 18 20 19 16 20
REMARK H PARENT 16 21 16 22
ROOT
ATOM      1  C   UNL     1     -13.043 -43.159  26.555  1.00  0.00     0.039 C 
ATOM      2  C   UNL     1     -13.032 -44.157  27.674  1.00  0.00    -0.076 C 
ATOM      3  C   UNL     1     -14.082 -44.325  28.500  1.00  0.00    -0.024 C 
ATOM      4  C   UNL     1     -14.094 -45.342  29.622  1.00  0.00     0.018 C 
ATOM      5  C   UNL     1     -13.764 -44.678  30.965  1.00  0.00     0.064 C 
ATOM      6  C   UNL     1     -12.290 -44.403  31.171  1.00  0.00     0.047 A 
ATOM      7  N   UNL     1     -12.004 -43.648  32.257  1.00  0.00    -0.252 NA
ATOM      8  C   UNL     1     -10.725 -43.420  32.571  1.00  0.00     0.074 A 
ATOM      9  C   UNL     1     -10.472 -42.681  33.717  1.00  0.00     0.049 A 
ATOM     10  C   UNL     1      -9.172 -42.420  34.137  1.00  0.00     0.043 A 
ATOM     11  Cl  UNL     1      -8.899 -41.504  35.568  1.00  0.00    -0.084 Cl
ATOM     12  C   UNL     1      -8.094 -42.903  33.413  1.00  0.00     0.021 A 
ATOM     13  C   UNL     1      -8.330 -43.643  32.255  1.00  0.00     0.014 A 
ATOM     14  C   UNL     1      -9.648 -43.906  31.801  1.00  0.00     0.024 A 
ATOM     15  C   UNL     1      -9.959 -44.631  30.615  1.00  0.00     0.046 A 
ATOM     16  C   UNL     1     -11.305 -44.945  30.334  1.00  0.00     0.001 A 
ATOM     17  C   UNL     1     -11.710 -45.804  29.140  1.00  0.00     0.028 C 
ATOM     18  C   UNL     1     -11.760 -44.966  27.838  1.00  0.00     0.039 C 
ATOM     19  C   UNL     1     -13.078 -46.457  29.367  1.00  0.00     0.017 C 
ENDROOT
BRANCH  15  20
ATOM     20  N   UNL     1      -8.923 -45.206  29.839  1.00  0.00    -0.398 N 
ATOM     21  H   UNL     1      -8.350 -45.866  30.356  1.00  0.00     0.156 HD
ATOM     22  H   UNL     1      -8.336 -44.532  29.361  1.00  0.00     0.156 HD
ENDBRANCH  15  20
TORSDOF 1
ENDMDL
MODEL 4
REMARK VINA RESULT:    -8.744      1.865      2.840
REMARK INTER + INTRA:          -9.000
REMARK INTER:                  -9.000
REMARK INTRA:                   0.000
REMARK UNBOUND:                 0.000
REMARK SMILES CC1=C[C@@H]2Cc3nc4cc(Cl)ccc4c(N)c3[C@H](C1)C2
REMARK SMILES IDX 1 1 2 2 3 3 4 4 5 5 6 6 7 7 8 8 9 9 10 10 11 11 12 12 13 13
REMARK SMILES IDX 14 14 15 15 17 16 18 17 19 18 20 19 16 20
REMARK H PARENT 16 21 16 22
ROOT
ATOM      1  C   UNL     1     -13.489 -45.834  32.170  1.00  0.00     0.039 C 
ATOM      2  C   UNL     1     -12.460 -45.480  31.138  1.00  0.00    -0.076 C 
ATOM      3  C   UNL     1     -11.741 -44.344  31.198  1.00  0.00    -0.024 C 
ATOM      4  C   UNL     1     -10.686 -43.981  30.175  1.00  0.00     0.018 C 
ATOM      5  C   UNL     1     -11.245 -42.999  29.139  1.00  0.00     0.064 C 
ATOM      6  C   UNL     1     -12.111 -43.646  28.080  1.00  0.00     0.047 A 
ATOM      7  N   UNL     1     -12.766 -42.775  27.277  1.00  0.00    -0.252 NA
ATOM      8  C   UNL     1     -13.490 -43.249  26.259  1.00  0.00     0.074 A 
ATOM      9  C   UNL     1     -14.108 -42.323  25.431  1.00  0.00     0.049 A 
ATOM     10  C   UNL     1     -14.857 -42.724  24.330  1.00  0.00     0.043 A 
ATOM     11  Cl  UNL     1     -15.604 -41.546  23.324  1.00  0.00    -0.084 Cl
ATOM     12  C   UNL     1     -14.998 -44.071  24.034  1.00  0.00     0.021 A 
ATOM     13  C   UNL     1     -14.388 -45.015  24.859  1.00  0.00     0.014 A 
ATOM     14  C   UNL     1     -13.634 -44.627  25.996  1.00  0.00     0.024 A 
ATOM     15  C   UNL     1     -13.008 -45.539  26.894  1.00  0.00     0.046 A 
ATOM     16  C   UNL     1     -12.173 -45.036  27.913  1.00  0.00     0.001 A 
ATOM     17  C   UNL     1     -11.389 -45.950  28.849  1.00  0.00     0.028 C 
ATOM     18  C   UNL     1     -12.281 -46.469  30.004  1.00  0.00     0.039 C 
ATOM     19  C   UNL     1     -10.176 -45.224  29.443  1.00  0.00     0.017 C 
ENDROOT
BRANCH  15  20
ATOM     20  N   UNL     1     -13.056 -46.932  26.642  1.00  0.00    -0.398 N 
ATOM     21  H   UNL     1     -13.218 -47.487  27.476  1.00  0.00     0.156 HD
ATOM     22  H   UNL     1     -12.258 -47.291  26.130  1.00  0.00     0.156 HD
ENDBRANCH  15  20
TORSDOF 1
ENDMDL
MODEL 5
REMARK VINA RESULT:    -8.694      4.044      8.528
REMARK INTER + INTRA:          -8.948
REMARK INTER:                  -8.948
REMARK INTRA:                   0.000
REMARK UNBOUND:                 0.000
REMARK SMILES CC1=C[C@@H]2Cc3nc4cc(Cl)ccc4c(N)c3[C@H](C1)C2
REMARK SMILES IDX 1 1 2 2 3 3 4 4 5 5 6 6 7 7 8 8 9 9 10 10 11 11 12 12 13 13
REMARK SMILES IDX 14 14 15 15 17 16 18 17 19 18 20 19 16 20
REMARK H PARENT 16 21 16 22
ROOT
ATOM      1  C   UNL     1     -22.962 -44.170  23.272  1.00  0.00     0.039 C 
ATOM      2  C   UNL     1     -22.111 -42.935  23.277  1.00  0.00    -0.076 C 
ATOM      3  C   UNL     1     -21.423 -42.529  22.194  1.00  0.00    -0.024 C 
ATOM      4  C   UNL     1     -20.575 -41.275  22.178  1.00  0.00     0.018 C 
ATOM      5  C   UNL     1     -19.095 -41.613  22.391  1.00  0.00     0.064 C 
ATOM      6  C   UNL     1     -18.728 -41.895  23.832  1.00  0.00     0.047 A 
ATOM      7  N   UNL     1     -17.477 -42.381  24.010  1.00  0.00    -0.252 NA
ATOM      8  C   UNL     1     -17.030 -42.583  25.253  1.00  0.00     0.074 A 
ATOM      9  C   UNL     1     -15.727 -43.037  25.397  1.00  0.00     0.049 A 
ATOM     10  C   UNL     1     -15.169 -43.247  26.653  1.00  0.00     0.043 A 
ATOM     11  Cl  UNL     1     -13.548 -43.807  26.789  1.00  0.00    -0.084 Cl
ATOM     12  C   UNL     1     -15.910 -42.998  27.797  1.00  0.00     0.021 A 
ATOM     13  C   UNL     1     -17.223 -42.546  27.672  1.00  0.00     0.014 A 
ATOM     14  C   UNL     1     -17.816 -42.342  26.399  1.00  0.00     0.024 A 
ATOM     15  C   UNL     1     -19.158 -41.907  26.200  1.00  0.00     0.046 A 
ATOM     16  C   UNL     1     -19.598 -41.611  24.893  1.00  0.00     0.001 A 
ATOM     17  C   UNL     1     -20.986 -41.045  24.609  1.00  0.00     0.028 C 
ATOM     18  C   UNL     1     -22.054 -42.166  24.583  1.00  0.00     0.039 C 
ATOM     19  C   UNL     1     -21.014 -40.297  23.271  1.00  0.00     0.017 C 
ENDROOT
BRANCH  15  20
ATOM     20  N   UNL     1     -19.973 -41.580  27.311  1.00  0.00    -0.398 N 
ATOM     21  H   UNL     1     -20.964 -41.719  27.139  1.00  0.00     0.156 HD
ATOM     22  H   UNL     1     -19.808 -40.655  27.692  1.00  0.00     0.156 HD
ENDBRANCH  15  20
TORSDOF 1
ENDMDL
MODEL 6
REMARK VINA RESULT:    -8.420      1.962      2.952
REMARK INTER + INTRA:          -8.666
REMARK INTER:                  -8.666
REMARK INTRA:                   0.000
REMARK UNBOUND:                 0.000
REMARK SMILES CC1=C[C@@H]2Cc3nc4cc(Cl)ccc4c(N)c3[C@H](C1)C2
REMARK SMILES IDX 1 1 2 2 3 3 4 4 5 5 6 6 7 7 8 8 9 9 10 10 11 11 12 12 13 13
REMARK SMILES IDX 14 14 15 15 17 16 18 17 19 18 20 19 16 20
REMARK H PARENT 16 21 16 22
ROOT
ATOM      1  C   UNL     1      -8.230 -46.460  30.560  1.00  0.00     0.039 C 
ATOM      2  C   UNL     1      -9.537 -45.806  30.897  1.00  0.00    -0.076 C 
ATOM      3  C   UNL     1     -10.587 -46.499  31.374  1.00  0.00    -0.024 C 
ATOM      4  C   UNL     1     -11.906 -45.851  31.737  1.00  0.00     0.018 C 
ATOM      5  C   UNL     1     -12.928 -46.021  30.606  1.00  0.00     0.064 C 
ATOM      6  C   UNL     1     -12.729 -45.069  29.446  1.00  0.00     0.047 A 
ATOM      7  N   UNL     1     -13.495 -45.332  28.362  1.00  0.00    -0.252 NA
ATOM      8  C   UNL     1     -13.452 -44.499  27.319  1.00  0.00     0.074 A 
ATOM      9  C   UNL     1     -14.286 -44.776  26.246  1.00  0.00     0.049 A 
ATOM     10  C   UNL     1     -14.330 -43.947  25.130  1.00  0.00     0.043 A 
ATOM     11  Cl  UNL     1     -15.382 -44.323  23.822  1.00  0.00    -0.084 Cl
ATOM     12  C   UNL     1     -13.535 -42.813  25.071  1.00  0.00     0.021 A 
ATOM     13  C   UNL     1     -12.687 -42.522  26.138  1.00  0.00     0.014 A 
ATOM     14  C   UNL     1     -12.616 -43.364  27.278  1.00  0.00     0.024 A 
ATOM     15  C   UNL     1     -11.753 -43.139  28.389  1.00  0.00     0.046 A 
ATOM     16  C   UNL     1     -11.864 -43.969  29.524  1.00  0.00     0.001 A 
ATOM     17  C   UNL     1     -11.048 -43.730  30.791  1.00  0.00     0.028 C 
ATOM     18  C   UNL     1      -9.619 -44.312  30.656  1.00  0.00     0.039 C 
ATOM     19  C   UNL     1     -11.730 -44.356  32.013  1.00  0.00     0.017 C 
ENDROOT
BRANCH  15  20
ATOM     20  N   UNL     1     -10.943 -41.978  28.438  1.00  0.00    -0.398 N 
ATOM     21  H   UNL     1     -10.986 -41.494  29.329  1.00  0.00     0.156 HD
ATOM     22  H   UNL     1     -11.099 -41.328  27.677  1.00  0.00     0.156 HD
ENDBRANCH  15  20
TORSDOF 1
ENDMDL
MODEL 7
REMARK VINA RESULT:    -8.344      4.712      9.387
REMARK INTER + INTRA:          -8.588
REMARK INTER:                  -8.588
REMARK INTRA:                   0.000
REMARK UNBOUND:                 0.000
REMARK SMILES CC1=C[C@@H]2Cc3nc4cc(Cl)ccc4c(N)c3[C@H](C1)C2
REMARK SMILES IDX 1 1 2 2 3 3 4 4 5 5 6 6 7 7 8 8 9 9 10 10 11 11 12 12 13 13
REMARK SMILES IDX 14 14 15 15 17 16 18 17 19 18 20 19 16 20
REMARK H PARENT 16 21 16 22
ROOT
ATOM      1  C   UNL     1     -20.546 -38.329  21.184  1.00  0.00     0.039 C 
ATOM      2  C   UNL     1     -20.904 -39.700  21.675  1.00  0.00    -0.076 C 
ATOM      3  C   UNL     1     -22.013 -39.939  22.400  1.00  0.00    -0.024 C 
ATOM      4  C   UNL     1     -22.398 -41.320  22.886  1.00  0.00     0.018 C 
ATOM      5  C   UNL     1     -21.986 -41.519  24.350  1.00  0.00     0.064 C 
ATOM      6  C   UNL     1     -20.514 -41.815  24.541  1.00  0.00     0.047 A 
ATOM      7  N   UNL     1     -20.098 -41.801  25.829  1.00  0.00    -0.252 NA
ATOM      8  C   UNL     1     -18.834 -42.132  26.107  1.00  0.00     0.074 A 
ATOM      9  C   UNL     1     -18.459 -42.152  27.442  1.00  0.00     0.049 A 
ATOM     10  C   UNL     1     -17.172 -42.513  27.827  1.00  0.00     0.043 A 
ATOM     11  Cl  UNL     1     -16.747 -42.530  29.494  1.00  0.00    -0.084 Cl
ATOM     12  C   UNL     1     -16.232 -42.869  26.872  1.00  0.00     0.021 A 
ATOM     13  C   UNL     1     -16.590 -42.850  25.525  1.00  0.00     0.014 A 
ATOM     14  C   UNL     1     -17.893 -42.468  25.112  1.00  0.00     0.024 A 
ATOM     15  C   UNL     1     -18.316 -42.401  23.753  1.00  0.00     0.046 A 
ATOM     16  C   UNL     1     -19.672 -42.138  23.468  1.00  0.00     0.001 A 
ATOM     17  C   UNL     1     -20.223 -42.151  22.045  1.00  0.00     0.028 C 
ATOM     18  C   UNL     1     -19.937 -40.812  21.321  1.00  0.00     0.039 C 
ATOM     19  C   UNL     1     -21.734 -42.409  22.040  1.00  0.00     0.017 C 
ENDROOT
BRANCH  15  20
ATOM     20  N   UNL     1     -17.439 -42.796  22.714  1.00  0.00    -0.398 N 
ATOM     21  H   UNL     1     -16.602 -42.224  22.653  1.00  0.00     0.156 HD
ATOM     22  H   UNL     1     -17.879 -42.874  21.804  1.00  0.00     0.156 HD
ENDBRANCH  15  20
TORSDOF 1
ENDMDL
MODEL 8
REMARK VINA RESULT:    -8.310      7.186      9.214
REMARK INTER + INTRA:          -8.553
REMARK INTER:                  -8.553
REMARK INTRA:                   0.000
REMARK UNBOUND:                 0.000
REMARK SMILES CC1=C[C@@H]2Cc3nc4cc(Cl)ccc4c(N)c3[C@H](C1)C2
REMARK SMILES IDX 1 1 2 2 3 3 4 4 5 5 6 6 7 7 8 8 9 9 10 10 11 11 12 12 13 13
REMARK SMILES IDX 14 14 15 15 17 16 18 17 19 18 20 19 16 20
REMARK H PARENT 16 21 16 22
ROOT
ATOM      1  C   UNL     1     -21.295 -45.415  25.338  1.00  0.00     0.039 C 
ATOM      2  C   UNL     1     -20.802 -44.033  25.644  1.00  0.00    -0.076 C 
ATOM      3  C   UNL     1     -21.519 -43.156  26.370  1.00  0.00    -0.024 C 
ATOM      4  C   UNL     1     -21.026 -41.764  26.705  1.00  0.00     0.018 C 
ATOM      5  C   UNL     1     -21.632 -40.727  25.751  1.00  0.00     0.064 C 
ATOM      6  C   UNL     1     -20.972 -40.681  24.390  1.00  0.00     0.047 A 
ATOM      7  N   UNL     1     -21.613 -39.914  23.478  1.00  0.00    -0.252 NA
ATOM      8  C   UNL     1     -21.064 -39.743  22.272  1.00  0.00     0.074 A 
ATOM      9  C   UNL     1     -21.728 -38.912  21.381  1.00  0.00     0.049 A 
ATOM     10  C   UNL     1     -21.215 -38.653  20.114  1.00  0.00     0.043 A 
ATOM     11  Cl  UNL     1     -22.065 -37.614  19.039  1.00  0.00    -0.084 Cl
ATOM     12  C   UNL     1     -20.016 -39.223  19.716  1.00  0.00     0.021 A 
ATOM     13  C   UNL     1     -19.338 -40.065  20.597  1.00  0.00     0.014 A 
ATOM     14  C   UNL     1     -19.853 -40.354  21.887  1.00  0.00     0.024 A 
ATOM     15  C   UNL     1     -19.226 -41.225  22.825  1.00  0.00     0.046 A 
ATOM     16  C   UNL     1     -19.760 -41.333  24.126  1.00  0.00     0.001 A 
ATOM     17  C   UNL     1     -19.089 -42.164  25.215  1.00  0.00     0.028 C 
ATOM     18  C   UNL     1     -19.445 -43.665  25.075  1.00  0.00     0.039 C 
ATOM     19  C   UNL     1     -19.501 -41.681  26.611  1.00  0.00     0.017 C 
ENDROOT
BRANCH  15  20
ATOM     20  N   UNL     1     -17.972 -41.811  22.524  1.00  0.00    -0.398 N 
ATOM     21  H   UNL     1     -17.767 -41.838  21.531  1.00  0.00     0.156 HD
ATOM     22  H   UNL     1     -17.829 -42.725  22.938  1.00  0.00     0.156 HD
ENDBRANCH  15  20
TORSDOF 1
ENDMDL
MODEL 9
REMARK VINA RESULT:    -8.234      5.333     10.012
REMARK INTER + INTRA:          -8.475
REMARK INTER:                  -8.475
REMARK INTRA:                   0.000
REMARK UNBOUND:                 0.000
REMARK SMILES CC1=C[C@@H]2Cc3nc4cc(Cl)ccc4c(N)c3[C@H](C1)C2
REMARK SMILES IDX 1 1 2 2 3 3 4 4 5 5 6 6 7 7 8 8 9 9 10 10 11 11 12 12 13 13
REMARK SMILES IDX 14 14 15 15 17 16 18 17 19 18 20 19 16 20
REMARK H PARENT 16 21 16 22
ROOT
ATOM      1  C   UNL     1     -22.952 -42.763  19.991  1.00  0.00     0.039 C 
ATOM      2  C   UNL     1     -22.212 -41.571  20.520  1.00  0.00    -0.076 C 
ATOM      3  C   UNL     1     -21.433 -40.801  19.737  1.00  0.00    -0.024 C 
ATOM      4  C   UNL     1     -20.696 -39.583  20.252  1.00  0.00     0.018 C 
ATOM      5  C   UNL     1     -19.229 -39.918  20.550  1.00  0.00     0.064 C 
ATOM      6  C   UNL     1     -19.018 -40.652  21.857  1.00  0.00     0.047 A 
ATOM      7  N   UNL     1     -17.763 -41.123  22.042  1.00  0.00    -0.252 NA
ATOM      8  C   UNL     1     -17.455 -41.713  23.202  1.00  0.00     0.074 A 
ATOM      9  C   UNL     1     -16.146 -42.140  23.372  1.00  0.00     0.049 A 
ATOM     10  C   UNL     1     -15.729 -42.737  24.557  1.00  0.00     0.043 A 
ATOM     11  Cl  UNL     1     -14.096 -43.250  24.731  1.00  0.00    -0.084 Cl
ATOM     12  C   UNL     1     -16.622 -42.913  25.602  1.00  0.00     0.021 A 
ATOM     13  C   UNL     1     -17.942 -42.494  25.446  1.00  0.00     0.014 A 
ATOM     14  C   UNL     1     -18.391 -41.898  24.240  1.00  0.00     0.024 A 
ATOM     15  C   UNL     1     -19.730 -41.472  24.005  1.00  0.00     0.046 A 
ATOM     16  C   UNL     1     -20.031 -40.772  22.818  1.00  0.00     0.001 A 
ATOM     17  C   UNL     1     -21.416 -40.196  22.540  1.00  0.00     0.028 C 
ATOM     18  C   UNL     1     -22.377 -41.282  21.999  1.00  0.00     0.039 C 
ATOM     19  C   UNL     1     -21.342 -39.045  21.530  1.00  0.00     0.017 C 
ENDROOT
BRANCH  15  20
ATOM     20  N   UNL     1     -20.698 -41.566  25.034  1.00  0.00    -0.398 N 
ATOM     21  H   UNL     1     -20.326 -41.366  25.958  1.00  0.00     0.156 HD
ATOM     22  H   UNL     1     -21.214 -42.438  25.044  1.00  0.00     0.156 HD
ENDBRANCH  15  20
TORSDOF 1
ENDMDL
