MODEL 1
REMARK VINA RESULT:    -9.834      0.000      0.000
REMARK INTER + INTRA:         -14.329
REMARK INTER:                 -14.433
REMARK INTRA:                   0.104
REMARK UNBOUND:                 0.104
REMARK SMILES CCCCCCCNC(=O)Oc1ccc2c(c1)[C@]1(C)CC[N@@H+](C)[C@@H]1N2C
REMARK SMILES IDX 6 1 7 2 8 3 9 4 10 5 11 7 12 8 21 9 22 10 20 11 24 12 18 13
REMARK SMILES IDX 25 14 16 15 15 16 17 17 14 18 13 19 23 20 19 22 26 23 5 24
REMARK SMILES IDX 4 25 3 26 2 27 1 28
REMARK H PARENT 8 6 22 21
ROOT
ATOM      1  C   UNL     1     -12.178 -46.126  27.846  1.00  0.00     0.021 C 
ENDROOT
BRANCH   1   2
ATOM      2  C   UNL     1     -13.167 -45.541  28.849  1.00  0.00     0.119 C 
BRANCH   2   3
ATOM      3  N   UNL     1     -13.725 -44.297  28.365  1.00  0.00    -0.321 N 
ATOM      4  C   UNL     1     -14.128 -44.145  27.067  1.00  0.00     0.412 C 
ATOM      5  O   UNL     1     -14.183 -45.046  26.242  1.00  0.00    -0.224 OA
ATOM      6  H   UNL     1     -13.569 -43.442  28.881  1.00  0.00     0.167 HD
BRANCH   4   7
ATOM      7  O   UNL     1     -14.443 -42.811  26.839  1.00  0.00    -0.410 OA
BRANCH   7   8
ATOM      8  C   UNL     1     -15.450 -42.588  25.892  1.00  0.00     0.133 A 
ATOM      9  C   UNL     1     -20.960 -43.836  24.476  1.00  0.00     0.265 C 
ATOM     10  N   UNL     1     -20.490 -42.970  23.354  1.00  0.00    -0.317 N 
ATOM     11  C   UNL     1     -19.790 -43.857  25.432  1.00  0.00     0.081 C 
ATOM     12  C   UNL     1     -19.617 -41.920  23.936  1.00  0.00     0.296 C 
ATOM     13  C   UNL     1     -19.225 -42.435  25.350  1.00  0.00     0.072 C 
ATOM     14  N   UNL     1     -18.462 -41.965  23.048  1.00  0.00    -0.325 N 
ATOM     15  C   UNL     1     -17.735 -42.438  25.242  1.00  0.00    -0.007 A 
ATOM     16  C   UNL     1     -17.356 -42.165  23.922  1.00  0.00     0.045 A 
ATOM     17  C   UNL     1     -16.798 -42.665  26.240  1.00  0.00     0.054 A 
ATOM     18  C   UNL     1     -16.010 -42.143  23.578  1.00  0.00     0.030 A 
ATOM     19  C   UNL     1     -15.050 -42.354  24.572  1.00  0.00     0.049 A 
ATOM     20  C   UNL     1     -21.561 -42.496  22.445  1.00  0.00     0.334 C 
ATOM     21  H   UNL     1     -19.793 -43.484  22.797  1.00  0.00     0.349 HD
ATOM     22  C   UNL     1     -19.757 -41.521  26.451  1.00  0.00     0.025 C 
ATOM     23  C   UNL     1     -18.262 -40.806  22.168  1.00  0.00     0.150 C 
ENDBRANCH   7   8
ENDBRANCH   4   7
ENDBRANCH   2   3
ENDBRANCH   1   2
BRANCH   1  24
ATOM     24  C   UNL     1     -10.844 -46.552  28.469  1.00  0.00     0.002 C 
BRANCH  24  25
ATOM     25  C   UNL     1     -10.335 -45.640  29.590  1.00  0.00     0.000 C 
BRANCH  25  26
ATOM     26  C   UNL     1     -10.164 -46.279  30.969  1.00  0.00    -0.000 C 
BRANCH  26  27
ATOM     27  C   UNL     1      -8.721 -46.583  31.382  1.00  0.00    -0.003 C 
ATOM     28  C   UNL     1      -7.829 -45.351  31.421  1.00  0.00     0.004 C 
ENDBRANCH  26  27
ENDBRANCH  25  26
ENDBRANCH  24  25
ENDBRANCH   1  24
TORSDOF 8
ENDMDL
MODEL 2
REMARK VINA RESULT:    -9.806      1.006      1.555
REMARK INTER + INTRA:         -14.288
REMARK INTER:                 -14.015
REMARK INTRA:                  -0.273
REMARK UNBOUND:                 0.104
REMARK SMILES CCCCCCCNC(=O)Oc1ccc2c(c1)[C@]1(C)CC[N@@H+](C)[C@@H]1N2C
REMARK SMILES IDX 6 1 7 2 8 3 9 4 10 5 11 7 12 8 21 9 22 10 20 11 24 12 18 13
REMARK SMILES IDX 25 14 16 15 15 16 17 17 14 18 13 19 23 20 19 22 26 23 5 24
REMARK SMILES IDX 4 25 3 26 2 27 1 28
REMARK H PARENT 8 6 22 21
ROOT
ATOM      1  C   UNL     1     -12.139 -46.159  27.799  1.00  0.00     0.021 C 
ENDROOT
BRANCH   1   2
ATOM      2  C   UNL     1     -13.204 -45.654  28.768  1.00  0.00     0.119 C 
BRANCH   2   3
ATOM      3  N   UNL     1     -13.775 -44.405  28.311  1.00  0.00    -0.321 N 
ATOM      4  C   UNL     1     -14.151 -44.220  27.009  1.00  0.00     0.412 C 
ATOM      5  O   UNL     1     -14.169 -45.096  26.155  1.00  0.00    -0.224 OA
ATOM      6  H   UNL     1     -13.647 -43.565  28.857  1.00  0.00     0.167 HD
BRANCH   4   7
ATOM      7  O   UNL     1     -14.486 -42.886  26.815  1.00  0.00    -0.410 OA
BRANCH   7   8
ATOM      8  C   UNL     1     -15.498 -42.654  25.874  1.00  0.00     0.133 A 
ATOM      9  C   UNL     1     -21.028 -43.851  24.497  1.00  0.00     0.265 C 
ATOM     10  N   UNL     1     -20.558 -42.990  23.371  1.00  0.00    -0.317 N 
ATOM     11  C   UNL     1     -19.853 -43.882  25.445  1.00  0.00     0.081 C 
ATOM     12  C   UNL     1     -19.671 -41.948  23.946  1.00  0.00     0.296 C 
ATOM     13  C   UNL     1     -19.275 -42.465  25.358  1.00  0.00     0.072 C 
ATOM     14  N   UNL     1     -18.523 -42.005  23.050  1.00  0.00    -0.325 N 
ATOM     15  C   UNL     1     -17.785 -42.483  25.240  1.00  0.00    -0.007 A 
ATOM     16  C   UNL     1     -17.413 -42.215  23.917  1.00  0.00     0.045 A 
ATOM     17  C   UNL     1     -16.843 -42.718  26.232  1.00  0.00     0.054 A 
ATOM     18  C   UNL     1     -16.069 -42.206  23.564  1.00  0.00     0.030 A 
ATOM     19  C   UNL     1     -15.104 -42.426  24.552  1.00  0.00     0.049 A 
ATOM     20  C   UNL     1     -21.630 -42.507  22.469  1.00  0.00     0.334 C 
ATOM     21  H   UNL     1     -19.870 -43.511  22.810  1.00  0.00     0.349 HD
ATOM     22  C   UNL     1     -19.791 -41.546  26.462  1.00  0.00     0.025 C 
ATOM     23  C   UNL     1     -18.317 -40.849  22.168  1.00  0.00     0.150 C 
ENDBRANCH   7   8
ENDBRANCH   4   7
ENDBRANCH   2   3
ENDBRANCH   1   2
BRANCH   1  24
ATOM     24  C   UNL     1     -10.750 -46.303  28.428  1.00  0.00     0.002 C 
BRANCH  24  25
ATOM     25  C   UNL     1     -10.431 -45.289  29.532  1.00  0.00     0.000 C 
BRANCH  25  26
ATOM     26  C   UNL     1      -9.565 -44.093  29.136  1.00  0.00    -0.000 C 
BRANCH  26  27
ATOM     27  C   UNL     1     -10.284 -42.743  29.084  1.00  0.00    -0.003 C 
ATOM     28  C   UNL     1     -10.856 -42.413  27.713  1.00  0.00     0.004 C 
ENDBRANCH  26  27
ENDBRANCH  25  26
ENDBRANCH  24  25
ENDBRANCH   1  24
TORSDOF 8
ENDMDL
MODEL 3
REMARK VINA RESULT:    -9.239      2.337     10.197
REMARK INTER + INTRA:         -13.455
REMARK INTER:                 -13.143
REMARK INTRA:                  -0.312
REMARK UNBOUND:                 0.104
REMARK SMILES CCCCCCCNC(=O)Oc1ccc2c(c1)[C@]1(C)CC[N@@H+](C)[C@@H]1N2C
REMARK SMILES IDX 6 1 7 2 8 3 9 4 10 5 11 7 12 8 21 9 22 10 20 11 24 12 18 13
REMARK SMILES IDX 25 14 16 15 15 16 17 17 14 18 13 19 23 20 19 22 26 23 5 24
REMARK SMILES IDX 4 25 3 26 2 27 1 28
REMARK H PARENT 8 6 22 21
ROOT
ATOM      1  C   UNL     1     -17.266 -42.491  23.379  1.00  0.00     0.021 C 
ENDROOT
BRANCH   1   2
ATOM      2  C   UNL     1     -16.793 -42.371  24.824  1.00  0.00     0.119 C 
BRANCH   2   3
ATOM      3  N   UNL     1     -15.842 -43.413  25.150  1.00  0.00    -0.321 N 
ATOM      4  C   UNL     1     -15.337 -43.557  26.413  1.00  0.00     0.412 C 
ATOM      5  O   UNL     1     -15.719 -42.933  27.394  1.00  0.00    -0.224 OA
ATOM      6  H   UNL     1     -15.321 -43.866  24.412  1.00  0.00     0.167 HD
BRANCH   4   7
ATOM      7  O   UNL     1     -14.321 -44.504  26.394  1.00  0.00    -0.410 OA
BRANCH   7   8
ATOM      8  C   UNL     1     -13.142 -44.129  27.051  1.00  0.00     0.133 A 
ATOM      9  C   UNL     1     -10.048 -44.790  31.940  1.00  0.00     0.265 C 
ATOM     10  N   UNL     1      -9.242 -43.825  31.135  1.00  0.00    -0.317 N 
ATOM     11  C   UNL     1     -11.193 -45.157  31.026  1.00  0.00     0.081 C 
ATOM     12  C   UNL     1      -9.331 -44.245  29.714  1.00  0.00     0.296 C 
ATOM     13  C   UNL     1     -10.550 -45.208  29.636  1.00  0.00     0.072 C 
ATOM     14  N   UNL     1      -9.642 -42.987  29.049  1.00  0.00    -0.325 N 
ATOM     15  C   UNL     1     -11.388 -44.513  28.613  1.00  0.00    -0.007 A 
ATOM     16  C   UNL     1     -10.831 -43.263  28.315  1.00  0.00     0.045 A 
ATOM     17  C   UNL     1     -12.551 -44.959  28.002  1.00  0.00     0.054 A 
ATOM     18  C   UNL     1     -11.459 -42.423  27.403  1.00  0.00     0.030 A 
ATOM     19  C   UNL     1     -12.623 -42.861  26.765  1.00  0.00     0.049 A 
ATOM     20  C   UNL     1      -7.877 -43.571  31.655  1.00  0.00     0.334 C 
ATOM     21  H   UNL     1      -9.742 -42.927  31.080  1.00  0.00     0.349 HD
ATOM     22  C   UNL     1     -10.131 -46.618  29.228  1.00  0.00     0.025 C 
ATOM     23  C   UNL     1      -8.593 -42.415  28.195  1.00  0.00     0.150 C 
ENDBRANCH   7   8
ENDBRANCH   4   7
ENDBRANCH   2   3
ENDBRANCH   1   2
BRANCH   1  24
ATOM     24  C   UNL     1     -16.738 -41.384  22.461  1.00  0.00     0.002 C 
BRANCH  24  25
ATOM     25  C   UNL     1     -17.818 -40.512  21.813  1.00  0.00     0.000 C 
BRANCH  25  26
ATOM     26  C   UNL     1     -19.218 -40.586  22.425  1.00  0.00    -0.000 C 
BRANCH  26  27
ATOM     27  C   UNL     1     -20.138 -39.403  22.116  1.00  0.00    -0.003 C 
ATOM     28  C   UNL     1     -21.361 -39.783  21.294  1.00  0.00     0.004 C 
ENDBRANCH  26  27
ENDBRANCH  25  26
ENDBRANCH  24  25
ENDBRANCH   1  24
TORSDOF 8
ENDMDL
MODEL 4
REMARK VINA RESULT:    -9.235      2.368      9.750
REMARK INTER + INTRA:         -13.450
REMARK INTER:                 -12.909
REMARK INTRA:                  -0.541
REMARK UNBOUND:                 0.104
REMARK SMILES CCCCCCCNC(=O)Oc1ccc2c(c1)[C@]1(C)CC[N@@H+](C)[C@@H]1N2C
REMARK SMILES IDX 6 1 7 2 8 3 9 4 10 5 11 7 12 8 21 9 22 10 20 11 24 12 18 13
REMARK SMILES IDX 25 14 16 15 15 16 17 17 14 18 13 19 23 20 19 22 26 23 5 24
REMARK SMILES IDX 4 25 3 26 2 27 1 28
REMARK H PARENT 8 6 22 21
ROOT
ATOM      1  C   UNL     1     -17.961 -42.967  24.964  1.00  0.00     0.021 C 
ENDROOT
BRANCH   1   2
ATOM      2  C   UNL     1     -16.550 -42.399  25.080  1.00  0.00     0.119 C 
BRANCH   2   3
ATOM      3  N   UNL     1     -15.593 -43.439  25.394  1.00  0.00    -0.321 N 
ATOM      4  C   UNL     1     -15.124 -43.626  26.665  1.00  0.00     0.412 C 
ATOM      5  O   UNL     1     -15.544 -43.046  27.657  1.00  0.00    -0.224 OA
ATOM      6  H   UNL     1     -15.043 -43.855  24.655  1.00  0.00     0.167 HD
BRANCH   4   7
ATOM      7  O   UNL     1     -14.093 -44.556  26.640  1.00  0.00    -0.410 OA
BRANCH   7   8
ATOM      8  C   UNL     1     -12.913 -44.157  27.279  1.00  0.00     0.133 A 
ATOM      9  C   UNL     1      -9.801 -44.646  32.178  1.00  0.00     0.265 C 
ATOM     10  N   UNL     1      -8.999 -43.709  31.337  1.00  0.00    -0.317 N 
ATOM     11  C   UNL     1     -10.948 -45.046  31.280  1.00  0.00     0.081 C 
ATOM     12  C   UNL     1      -9.092 -44.178  29.932  1.00  0.00     0.296 C 
ATOM     13  C   UNL     1     -10.310 -45.144  29.891  1.00  0.00     0.072 C 
ATOM     14  N   UNL     1      -9.406 -42.943  29.224  1.00  0.00    -0.325 N 
ATOM     15  C   UNL     1     -11.153 -44.485  28.848  1.00  0.00    -0.007 A 
ATOM     16  C   UNL     1     -10.598 -43.246  28.505  1.00  0.00     0.045 A 
ATOM     17  C   UNL     1     -12.317 -44.953  28.257  1.00  0.00     0.054 A 
ATOM     18  C   UNL     1     -11.230 -42.438  27.567  1.00  0.00     0.030 A 
ATOM     19  C   UNL     1     -12.396 -42.900  26.949  1.00  0.00     0.049 A 
ATOM     20  C   UNL     1      -7.632 -43.435  31.843  1.00  0.00     0.334 C 
ATOM     21  H   UNL     1      -9.500 -42.813  31.253  1.00  0.00     0.349 HD
ATOM     22  C   UNL     1      -9.891 -46.566  29.530  1.00  0.00     0.025 C 
ATOM     23  C   UNL     1      -8.361 -42.401  28.348  1.00  0.00     0.150 C 
ENDBRANCH   7   8
ENDBRANCH   4   7
ENDBRANCH   2   3
ENDBRANCH   1   2
BRANCH   1  24
ATOM     24  C   UNL     1     -19.061 -41.903  25.004  1.00  0.00     0.002 C 
BRANCH  24  25
ATOM     25  C   UNL     1     -20.233 -42.219  25.940  1.00  0.00     0.000 C 
BRANCH  25  26
ATOM     26  C   UNL     1     -19.876 -42.739  27.334  1.00  0.00    -0.000 C 
BRANCH  26  27
ATOM     27  C   UNL     1     -20.599 -44.017  27.768  1.00  0.00    -0.003 C 
ATOM     28  C   UNL     1     -21.275 -44.751  26.620  1.00  0.00     0.004 C 
ENDBRANCH  26  27
ENDBRANCH  25  26
ENDBRANCH  24  25
ENDBRANCH   1  24
TORSDOF 8
ENDMDL
MODEL 5
REMARK VINA RESULT:    -8.999      1.503      2.121
REMARK INTER + INTRA:         -13.104
REMARK INTER:                 -12.929
REMARK INTRA:                  -0.175
REMARK UNBOUND:                 0.104
REMARK SMILES CCCCCCCNC(=O)Oc1ccc2c(c1)[C@]1(C)CC[N@@H+](C)[C@@H]1N2C
REMARK SMILES IDX 6 1 7 2 8 3 9 4 10 5 11 7 12 8 21 9 22 10 20 11 24 12 18 13
REMARK SMILES IDX 25 14 16 15 15 16 17 17 14 18 13 19 23 20 19 22 26 23 5 24
REMARK SMILES IDX 4 25 3 26 2 27 1 28
REMARK H PARENT 8 6 22 21
ROOT
ATOM      1  C   UNL     1     -13.564 -45.603  27.161  1.00  0.00     0.021 C 
ENDROOT
BRANCH   1   2
ATOM      2  C   UNL     1     -13.299 -44.126  26.888  1.00  0.00     0.119 C 
BRANCH   2   3
ATOM      3  N   UNL     1     -13.745 -43.753  25.563  1.00  0.00    -0.321 N 
ATOM      4  C   UNL     1     -14.462 -42.610  25.340  1.00  0.00     0.412 C 
ATOM      5  O   UNL     1     -14.681 -41.747  26.180  1.00  0.00    -0.224 OA
ATOM      6  H   UNL     1     -13.788 -44.450  24.833  1.00  0.00     0.167 HD
BRANCH   4   7
ATOM      7  O   UNL     1     -14.911 -42.600  24.026  1.00  0.00    -0.410 OA
BRANCH   7   8
ATOM      8  C   UNL     1     -16.252 -42.237  23.854  1.00  0.00     0.133 A 
ATOM      9  C   UNL     1     -21.734 -43.620  25.251  1.00  0.00     0.265 C 
ATOM     10  N   UNL     1     -21.883 -42.442  24.346  1.00  0.00    -0.317 N 
ATOM     11  C   UNL     1     -20.239 -43.775  25.402  1.00  0.00     0.081 C 
ATOM     12  C   UNL     1     -20.776 -41.502  24.651  1.00  0.00     0.296 C 
ATOM     13  C   UNL     1     -19.723 -42.333  25.439  1.00  0.00     0.072 C 
ATOM     14  N   UNL     1     -20.273 -41.188  23.319  1.00  0.00    -0.325 N 
ATOM     15  C   UNL     1     -18.521 -42.154  24.571  1.00  0.00    -0.007 A 
ATOM     16  C   UNL     1     -18.885 -41.501  23.387  1.00  0.00     0.045 A 
ATOM     17  C   UNL     1     -17.212 -42.542  24.818  1.00  0.00     0.054 A 
ATOM     18  C   UNL     1     -17.928 -41.249  22.411  1.00  0.00     0.030 A 
ATOM     19  C   UNL     1     -16.601 -41.619  22.648  1.00  0.00     0.049 A 
ATOM     20  C   UNL     1     -23.244 -41.855  24.309  1.00  0.00     0.334 C 
ATOM     21  H   UNL     1     -21.619 -42.713  23.388  1.00  0.00     0.349 HD
ATOM     22  C   UNL     1     -19.536 -41.807  26.860  1.00  0.00     0.025 C 
ATOM     23  C   UNL     1     -20.504 -39.823  22.832  1.00  0.00     0.150 C 
ENDBRANCH   7   8
ENDBRANCH   4   7
ENDBRANCH   2   3
ENDBRANCH   1   2
BRANCH   1  24
ATOM     24  C   UNL     1     -12.291 -46.441  27.320  1.00  0.00     0.002 C 
BRANCH  24  25
ATOM     25  C   UNL     1     -11.521 -46.206  28.624  1.00  0.00     0.000 C 
BRANCH  25  26
ATOM     26  C   UNL     1     -12.359 -45.947  29.878  1.00  0.00    -0.000 C 
BRANCH  26  27
ATOM     27  C   UNL     1     -11.663 -46.240  31.209  1.00  0.00    -0.003 C 
ATOM     28  C   UNL     1     -10.145 -46.268  31.108  1.00  0.00     0.004 C 
ENDBRANCH  26  27
ENDBRANCH  25  26
ENDBRANCH  24  25
ENDBRANCH   1  24
TORSDOF 8
ENDMDL
MODEL 6
REMARK VINA RESULT:    -8.815      2.044      8.567
REMARK INTER + INTRA:         -12.833
REMARK INTER:                 -12.173
REMARK INTRA:                  -0.661
REMARK UNBOUND:                 0.104
REMARK SMILES CCCCCCCNC(=O)Oc1ccc2c(c1)[C@]1(C)CC[N@@H+](C)[C@@H]1N2C
REMARK SMILES IDX 6 1 7 2 8 3 9 4 10 5 11 7 12 8 21 9 22 10 20 11 24 12 18 13
REMARK SMILES IDX 25 14 16 15 15 16 17 17 14 18 13 19 23 20 19 22 26 23 5 24
REMARK SMILES IDX 4 25 3 26 2 27 1 28
REMARK H PARENT 8 6 22 21
ROOT
ATOM      1  C   UNL     1     -18.295 -42.203  23.698  1.00  0.00     0.021 C 
ENDROOT
BRANCH   1   2
ATOM      2  C   UNL     1     -17.046 -42.669  22.956  1.00  0.00     0.119 C 
BRANCH   2   3
ATOM      3  N   UNL     1     -15.844 -42.251  23.645  1.00  0.00    -0.321 N 
ATOM      4  C   UNL     1     -14.860 -43.140  23.979  1.00  0.00     0.412 C 
ATOM      5  O   UNL     1     -14.828 -44.312  23.630  1.00  0.00    -0.224 OA
ATOM      6  H   UNL     1     -15.829 -41.370  24.140  1.00  0.00     0.167 HD
BRANCH   4   7
ATOM      7  O   UNL     1     -13.925 -42.505  24.787  1.00  0.00    -0.410 OA
BRANCH   7   8
ATOM      8  C   UNL     1     -13.664 -43.136  26.010  1.00  0.00     0.133 A 
ATOM      9  C   UNL     1      -9.465 -45.386  29.359  1.00  0.00     0.265 C 
ATOM     10  N   UNL     1     -10.713 -45.627  30.142  1.00  0.00    -0.317 N 
ATOM     11  C   UNL     1      -9.936 -44.605  28.156  1.00  0.00     0.081 C 
ATOM     12  C   UNL     1     -11.588 -44.442  29.962  1.00  0.00     0.296 C 
ATOM     13  C   UNL     1     -11.032 -43.694  28.718  1.00  0.00     0.072 C 
ATOM     14  N   UNL     1     -12.869 -45.060  29.645  1.00  0.00    -0.325 N 
ATOM     15  C   UNL     1     -12.241 -43.677  27.840  1.00  0.00    -0.007 A 
ATOM     16  C   UNL     1     -13.250 -44.462  28.409  1.00  0.00     0.045 A 
ATOM     17  C   UNL     1     -12.423 -43.016  26.633  1.00  0.00     0.054 A 
ATOM     18  C   UNL     1     -14.464 -44.616  27.751  1.00  0.00     0.030 A 
ATOM     19  C   UNL     1     -14.672 -43.946  26.542  1.00  0.00     0.049 A 
ATOM     20  C   UNL     1     -10.495 -46.069  31.540  1.00  0.00     0.334 C 
ATOM     21  H   UNL     1     -11.284 -46.337  29.662  1.00  0.00     0.349 HD
ATOM     22  C   UNL     1     -10.518 -42.302  29.078  1.00  0.00     0.025 C 
ATOM     23  C   UNL     1     -13.926 -44.945  30.658  1.00  0.00     0.150 C 
ENDBRANCH   7   8
ENDBRANCH   4   7
ENDBRANCH   2   3
ENDBRANCH   1   2
BRANCH   1  24
ATOM     24  C   UNL     1     -18.515 -42.908  25.040  1.00  0.00     0.002 C 
BRANCH  24  25
ATOM     25  C   UNL     1     -19.068 -42.014  26.156  1.00  0.00     0.000 C 
BRANCH  25  26
ATOM     26  C   UNL     1     -18.819 -42.477  27.592  1.00  0.00    -0.000 C 
BRANCH  26  27
ATOM     27  C   UNL     1     -17.449 -42.119  28.173  1.00  0.00    -0.003 C 
ATOM     28  C   UNL     1     -17.060 -42.967  29.375  1.00  0.00     0.004 C 
ENDBRANCH  26  27
ENDBRANCH  25  26
ENDBRANCH  24  25
ENDBRANCH   1  24
TORSDOF 8
ENDMDL
MODEL 7
REMARK VINA RESULT:    -8.675      2.660     10.466
REMARK INTER + INTRA:         -12.627
REMARK INTER:                 -12.484
REMARK INTRA:                  -0.143
REMARK UNBOUND:                 0.104
REMARK SMILES CCCCCCCNC(=O)Oc1ccc2c(c1)[C@]1(C)CC[N@@H+](C)[C@@H]1N2C
REMARK SMILES IDX 6 1 7 2 8 3 9 4 10 5 11 7 12 8 21 9 22 10 20 11 24 12 18 13
REMARK SMILES IDX 25 14 16 15 15 16 17 17 14 18 13 19 23 20 19 22 26 23 5 24
REMARK SMILES IDX 4 25 3 26 2 27 1 28
REMARK H PARENT 8 6 22 21
ROOT
ATOM      1  C   UNL     1     -15.492 -42.872  25.266  1.00  0.00     0.021 C 
ENDROOT
BRANCH   1   2
ATOM      2  C   UNL     1     -14.358 -43.780  25.734  1.00  0.00     0.119 C 
BRANCH   2   3
ATOM      3  N   UNL     1     -14.397 -43.967  27.168  1.00  0.00    -0.321 N 
ATOM      4  C   UNL     1     -13.814 -45.048  27.770  1.00  0.00     0.412 C 
ATOM      5  O   UNL     1     -13.111 -45.870  27.199  1.00  0.00    -0.224 OA
ATOM      6  H   UNL     1     -15.084 -43.472  27.721  1.00  0.00     0.167 HD
BRANCH   4   7
ATOM      7  O   UNL     1     -14.164 -45.068  29.114  1.00  0.00    -0.410 OA
BRANCH   7   8
ATOM      8  C   UNL     1     -13.152 -44.679  30.001  1.00  0.00     0.133 A 
ATOM      9  C   UNL     1      -7.445 -45.038  31.102  1.00  0.00     0.265 C 
ATOM     10  N   UNL     1      -7.980 -44.243  32.247  1.00  0.00    -0.317 N 
ATOM     11  C   UNL     1      -8.649 -45.251  30.215  1.00  0.00     0.081 C 
ATOM     12  C   UNL     1      -9.038 -43.348  31.714  1.00  0.00     0.296 C 
ATOM     13  C   UNL     1      -9.423 -43.934  30.326  1.00  0.00     0.072 C 
ATOM     14  N   UNL     1     -10.120 -43.562  32.666  1.00  0.00    -0.325 N 
ATOM     15  C   UNL     1     -10.886 -44.167  30.518  1.00  0.00    -0.007 A 
ATOM     16  C   UNL     1     -11.228 -43.943  31.857  1.00  0.00     0.045 A 
ATOM     17  C   UNL     1     -11.831 -44.550  29.577  1.00  0.00     0.054 A 
ATOM     18  C   UNL     1     -12.540 -44.126  32.278  1.00  0.00     0.030 A 
ATOM     19  C   UNL     1     -13.509 -44.496  31.341  1.00  0.00     0.049 A 
ATOM     20  C   UNL     1      -6.947 -43.597  33.092  1.00  0.00     0.334 C 
ATOM     21  H   UNL     1      -8.556 -44.852  32.845  1.00  0.00     0.349 HD
ATOM     22  C   UNL     1      -9.103 -42.961  29.193  1.00  0.00     0.025 C 
ATOM     23  C   UNL     1     -10.449 -42.439  33.553  1.00  0.00     0.150 C 
ENDBRANCH   7   8
ENDBRANCH   4   7
ENDBRANCH   2   3
ENDBRANCH   1   2
BRANCH   1  24
ATOM     24  C   UNL     1     -15.947 -43.143  23.829  1.00  0.00     0.002 C 
BRANCH  24  25
ATOM     25  C   UNL     1     -17.385 -42.716  23.516  1.00  0.00     0.000 C 
BRANCH  25  26
ATOM     26  C   UNL     1     -18.222 -42.209  24.691  1.00  0.00    -0.000 C 
BRANCH  26  27
ATOM     27  C   UNL     1     -19.711 -42.007  24.404  1.00  0.00    -0.003 C 
ATOM     28  C   UNL     1     -20.449 -41.272  25.514  1.00  0.00     0.004 C 
ENDBRANCH  26  27
ENDBRANCH  25  26
ENDBRANCH  24  25
ENDBRANCH   1  24
TORSDOF 8
ENDMDL
MODEL 8
REMARK VINA RESULT:    -8.554      3.257     10.373
REMARK INTER + INTRA:         -12.450
REMARK INTER:                 -12.651
REMARK INTRA:                   0.201
REMARK UNBOUND:                 0.104
REMARK SMILES CCCCCCCNC(=O)Oc1ccc2c(c1)[C@]1(C)CC[N@@H+](C)[C@@H]1N2C
REMARK SMILES IDX 6 1 7 2 8 3 9 4 10 5 11 7 12 8 21 9 22 10 20 11 24 12 18 13
REMARK SMILES IDX 25 14 16 15 15 16 17 17 14 18 13 19 23 20 19 22 26 23 5 24
REMARK SMILES IDX 4 25 3 26 2 27 1 28
REMARK H PARENT 8 6 22 21
ROOT
ATOM      1  C   UNL     1     -13.876 -43.624  25.828  1.00  0.00     0.021 C 
ENDROOT
BRANCH   1   2
ATOM      2  C   UNL     1     -14.250 -44.638  26.904  1.00  0.00     0.119 C 
BRANCH   2   3
ATOM      3  N   UNL     1     -13.070 -45.263  27.464  1.00  0.00    -0.321 N 
ATOM      4  C   UNL     1     -12.654 -46.503  27.064  1.00  0.00     0.412 C 
ATOM      5  O   UNL     1     -13.135 -47.136  26.134  1.00  0.00    -0.224 OA
ATOM      6  H   UNL     1     -12.699 -44.936  28.345  1.00  0.00     0.167 HD
BRANCH   4   7
ATOM      7  O   UNL     1     -11.621 -46.927  27.890  1.00  0.00    -0.410 OA
BRANCH   7   8
ATOM      8  C   UNL     1     -11.396 -46.133  29.022  1.00  0.00     0.133 A 
ATOM      9  C   UNL     1      -7.277 -43.928  32.499  1.00  0.00     0.265 C 
ATOM     10  N   UNL     1      -8.553 -43.457  33.114  1.00  0.00    -0.317 N 
ATOM     11  C   UNL     1      -7.722 -44.650  31.249  1.00  0.00     0.081 C 
ATOM     12  C   UNL     1      -9.485 -43.122  32.008  1.00  0.00     0.296 C 
ATOM     13  C   UNL     1      -8.901 -43.813  30.743  1.00  0.00     0.072 C 
ATOM     14  N   UNL     1     -10.706 -43.796  32.430  1.00  0.00    -0.325 N 
ATOM     15  C   UNL     1     -10.054 -44.671  30.337  1.00  0.00    -0.007 A 
ATOM     16  C   UNL     1     -11.047 -44.626  31.324  1.00  0.00     0.045 A 
ATOM     17  C   UNL     1     -10.203 -45.430  29.185  1.00  0.00     0.054 A 
ATOM     18  C   UNL     1     -12.209 -45.373  31.173  1.00  0.00     0.030 A 
ATOM     19  C   UNL     1     -12.385 -46.131  30.012  1.00  0.00     0.049 A 
ATOM     20  C   UNL     1      -8.392 -42.423  34.165  1.00  0.00     0.334 C 
ATOM     21  H   UNL     1      -9.052 -44.260  33.521  1.00  0.00     0.349 HD
ATOM     22  C   UNL     1      -8.493 -42.795  29.681  1.00  0.00     0.025 C 
ATOM     23  C   UNL     1     -11.826 -42.938  32.837  1.00  0.00     0.150 C 
ENDBRANCH   7   8
ENDBRANCH   4   7
ENDBRANCH   2   3
ENDBRANCH   1   2
BRANCH   1  24
ATOM     24  C   UNL     1     -14.710 -43.743  24.549  1.00  0.00     0.002 C 
BRANCH  24  25
ATOM     25  C   UNL     1     -15.996 -42.910  24.536  1.00  0.00     0.000 C 
BRANCH  25  26
ATOM     26  C   UNL     1     -16.905 -43.070  23.316  1.00  0.00    -0.000 C 
BRANCH  26  27
ATOM     27  C   UNL     1     -17.551 -41.782  22.799  1.00  0.00    -0.003 C 
ATOM     28  C   UNL     1     -16.588 -40.884  22.037  1.00  0.00     0.004 C 
ENDBRANCH  26  27
ENDBRANCH  25  26
ENDBRANCH  24  25
ENDBRANCH   1  24
TORSDOF 8
ENDMDL
MODEL 9
REMARK VINA RESULT:    -8.472      1.858      9.079
REMARK INTER + INTRA:         -12.331
REMARK INTER:                 -12.319
REMARK INTRA:                  -0.011
REMARK UNBOUND:                 0.104
REMARK SMILES CCCCCCCNC(=O)Oc1ccc2c(c1)[C@]1(C)CC[N@@H+](C)[C@@H]1N2C
REMARK SMILES IDX 6 1 7 2 8 3 9 4 10 5 11 7 12 8 21 9 22 10 20 11 24 12 18 13
REMARK SMILES IDX 25 14 16 15 15 16 17 17 14 18 13 19 23 20 19 22 26 23 5 24
REMARK SMILES IDX 4 25 3 26 2 27 1 28
REMARK H PARENT 8 6 22 21
ROOT
ATOM      1  C   UNL     1     -18.781 -42.096  22.732  1.00  0.00     0.021 C 
ENDROOT
BRANCH   1   2
ATOM      2  C   UNL     1     -17.290 -41.912  22.994  1.00  0.00     0.119 C 
BRANCH   2   3
ATOM      3  N   UNL     1     -16.853 -42.721  24.112  1.00  0.00    -0.321 N 
ATOM      4  C   UNL     1     -15.536 -43.038  24.299  1.00  0.00     0.412 C 
ATOM      5  O   UNL     1     -14.607 -42.583  23.646  1.00  0.00    -0.224 OA
ATOM      6  H   UNL     1     -17.520 -43.296  24.606  1.00  0.00     0.167 HD
BRANCH   4   7
ATOM      7  O   UNL     1     -15.431 -43.966  25.328  1.00  0.00    -0.410 OA
BRANCH   7   8
ATOM      8  C   UNL     1     -14.281 -43.854  26.119  1.00  0.00     0.133 A 
ATOM      9  C   UNL     1     -11.495 -46.054  30.736  1.00  0.00     0.265 C 
ATOM     10  N   UNL     1     -10.613 -44.935  30.286  1.00  0.00    -0.317 N 
ATOM     11  C   UNL     1     -12.596 -46.084  29.703  1.00  0.00     0.081 C 
ATOM     12  C   UNL     1     -10.634 -44.919  28.803  1.00  0.00     0.296 C 
ATOM     13  C   UNL     1     -11.876 -45.759  28.390  1.00  0.00     0.072 C 
ATOM     14  N   UNL     1     -10.866 -43.508  28.521  1.00  0.00    -0.325 N 
ATOM     15  C   UNL     1     -12.632 -44.758  27.579  1.00  0.00    -0.007 A 
ATOM     16  C   UNL     1     -12.020 -43.504  27.686  1.00  0.00     0.045 A 
ATOM     17  C   UNL     1     -13.772 -44.952  26.811  1.00  0.00     0.054 A 
ATOM     18  C   UNL     1     -12.567 -42.406  27.032  1.00  0.00     0.030 A 
ATOM     19  C   UNL     1     -13.706 -42.584  26.241  1.00  0.00     0.049 A 
ATOM     20  C   UNL     1      -9.273 -44.908  30.919  1.00  0.00     0.334 C 
ATOM     21  H   UNL     1     -11.081 -44.037  30.475  1.00  0.00     0.349 HD
ATOM     22  C   UNL     1     -11.480 -47.008  27.606  1.00  0.00     0.025 C 
ATOM     23  C   UNL     1      -9.752 -42.764  27.921  1.00  0.00     0.150 C 
ENDBRANCH   7   8
ENDBRANCH   4   7
ENDBRANCH   2   3
ENDBRANCH   1   2
BRANCH   1  24
ATOM     24  C   UNL     1     -19.676 -41.216  23.610  1.00  0.00     0.002 C 
BRANCH  24  25
ATOM     25  C   UNL     1     -20.523 -41.976  24.636  1.00  0.00     0.000 C 
BRANCH  25  26
ATOM     26  C   UNL     1     -20.514 -41.437  26.067  1.00  0.00    -0.000 C 
BRANCH  26  27
ATOM     27  C   UNL     1     -19.233 -41.695  26.863  1.00  0.00    -0.003 C 
ATOM     28  C   UNL     1     -19.335 -42.884  27.808  1.00  0.00     0.004 C 
ENDBRANCH  26  27
ENDBRANCH  25  26
ENDBRANCH  24  25
ENDBRANCH   1  24
TORSDOF 8
ENDMDL
