MODEL 1
REMARK VINA RESULT:   -10.843      0.000      0.000
REMARK INTER + INTRA:         -13.829
REMARK INTER:                 -13.378
REMARK INTRA:                  -0.451
REMARK UNBOUND:                -0.451
REMARK SMILES COc1ccc(-c2cc3c(c(=O)o2)C[C@]2(O)[C@@]4(C)C(=O)C=CC(C)(C)[C@]4(O)CC[C@@]2(C)O3)cc1OC
REMARK SMILES IDX 7 1 8 2 9 3 10 4 11 5 12 6 13 7 14 8 15 9 17 10 18 11 19 12
REMARK SMILES IDX 20 13 21 14 22 15 23 16 24 17 25 18 26 19 28 20 29 21 30 22
REMARK SMILES IDX 31 23 32 24 6 25 3 26 4 27 34 28 5 29 33 30 2 31 1 32 35 33
REMARK SMILES IDX 36 34 16 35 27 37
REMARK H PARENT 16 36 27 38
ROOT
ATOM      1  C   UNL     1     -16.368 -42.777  26.030  1.00  0.00     0.142 A 
ATOM      2  C   UNL     1     -16.054 -43.245  27.247  1.00  0.00     0.094 A 
ATOM      3  C   UNL     1     -14.688 -43.553  27.546  1.00  0.00     0.134 A 
ATOM      4  C   UNL     1     -13.716 -43.383  26.640  1.00  0.00     0.083 A 
ATOM      5  C   UNL     1     -14.063 -42.922  25.277  1.00  0.00     0.343 A 
ATOM      6  O   UNL     1     -13.214 -42.837  24.398  1.00  0.00    -0.246 OA
ATOM      7  O   UNL     1     -15.375 -42.616  25.035  1.00  0.00    -0.422 OA
ATOM      8  C   UNL     1     -12.262 -43.623  26.955  1.00  0.00     0.088 C 
ATOM      9  C   UNL     1     -12.038 -43.841  28.480  1.00  0.00     0.124 C 
ATOM     10  C   UNL     1     -10.611 -44.398  28.929  1.00  0.00     0.093 C 
ATOM     11  C   UNL     1     -10.263 -45.728  28.208  1.00  0.00     0.026 C 
ATOM     12  C   UNL     1      -9.477 -43.451  28.502  1.00  0.00     0.167 C 
ATOM     13  O   UNL     1      -9.490 -42.804  27.456  1.00  0.00    -0.294 OA
ATOM     14  C   UNL     1      -8.198 -43.475  29.266  1.00  0.00     0.044 C 
ATOM     15  C   UNL     1      -8.031 -44.203  30.378  1.00  0.00    -0.014 C 
ATOM     16  C   UNL     1      -9.127 -44.983  31.086  1.00  0.00     0.013 C 
ATOM     17  C   UNL     1      -8.993 -44.646  32.599  1.00  0.00     0.018 C 
ATOM     18  C   UNL     1      -8.821 -46.490  30.969  1.00  0.00     0.018 C 
ATOM     19  C   UNL     1     -10.545 -44.532  30.520  1.00  0.00     0.089 C 
ATOM     20  C   UNL     1     -11.722 -45.400  31.030  1.00  0.00     0.041 C 
ATOM     21  C   UNL     1     -13.088 -44.866  30.576  1.00  0.00     0.054 C 
ATOM     22  C   UNL     1     -13.220 -44.716  29.045  1.00  0.00     0.136 C 
ATOM     23  C   UNL     1     -13.405 -46.122  28.429  1.00  0.00     0.060 C 
ATOM     24  O   UNL     1     -14.483 -44.019  28.827  1.00  0.00    -0.484 OA
ENDROOT
BRANCH   1  25
ATOM     25  C   UNL     1     -17.736 -42.427  25.603  1.00  0.00     0.021 A 
ATOM     26  C   UNL     1     -20.324 -41.721  24.735  1.00  0.00     0.160 A 
ATOM     27  C   UNL     1     -20.026 -41.800  26.099  1.00  0.00     0.051 A 
ATOM     28  C   UNL     1     -19.335 -42.022  23.784  1.00  0.00     0.161 A 
ATOM     29  C   UNL     1     -18.743 -42.138  26.531  1.00  0.00     0.016 A 
ATOM     30  C   UNL     1     -18.049 -42.361  24.232  1.00  0.00     0.062 A 
BRANCH  26  31
ATOM     31  O   UNL     1     -21.629 -41.388  24.474  1.00  0.00    -0.493 OA
ATOM     32  C   UNL     1     -22.266 -40.591  25.468  1.00  0.00     0.278 C 
ENDBRANCH  26  31
BRANCH  28  33
ATOM     33  O   UNL     1     -19.700 -41.999  22.464  1.00  0.00    -0.493 OA
ATOM     34  C   UNL     1     -19.430 -40.820  21.716  1.00  0.00     0.278 C 
ENDBRANCH  28  33
ENDBRANCH   1  25
BRANCH   9  35
ATOM     35  O   UNL     1     -12.183 -42.510  29.050  1.00  0.00    -0.384 OA
ATOM     36  H   UNL     1     -12.423 -42.596  29.989  1.00  0.00     0.211 HD
ENDBRANCH   9  35
BRANCH  19  37
ATOM     37  O   UNL     1     -10.773 -43.214  31.079  1.00  0.00    -0.388 OA
ATOM     38  H   UNL     1     -11.725 -43.027  31.122  1.00  0.00     0.211 HD
ENDBRANCH  19  37
TORSDOF 5
ENDMDL
MODEL 2
REMARK VINA RESULT:   -10.423      2.287     11.065
REMARK INTER + INTRA:         -13.311
REMARK INTER:                 -12.886
REMARK INTRA:                  -0.425
REMARK UNBOUND:                -0.451
REMARK SMILES COc1ccc(-c2cc3c(c(=O)o2)C[C@]2(O)[C@@]4(C)C(=O)C=CC(C)(C)[C@]4(O)CC[C@@]2(C)O3)cc1OC
REMARK SMILES IDX 7 1 8 2 9 3 10 4 11 5 12 6 13 7 14 8 15 9 17 10 18 11 19 12
REMARK SMILES IDX 20 13 21 14 22 15 23 16 24 17 25 18 26 19 28 20 29 21 30 22
REMARK SMILES IDX 31 23 32 24 6 25 3 26 4 27 34 28 5 29 33 30 2 31 1 32 35 33
REMARK SMILES IDX 36 34 16 35 27 37
REMARK H PARENT 16 36 27 38
ROOT
ATOM      1  C   UNL     1     -15.323 -43.186  25.175  1.00  0.00     0.142 A 
ATOM      2  C   UNL     1     -16.634 -43.438  25.301  1.00  0.00     0.094 A 
ATOM      3  C   UNL     1     -17.561 -42.772  24.437  1.00  0.00     0.134 A 
ATOM      4  C   UNL     1     -17.149 -41.903  23.504  1.00  0.00     0.083 A 
ATOM      5  C   UNL     1     -15.709 -41.576  23.397  1.00  0.00     0.343 A 
ATOM      6  O   UNL     1     -15.306 -40.724  22.615  1.00  0.00    -0.246 OA
ATOM      7  O   UNL     1     -14.852 -42.249  24.224  1.00  0.00    -0.422 OA
ATOM      8  C   UNL     1     -18.095 -41.250  22.529  1.00  0.00     0.088 C 
ATOM      9  C   UNL     1     -19.512 -41.890  22.595  1.00  0.00     0.124 C 
ATOM     10  C   UNL     1     -20.691 -41.118  21.846  1.00  0.00     0.093 C 
ATOM     11  C   UNL     1     -20.815 -39.650  22.336  1.00  0.00     0.026 C 
ATOM     12  C   UNL     1     -20.402 -40.970  20.343  1.00  0.00     0.167 C 
ATOM     13  O   UNL     1     -19.275 -40.796  19.882  1.00  0.00    -0.294 OA
ATOM     14  C   UNL     1     -21.548 -40.804  19.405  1.00  0.00     0.044 C 
ATOM     15  C   UNL     1     -22.826 -40.891  19.800  1.00  0.00    -0.014 C 
ATOM     16  C   UNL     1     -23.287 -41.296  21.190  1.00  0.00     0.013 C 
ATOM     17  C   UNL     1     -24.421 -42.341  20.985  1.00  0.00     0.018 C 
ATOM     18  C   UNL     1     -23.958 -40.083  21.866  1.00  0.00     0.018 C 
ATOM     19  C   UNL     1     -22.062 -41.926  21.988  1.00  0.00     0.089 C 
ATOM     20  C   UNL     1     -22.367 -42.195  23.483  1.00  0.00     0.041 C 
ATOM     21  C   UNL     1     -21.219 -42.922  24.198  1.00  0.00     0.054 C 
ATOM     22  C   UNL     1     -19.864 -42.189  24.101  1.00  0.00     0.136 C 
ATOM     23  C   UNL     1     -19.889 -40.980  25.065  1.00  0.00     0.060 C 
ATOM     24  O   UNL     1     -18.878 -43.114  24.652  1.00  0.00    -0.484 OA
ENDROOT
BRANCH   1  25
ATOM     25  C   UNL     1     -14.274 -43.807  26.006  1.00  0.00     0.021 A 
ATOM     26  C   UNL     1     -12.226 -44.943  27.575  1.00  0.00     0.160 A 
ATOM     27  C   UNL     1     -13.112 -45.756  26.861  1.00  0.00     0.051 A 
ATOM     28  C   UNL     1     -12.371 -43.547  27.536  1.00  0.00     0.161 A 
ATOM     29  C   UNL     1     -14.119 -45.196  26.075  1.00  0.00     0.016 A 
ATOM     30  C   UNL     1     -13.388 -42.996  26.741  1.00  0.00     0.062 A 
BRANCH  26  31
ATOM     31  O   UNL     1     -11.302 -45.645  28.307  1.00  0.00    -0.493 OA
ATOM     32  C   UNL     1     -11.780 -46.188  29.534  1.00  0.00     0.278 C 
ENDBRANCH  26  31
BRANCH  28  33
ATOM     33  O   UNL     1     -11.522 -42.801  28.310  1.00  0.00    -0.493 OA
ATOM     34  C   UNL     1     -10.294 -42.374  27.734  1.00  0.00     0.278 C 
ENDBRANCH  28  33
ENDBRANCH   1  25
BRANCH   9  35
ATOM     35  O   UNL     1     -19.348 -43.176  21.933  1.00  0.00    -0.384 OA
ATOM     36  H   UNL     1     -19.935 -43.206  21.157  1.00  0.00     0.211 HD
ENDBRANCH   9  35
BRANCH  19  37
ATOM     37  O   UNL     1     -21.860 -43.235  21.400  1.00  0.00    -0.388 OA
ATOM     38  H   UNL     1     -22.268 -43.276  20.520  1.00  0.00     0.211 HD
ENDBRANCH  19  37
TORSDOF 5
ENDMDL
MODEL 3
REMARK VINA RESULT:   -10.186      3.790     13.084
REMARK INTER + INTRA:         -13.018
REMARK INTER:                 -12.600
REMARK INTRA:                  -0.418
REMARK UNBOUND:                -0.451
REMARK SMILES COc1ccc(-c2cc3c(c(=O)o2)C[C@]2(O)[C@@]4(C)C(=O)C=CC(C)(C)[C@]4(O)CC[C@@]2(C)O3)cc1OC
REMARK SMILES IDX 7 1 8 2 9 3 10 4 11 5 12 6 13 7 14 8 15 9 17 10 18 11 19 12
REMARK SMILES IDX 20 13 21 14 22 15 23 16 24 17 25 18 26 19 28 20 29 21 30 22
REMARK SMILES IDX 31 23 32 24 6 25 3 26 4 27 34 28 5 29 33 30 2 31 1 32 35 33
REMARK SMILES IDX 36 34 16 35 27 37
REMARK H PARENT 16 36 27 38
ROOT
ATOM      1  C   UNL     1     -18.577 -42.062  24.093  1.00  0.00     0.142 A 
ATOM      2  C   UNL     1     -18.598 -41.295  22.994  1.00  0.00     0.094 A 
ATOM      3  C   UNL     1     -19.858 -40.945  22.410  1.00  0.00     0.134 A 
ATOM      4  C   UNL     1     -21.016 -41.365  22.937  1.00  0.00     0.083 A 
ATOM      5  C   UNL     1     -20.998 -42.259  24.116  1.00  0.00     0.343 A 
ATOM      6  O   UNL     1     -22.032 -42.732  24.573  1.00  0.00    -0.246 OA
ATOM      7  O   UNL     1     -19.778 -42.554  24.660  1.00  0.00    -0.422 OA
ATOM      8  C   UNL     1     -22.356 -40.945  22.390  1.00  0.00     0.088 C 
ATOM      9  C   UNL     1     -22.210 -39.810  21.336  1.00  0.00     0.124 C 
ATOM     10  C   UNL     1     -23.498 -39.469  20.456  1.00  0.00     0.093 C 
ATOM     11  C   UNL     1     -24.039 -40.726  19.722  1.00  0.00     0.026 C 
ATOM     12  C   UNL     1     -24.681 -39.031  21.336  1.00  0.00     0.167 C 
ATOM     13  O   UNL     1     -24.907 -39.498  22.452  1.00  0.00    -0.294 OA
ATOM     14  C   UNL     1     -25.739 -38.169  20.738  1.00  0.00     0.044 C 
ATOM     15  C   UNL     1     -25.648 -37.664  19.500  1.00  0.00    -0.014 C 
ATOM     16  C   UNL     1     -24.431 -37.774  18.597  1.00  0.00     0.013 C 
ATOM     17  C   UNL     1     -24.189 -36.351  18.016  1.00  0.00     0.018 C 
ATOM     18  C   UNL     1     -24.788 -38.660  17.386  1.00  0.00     0.018 C 
ATOM     19  C   UNL     1     -23.182 -38.266  19.453  1.00  0.00     0.089 C 
ATOM     20  C   UNL     1     -21.935 -38.602  18.597  1.00  0.00     0.041 C 
ATOM     21  C   UNL     1     -20.708 -38.947  19.453  1.00  0.00     0.054 C 
ATOM     22  C   UNL     1     -20.946 -40.106  20.443  1.00  0.00     0.136 C 
ATOM     23  C   UNL     1     -20.946 -41.435  19.652  1.00  0.00     0.060 C 
ATOM     24  O   UNL     1     -19.758 -40.149  21.289  1.00  0.00    -0.484 OA
ENDROOT
BRANCH   1  25
ATOM     25  C   UNL     1     -17.345 -42.490  24.783  1.00  0.00     0.021 A 
ATOM     26  C   UNL     1     -14.998 -43.255  26.146  1.00  0.00     0.160 A 
ATOM     27  C   UNL     1     -15.079 -43.354  24.753  1.00  0.00     0.051 A 
ATOM     28  C   UNL     1     -16.105 -42.797  26.880  1.00  0.00     0.161 A 
ATOM     29  C   UNL     1     -16.235 -42.966  24.076  1.00  0.00     0.016 A 
ATOM     30  C   UNL     1     -17.262 -42.409  26.186  1.00  0.00     0.062 A 
BRANCH  26  31
ATOM     31  O   UNL     1     -13.802 -43.686  26.661  1.00  0.00    -0.493 OA
ATOM     32  C   UNL     1     -13.715 -45.085  26.914  1.00  0.00     0.278 C 
ENDBRANCH  26  31
BRANCH  28  33
ATOM     33  O   UNL     1     -15.997 -42.788  28.246  1.00  0.00    -0.493 OA
ATOM     34  C   UNL     1     -17.195 -42.739  29.011  1.00  0.00     0.278 C 
ENDBRANCH  28  33
ENDBRANCH   1  25
BRANCH   9  35
ATOM     35  O   UNL     1     -21.904 -38.629  22.130  1.00  0.00    -0.384 OA
ATOM     36  H   UNL     1     -22.666 -38.024  22.099  1.00  0.00     0.211 HD
ENDBRANCH   9  35
BRANCH  19  37
ATOM     37  O   UNL     1     -22.797 -37.121  20.253  1.00  0.00    -0.388 OA
ATOM     38  H   UNL     1     -22.439 -37.411  21.108  1.00  0.00     0.211 HD
ENDBRANCH  19  37
TORSDOF 5
ENDMDL
MODEL 4
REMARK VINA RESULT:    -9.569      2.960     11.905
REMARK INTER + INTRA:         -12.257
REMARK INTER:                 -11.860
REMARK INTRA:                  -0.398
REMARK UNBOUND:                -0.451
REMARK SMILES COc1ccc(-c2cc3c(c(=O)o2)C[C@]2(O)[C@@]4(C)C(=O)C=CC(C)(C)[C@]4(O)CC[C@@]2(C)O3)cc1OC
REMARK SMILES IDX 7 1 8 2 9 3 10 4 11 5 12 6 13 7 14 8 15 9 17 10 18 11 19 12
REMARK SMILES IDX 20 13 21 14 22 15 23 16 24 17 25 18 26 19 28 20 29 21 30 22
REMARK SMILES IDX 31 23 32 24 6 25 3 26 4 27 34 28 5 29 33 30 2 31 1 32 35 33
REMARK SMILES IDX 36 34 16 35 27 37
REMARK H PARENT 16 36 27 38
ROOT
ATOM      1  C   UNL     1     -16.784 -42.577  24.486  1.00  0.00     0.142 A 
ATOM      2  C   UNL     1     -18.087 -42.815  24.690  1.00  0.00     0.094 A 
ATOM      3  C   UNL     1     -19.047 -42.289  23.766  1.00  0.00     0.134 A 
ATOM      4  C   UNL     1     -18.672 -41.566  22.702  1.00  0.00     0.083 A 
ATOM      5  C   UNL     1     -17.240 -41.252  22.502  1.00  0.00     0.343 A 
ATOM      6  O   UNL     1     -16.869 -40.522  21.590  1.00  0.00    -0.246 OA
ATOM      7  O   UNL     1     -16.350 -41.789  23.392  1.00  0.00    -0.422 OA
ATOM      8  C   UNL     1     -19.654 -41.071  21.672  1.00  0.00     0.088 C 
ATOM      9  C   UNL     1     -21.062 -41.702  21.876  1.00  0.00     0.124 C 
ATOM     10  C   UNL     1     -22.271 -41.055  21.059  1.00  0.00     0.093 C 
ATOM     11  C   UNL     1     -22.394 -39.532  21.330  1.00  0.00     0.026 C 
ATOM     12  C   UNL     1     -22.029 -41.131  19.542  1.00  0.00     0.167 C 
ATOM     13  O   UNL     1     -20.918 -41.021  19.025  1.00  0.00    -0.294 OA
ATOM     14  C   UNL     1     -23.205 -41.112  18.627  1.00  0.00     0.044 C 
ATOM     15  C   UNL     1     -24.469 -41.146  19.070  1.00  0.00    -0.014 C 
ATOM     16  C   UNL     1     -24.883 -41.343  20.519  1.00  0.00     0.013 C 
ATOM     17  C   UNL     1     -26.013 -42.413  20.507  1.00  0.00     0.018 C 
ATOM     18  C   UNL     1     -25.545 -40.047  21.028  1.00  0.00     0.018 C 
ATOM     19  C   UNL     1     -23.629 -41.841  21.363  1.00  0.00     0.089 C 
ATOM     20  C   UNL     1     -23.885 -41.886  22.890  1.00  0.00     0.041 C 
ATOM     21  C   UNL     1     -22.708 -42.492  23.668  1.00  0.00     0.054 C 
ATOM     22  C   UNL     1     -21.364 -41.775  23.420  1.00  0.00     0.136 C 
ATOM     23  C   UNL     1     -21.372 -40.437  24.195  1.00  0.00     0.060 C 
ATOM     24  O   UNL     1     -20.353 -42.603  24.071  1.00  0.00    -0.484 OA
ENDROOT
BRANCH   1  25
ATOM     25  C   UNL     1     -15.703 -43.062  25.367  1.00  0.00     0.021 A 
ATOM     26  C   UNL     1     -13.660 -43.944  27.098  1.00  0.00     0.160 A 
ATOM     27  C   UNL     1     -13.431 -43.831  25.722  1.00  0.00     0.051 A 
ATOM     28  C   UNL     1     -14.928 -43.643  27.623  1.00  0.00     0.161 A 
ATOM     29  C   UNL     1     -14.437 -43.384  24.866  1.00  0.00     0.016 A 
ATOM     30  C   UNL     1     -15.931 -43.194  26.750  1.00  0.00     0.062 A 
BRANCH  26  31
ATOM     31  O   UNL     1     -12.577 -44.407  27.801  1.00  0.00    -0.493 OA
ATOM     32  C   UNL     1     -12.499 -45.822  27.940  1.00  0.00     0.278 C 
ENDBRANCH  26  31
BRANCH  28  33
ATOM     33  O   UNL     1     -15.118 -43.840  28.965  1.00  0.00    -0.493 OA
ATOM     34  C   UNL     1     -16.244 -43.224  29.578  1.00  0.00     0.278 C 
ENDBRANCH  28  33
ENDBRANCH   1  25
BRANCH   9  35
ATOM     35  O   UNL     1     -20.905 -43.071  21.407  1.00  0.00    -0.384 OA
ATOM     36  H   UNL     1     -21.782 -43.489  21.365  1.00  0.00     0.211 HD
ENDBRANCH   9  35
BRANCH  19  37
ATOM     37  O   UNL     1     -23.431 -43.221  20.969  1.00  0.00    -0.388 OA
ATOM     38  H   UNL     1     -22.483 -43.418  20.894  1.00  0.00     0.211 HD
ENDBRANCH  19  37
TORSDOF 5
ENDMDL
MODEL 5
REMARK VINA RESULT:    -9.526      4.801     13.681
REMARK INTER + INTRA:         -12.205
REMARK INTER:                 -11.792
REMARK INTRA:                  -0.413
REMARK UNBOUND:                -0.451
REMARK SMILES COc1ccc(-c2cc3c(c(=O)o2)C[C@]2(O)[C@@]4(C)C(=O)C=CC(C)(C)[C@]4(O)CC[C@@]2(C)O3)cc1OC
REMARK SMILES IDX 7 1 8 2 9 3 10 4 11 5 12 6 13 7 14 8 15 9 17 10 18 11 19 12
REMARK SMILES IDX 20 13 21 14 22 15 23 16 24 17 25 18 26 19 28 20 29 21 30 22
REMARK SMILES IDX 31 23 32 24 6 25 3 26 4 27 34 28 5 29 33 30 2 31 1 32 35 33
REMARK SMILES IDX 36 34 16 35 27 37
REMARK H PARENT 16 36 27 38
ROOT
ATOM      1  C   UNL     1     -20.180 -41.366  24.409  1.00  0.00     0.142 A 
ATOM      2  C   UNL     1     -19.935 -40.562  23.365  1.00  0.00     0.094 A 
ATOM      3  C   UNL     1     -21.008 -40.217  22.481  1.00  0.00     0.134 A 
ATOM      4  C   UNL     1     -22.251 -40.678  22.674  1.00  0.00     0.083 A 
ATOM      5  C   UNL     1     -22.517 -41.611  23.792  1.00  0.00     0.343 A 
ATOM      6  O   UNL     1     -23.621 -42.119  23.949  1.00  0.00    -0.246 OA
ATOM      7  O   UNL     1     -21.473 -41.899  24.628  1.00  0.00    -0.422 OA
ATOM      8  C   UNL     1     -23.413 -40.265  21.807  1.00  0.00     0.088 C 
ATOM      9  C   UNL     1     -23.028 -39.092  20.860  1.00  0.00     0.124 C 
ATOM     10  C   UNL     1     -24.051 -38.747  19.683  1.00  0.00     0.093 C 
ATOM     11  C   UNL     1     -24.345 -39.989  18.799  1.00  0.00     0.026 C 
ATOM     12  C   UNL     1     -25.434 -38.363  20.234  1.00  0.00     0.167 C 
ATOM     13  O   UNL     1     -25.931 -38.872  21.238  1.00  0.00    -0.294 OA
ATOM     14  C   UNL     1     -26.322 -37.502  19.404  1.00  0.00     0.044 C 
ATOM     15  C   UNL     1     -25.926 -36.954  18.248  1.00  0.00    -0.014 C 
ATOM     16  C   UNL     1     -24.512 -37.009  17.692  1.00  0.00     0.013 C 
ATOM     17  C   UNL     1     -24.167 -35.563  17.235  1.00  0.00     0.018 C 
ATOM     18  C   UNL     1     -24.515 -37.860  16.406  1.00  0.00     0.018 C 
ATOM     19  C   UNL     1     -23.517 -37.505  18.832  1.00  0.00     0.089 C 
ATOM     20  C   UNL     1     -22.081 -37.787  18.324  1.00  0.00     0.041 C 
ATOM     21  C   UNL     1     -21.111 -38.136  19.461  1.00  0.00     0.054 C 
ATOM     22  C   UNL     1     -21.568 -39.333  20.322  1.00  0.00     0.136 C 
ATOM     23  C   UNL     1     -21.323 -40.634  19.522  1.00  0.00     0.060 C 
ATOM     24  O   UNL     1     -20.641 -39.381  21.449  1.00  0.00    -0.484 OA
ENDROOT
BRANCH   1  25
ATOM     25  C   UNL     1     -19.160 -41.792  25.386  1.00  0.00     0.021 A 
ATOM     26  C   UNL     1     -17.192 -42.659  27.210  1.00  0.00     0.160 A 
ATOM     27  C   UNL     1     -18.422 -42.174  27.665  1.00  0.00     0.051 A 
ATOM     28  C   UNL     1     -16.918 -42.691  25.832  1.00  0.00     0.161 A 
ATOM     29  C   UNL     1     -19.402 -41.755  26.764  1.00  0.00     0.016 A 
ATOM     30  C   UNL     1     -17.913 -42.267  24.937  1.00  0.00     0.062 A 
BRANCH  26  31
ATOM     31  O   UNL     1     -16.335 -43.020  28.218  1.00  0.00    -0.493 OA
ATOM     32  C   UNL     1     -16.812 -42.784  29.539  1.00  0.00     0.278 C 
ENDBRANCH  26  31
BRANCH  28  33
ATOM     33  O   UNL     1     -15.673 -43.108  25.445  1.00  0.00    -0.493 OA
ATOM     34  C   UNL     1     -14.915 -42.254  24.598  1.00  0.00     0.278 C 
ENDBRANCH  28  33
ENDBRANCH   1  25
BRANCH   9  35
ATOM     35  O   UNL     1     -22.973 -37.934  21.739  1.00  0.00    -0.384 OA
ATOM     36  H   UNL     1     -22.566 -38.199  22.582  1.00  0.00     0.211 HD
ENDBRANCH   9  35
BRANCH  19  37
ATOM     37  O   UNL     1     -23.387 -36.380  19.736  1.00  0.00    -0.388 OA
ATOM     38  H   UNL     1     -23.472 -36.676  20.657  1.00  0.00     0.211 HD
ENDBRANCH  19  37
TORSDOF 5
ENDMDL
MODEL 6
REMARK VINA RESULT:    -9.393      2.189     10.836
REMARK INTER + INTRA:         -12.040
REMARK INTER:                 -11.585
REMARK INTRA:                  -0.455
REMARK UNBOUND:                -0.451
REMARK SMILES COc1ccc(-c2cc3c(c(=O)o2)C[C@]2(O)[C@@]4(C)C(=O)C=CC(C)(C)[C@]4(O)CC[C@@]2(C)O3)cc1OC
REMARK SMILES IDX 7 1 8 2 9 3 10 4 11 5 12 6 13 7 14 8 15 9 17 10 18 11 19 12
REMARK SMILES IDX 20 13 21 14 22 15 23 16 24 17 25 18 26 19 28 20 29 21 30 22
REMARK SMILES IDX 31 23 32 24 6 25 3 26 4 27 34 28 5 29 33 30 2 31 1 32 35 33
REMARK SMILES IDX 36 34 16 35 27 37
REMARK H PARENT 16 36 27 38
ROOT
ATOM      1  C   UNL     1     -15.596 -43.071  26.057  1.00  0.00     0.142 A 
ATOM      2  C   UNL     1     -16.798 -43.228  26.628  1.00  0.00     0.094 A 
ATOM      3  C   UNL     1     -17.975 -42.897  25.882  1.00  0.00     0.134 A 
ATOM      4  C   UNL     1     -17.903 -42.437  24.626  1.00  0.00     0.083 A 
ATOM      5  C   UNL     1     -16.577 -42.207  24.010  1.00  0.00     0.343 A 
ATOM      6  O   UNL     1     -16.470 -41.707  22.896  1.00  0.00    -0.246 OA
ATOM      7  O   UNL     1     -15.476 -42.555  24.744  1.00  0.00    -0.422 OA
ATOM      8  C   UNL     1     -19.127 -42.159  23.792  1.00  0.00     0.088 C 
ATOM      9  C   UNL     1     -20.417 -42.696  24.477  1.00  0.00     0.124 C 
ATOM     10  C   UNL     1     -21.813 -42.218  23.867  1.00  0.00     0.093 C 
ATOM     11  C   UNL     1     -21.916 -40.670  23.819  1.00  0.00     0.026 C 
ATOM     12  C   UNL     1     -21.955 -42.633  22.393  1.00  0.00     0.167 C 
ATOM     13  O   UNL     1     -21.012 -42.666  21.603  1.00  0.00    -0.294 OA
ATOM     14  C   UNL     1     -23.322 -42.790  21.822  1.00  0.00     0.044 C 
ATOM     15  C   UNL     1     -24.433 -42.696  22.564  1.00  0.00    -0.014 C 
ATOM     16  C   UNL     1     -24.466 -42.558  24.077  1.00  0.00     0.013 C 
ATOM     17  C   UNL     1     -25.526 -43.577  24.585  1.00  0.00     0.018 C 
ATOM     18  C   UNL     1     -25.023 -41.166  24.438  1.00  0.00     0.018 C 
ATOM     19  C   UNL     1     -23.024 -42.886  24.668  1.00  0.00     0.089 C 
ATOM     20  C   UNL     1     -22.890 -42.586  26.182  1.00  0.00     0.041 C 
ATOM     21  C   UNL     1     -21.536 -43.032  26.753  1.00  0.00     0.054 C 
ATOM     22  C   UNL     1     -20.321 -42.419  26.025  1.00  0.00     0.136 C 
ATOM     23  C   UNL     1     -20.181 -40.943  26.463  1.00  0.00     0.060 C 
ATOM     24  O   UNL     1     -19.153 -43.105  26.567  1.00  0.00    -0.484 OA
ENDROOT
BRANCH   1  25
ATOM     25  C   UNL     1     -14.314 -43.375  26.723  1.00  0.00     0.021 A 
ATOM     26  C   UNL     1     -11.901 -43.973  28.052  1.00  0.00     0.160 A 
ATOM     27  C   UNL     1     -11.985 -42.879  27.184  1.00  0.00     0.051 A 
ATOM     28  C   UNL     1     -13.019 -44.801  28.245  1.00  0.00     0.161 A 
ATOM     29  C   UNL     1     -13.182 -42.575  26.534  1.00  0.00     0.016 A 
ATOM     30  C   UNL     1     -14.216 -44.483  27.586  1.00  0.00     0.062 A 
BRANCH  26  31
ATOM     31  O   UNL     1     -10.656 -44.144  28.603  1.00  0.00    -0.493 OA
ATOM     32  C   UNL     1     -10.312 -43.224  29.633  1.00  0.00     0.278 C 
ENDBRANCH  26  31
BRANCH  28  33
ATOM     33  O   UNL     1     -12.860 -45.898  29.050  1.00  0.00    -0.493 OA
ATOM     34  C   UNL     1     -13.239 -45.786  30.416  1.00  0.00     0.278 C 
ENDBRANCH  28  33
ENDBRANCH   1  25
BRANCH   9  35
ATOM     35  O   UNL     1     -20.336 -44.138  24.297  1.00  0.00    -0.384 OA
ATOM     36  H   UNL     1     -19.836 -44.325  23.483  1.00  0.00     0.211 HD
ENDBRANCH   9  35
BRANCH  19  37
ATOM     37  O   UNL     1     -22.885 -44.323  24.550  1.00  0.00    -0.388 OA
ATOM     38  H   UNL     1     -22.887 -44.587  23.616  1.00  0.00     0.211 HD
ENDBRANCH  19  37
TORSDOF 5
ENDMDL
MODEL 7
REMARK VINA RESULT:    -8.948      2.680     11.901
REMARK INTER + INTRA:         -11.492
REMARK INTER:                 -11.474
REMARK INTRA:                  -0.017
REMARK UNBOUND:                -0.451
REMARK SMILES COc1ccc(-c2cc3c(c(=O)o2)C[C@]2(O)[C@@]4(C)C(=O)C=CC(C)(C)[C@]4(O)CC[C@@]2(C)O3)cc1OC
REMARK SMILES IDX 7 1 8 2 9 3 10 4 11 5 12 6 13 7 14 8 15 9 17 10 18 11 19 12
REMARK SMILES IDX 20 13 21 14 22 15 23 16 24 17 25 18 26 19 28 20 29 21 30 22
REMARK SMILES IDX 31 23 32 24 6 25 3 26 4 27 34 28 5 29 33 30 2 31 1 32 35 33
REMARK SMILES IDX 36 34 16 35 27 37
REMARK H PARENT 16 36 27 38
ROOT
ATOM      1  C   UNL     1     -17.175 -42.527  25.764  1.00  0.00     0.142 A 
ATOM      2  C   UNL     1     -17.558 -42.519  24.479  1.00  0.00     0.094 A 
ATOM      3  C   UNL     1     -18.905 -42.155  24.154  1.00  0.00     0.134 A 
ATOM      4  C   UNL     1     -19.790 -41.822  25.103  1.00  0.00     0.083 A 
ATOM      5  C   UNL     1     -19.390 -41.884  26.526  1.00  0.00     0.343 A 
ATOM      6  O   UNL     1     -20.196 -41.670  27.425  1.00  0.00    -0.246 OA
ATOM      7  O   UNL     1     -18.090 -42.214  26.798  1.00  0.00    -0.422 OA
ATOM      8  C   UNL     1     -21.187 -41.357  24.782  1.00  0.00     0.088 C 
ATOM      9  C   UNL     1     -21.364 -41.093  23.259  1.00  0.00     0.124 C 
ATOM     10  C   UNL     1     -22.855 -40.887  22.728  1.00  0.00     0.093 C 
ATOM     11  C   UNL     1     -23.768 -42.085  23.106  1.00  0.00     0.026 C 
ATOM     12  C   UNL     1     -23.536 -39.689  23.410  1.00  0.00     0.167 C 
ATOM     13  O   UNL     1     -23.341 -39.375  24.584  1.00  0.00    -0.294 OA
ATOM     14  C   UNL     1     -24.652 -39.000  22.703  1.00  0.00     0.044 C 
ATOM     15  C   UNL     1     -25.015 -39.307  21.451  1.00  0.00    -0.014 C 
ATOM     16  C   UNL     1     -24.280 -40.275  20.538  1.00  0.00     0.013 C 
ATOM     17  C   UNL     1     -24.150 -39.562  19.162  1.00  0.00     0.018 C 
ATOM     18  C   UNL     1     -25.180 -41.502  20.286  1.00  0.00     0.018 C 
ATOM     19  C   UNL     1     -22.849 -40.598  21.156  1.00  0.00     0.089 C 
ATOM     20  C   UNL     1     -22.091 -41.725  20.412  1.00  0.00     0.041 C 
ATOM     21  C   UNL     1     -20.664 -41.927  20.943  1.00  0.00     0.054 C 
ATOM     22  C   UNL     1     -20.601 -42.215  22.458  1.00  0.00     0.136 C 
ATOM     23  C   UNL     1     -21.050 -43.674  22.699  1.00  0.00     0.060 C 
ATOM     24  O   UNL     1     -19.183 -42.175  22.804  1.00  0.00    -0.484 OA
ENDROOT
BRANCH   1  25
ATOM     25  C   UNL     1     -15.819 -42.885  26.223  1.00  0.00     0.021 A 
ATOM     26  C   UNL     1     -13.247 -43.551  27.166  1.00  0.00     0.160 A 
ATOM     27  C   UNL     1     -13.415 -42.947  25.916  1.00  0.00     0.051 A 
ATOM     28  C   UNL     1     -14.370 -43.857  27.951  1.00  0.00     0.161 A 
ATOM     29  C   UNL     1     -14.686 -42.606  25.452  1.00  0.00     0.016 A 
ATOM     30  C   UNL     1     -15.643 -43.508  27.473  1.00  0.00     0.062 A 
BRANCH  26  31
ATOM     31  O   UNL     1     -11.939 -43.832  27.471  1.00  0.00    -0.493 OA
ATOM     32  C   UNL     1     -11.117 -42.700  27.737  1.00  0.00     0.278 C 
ENDBRANCH  26  31
BRANCH  28  33
ATOM     33  O   UNL     1     -14.154 -44.512  29.134  1.00  0.00    -0.493 OA
ATOM     34  C   UNL     1     -13.393 -45.713  29.104  1.00  0.00     0.278 C 
ENDBRANCH  28  33
ENDBRANCH   1  25
BRANCH   9  35
ATOM     35  O   UNL     1     -20.648 -39.846  23.033  1.00  0.00    -0.384 OA
ATOM     36  H   UNL     1     -19.767 -39.912  23.442  1.00  0.00     0.211 HD
ENDBRANCH   9  35
BRANCH  19  37
ATOM     37  O   UNL     1     -22.063 -39.401  20.936  1.00  0.00    -0.388 OA
ATOM     38  H   UNL     1     -21.190 -39.489  21.353  1.00  0.00     0.211 HD
ENDBRANCH  19  37
TORSDOF 5
ENDMDL
MODEL 8
REMARK VINA RESULT:    -8.858      4.047     12.364
REMARK INTER + INTRA:         -11.380
REMARK INTER:                 -10.972
REMARK INTRA:                  -0.408
REMARK UNBOUND:                -0.451
REMARK SMILES COc1ccc(-c2cc3c(c(=O)o2)C[C@]2(O)[C@@]4(C)C(=O)C=CC(C)(C)[C@]4(O)CC[C@@]2(C)O3)cc1OC
REMARK SMILES IDX 7 1 8 2 9 3 10 4 11 5 12 6 13 7 14 8 15 9 17 10 18 11 19 12
REMARK SMILES IDX 20 13 21 14 22 15 23 16 24 17 25 18 26 19 28 20 29 21 30 22
REMARK SMILES IDX 31 23 32 24 6 25 3 26 4 27 34 28 5 29 33 30 2 31 1 32 35 33
REMARK SMILES IDX 36 34 16 35 27 37
REMARK H PARENT 16 36 27 38
ROOT
ATOM      1  C   UNL     1     -19.649 -42.355  26.214  1.00  0.00     0.142 A 
ATOM      2  C   UNL     1     -20.244 -41.282  26.752  1.00  0.00     0.094 A 
ATOM      3  C   UNL     1     -21.669 -41.272  26.897  1.00  0.00     0.134 A 
ATOM      4  C   UNL     1     -22.420 -42.311  26.510  1.00  0.00     0.083 A 
ATOM      5  C   UNL     1     -21.775 -43.476  25.863  1.00  0.00     0.343 A 
ATOM      6  O   UNL     1     -22.438 -44.406  25.419  1.00  0.00    -0.246 OA
ATOM      7  O   UNL     1     -20.411 -43.459  25.762  1.00  0.00    -0.422 OA
ATOM      8  C   UNL     1     -23.911 -42.359  26.726  1.00  0.00     0.088 C 
ATOM      9  C   UNL     1     -24.392 -41.198  27.643  1.00  0.00     0.124 C 
ATOM     10  C   UNL     1     -25.965 -40.940  27.721  1.00  0.00     0.093 C 
ATOM     11  C   UNL     1     -26.577 -40.711  26.313  1.00  0.00     0.026 C 
ATOM     12  C   UNL     1     -26.714 -42.180  28.239  1.00  0.00     0.167 C 
ATOM     13  O   UNL     1     -26.376 -43.335  27.982  1.00  0.00    -0.294 OA
ATOM     14  C   UNL     1     -28.038 -41.994  28.898  1.00  0.00     0.044 C 
ATOM     15  C   UNL     1     -28.554 -40.786  29.159  1.00  0.00    -0.014 C 
ATOM     16  C   UNL     1     -27.832 -39.463  28.959  1.00  0.00     0.013 C 
ATOM     17  C   UNL     1     -28.067 -38.637  30.256  1.00  0.00     0.018 C 
ATOM     18  C   UNL     1     -28.535 -38.677  27.834  1.00  0.00     0.018 C 
ATOM     19  C   UNL     1     -26.281 -39.739  28.727  1.00  0.00     0.089 C 
ATOM     20  C   UNL     1     -25.480 -38.479  28.316  1.00  0.00     0.041 C 
ATOM     21  C   UNL     1     -23.970 -38.742  28.226  1.00  0.00     0.054 C 
ATOM     22  C   UNL     1     -23.596 -39.892  27.266  1.00  0.00     0.136 C 
ATOM     23  C   UNL     1     -23.738 -39.383  25.813  1.00  0.00     0.060 C 
ATOM     24  O   UNL     1     -22.169 -40.121  27.468  1.00  0.00    -0.484 OA
ENDROOT
BRANCH   1  25
ATOM     25  C   UNL     1     -18.193 -42.482  26.011  1.00  0.00     0.021 A 
ATOM     26  C   UNL     1     -15.423 -42.763  25.566  1.00  0.00     0.160 A 
ATOM     27  C   UNL     1     -15.943 -42.789  26.864  1.00  0.00     0.051 A 
ATOM     28  C   UNL     1     -16.281 -42.568  24.472  1.00  0.00     0.161 A 
ATOM     29  C   UNL     1     -17.315 -42.662  27.085  1.00  0.00     0.016 A 
ATOM     30  C   UNL     1     -17.659 -42.441  24.709  1.00  0.00     0.062 A 
BRANCH  26  31
ATOM     31  O   UNL     1     -14.057 -42.890  25.517  1.00  0.00    -0.493 OA
ATOM     32  C   UNL     1     -13.441 -43.323  26.725  1.00  0.00     0.278 C 
ENDBRANCH  26  31
BRANCH  28  33
ATOM     33  O   UNL     1     -15.711 -42.479  23.230  1.00  0.00    -0.493 OA
ATOM     34  C   UNL     1     -16.059 -41.369  22.411  1.00  0.00     0.278 C 
ENDBRANCH  28  33
ENDBRANCH   1  25
BRANCH   9  35
ATOM     35  O   UNL     1     -23.952 -41.595  28.973  1.00  0.00    -0.384 OA
ATOM     36  H   UNL     1     -23.333 -42.342  28.888  1.00  0.00     0.211 HD
ENDBRANCH   9  35
BRANCH  19  37
ATOM     37  O   UNL     1     -25.764 -40.112  30.028  1.00  0.00    -0.388 OA
ATOM     38  H   UNL     1     -24.850 -39.801  30.129  1.00  0.00     0.211 HD
ENDBRANCH  19  37
TORSDOF 5
ENDMDL
MODEL 9
REMARK VINA RESULT:    -8.767      6.540     15.711
REMARK INTER + INTRA:         -11.268
REMARK INTER:                 -10.814
REMARK INTRA:                  -0.454
REMARK UNBOUND:                -0.451
REMARK SMILES COc1ccc(-c2cc3c(c(=O)o2)C[C@]2(O)[C@@]4(C)C(=O)C=CC(C)(C)[C@]4(O)CC[C@@]2(C)O3)cc1OC
REMARK SMILES IDX 7 1 8 2 9 3 10 4 11 5 12 6 13 7 14 8 15 9 17 10 18 11 19 12
REMARK SMILES IDX 20 13 21 14 22 15 23 16 24 17 25 18 26 19 28 20 29 21 30 22
REMARK SMILES IDX 31 23 32 24 6 25 3 26 4 27 34 28 5 29 33 30 2 31 1 32 35 33
REMARK SMILES IDX 36 34 16 35 27 37
REMARK H PARENT 16 36 27 38
ROOT
ATOM      1  C   UNL     1     -20.791 -39.733  21.729  1.00  0.00     0.142 A 
ATOM      2  C   UNL     1     -20.775 -39.317  20.455  1.00  0.00     0.094 A 
ATOM      3  C   UNL     1     -21.893 -38.580  19.946  1.00  0.00     0.134 A 
ATOM      4  C   UNL     1     -22.953 -38.295  20.714  1.00  0.00     0.083 A 
ATOM      5  C   UNL     1     -23.002 -38.800  22.104  1.00  0.00     0.343 A 
ATOM      6  O   UNL     1     -23.991 -38.633  22.808  1.00  0.00    -0.246 OA
ATOM      7  O   UNL     1     -21.907 -39.481  22.563  1.00  0.00    -0.422 OA
ATOM      8  C   UNL     1     -24.104 -37.453  20.228  1.00  0.00     0.088 C 
ATOM      9  C   UNL     1     -23.783 -36.785  18.859  1.00  0.00     0.124 C 
ATOM     10  C   UNL     1     -25.002 -36.112  18.079  1.00  0.00     0.093 C 
ATOM     11  C   UNL     1     -26.161 -37.119  17.850  1.00  0.00     0.026 C 
ATOM     12  C   UNL     1     -25.656 -34.995  18.911  1.00  0.00     0.167 C 
ATOM     13  O   UNL     1     -25.766 -35.037  20.136  1.00  0.00    -0.294 OA
ATOM     14  C   UNL     1     -26.393 -33.912  18.202  1.00  0.00     0.044 C 
ATOM     15  C   UNL     1     -26.418 -33.805  16.867  1.00  0.00    -0.014 C 
ATOM     16  C   UNL     1     -25.609 -34.660  15.905  1.00  0.00     0.013 C 
ATOM     17  C   UNL     1     -24.972 -33.679  14.880  1.00  0.00     0.018 C 
ATOM     18  C   UNL     1     -26.576 -35.541  15.089  1.00  0.00     0.018 C 
ATOM     19  C   UNL     1     -24.491 -35.451  16.716  1.00  0.00     0.089 C 
ATOM     20  C   UNL     1     -23.735 -36.503  15.867  1.00  0.00     0.041 C 
ATOM     21  C   UNL     1     -22.576 -37.158  16.634  1.00  0.00     0.054 C 
ATOM     22  C   UNL     1     -23.005 -37.819  17.961  1.00  0.00     0.136 C 
ATOM     23  C   UNL     1     -23.729 -39.146  17.637  1.00  0.00     0.060 C 
ATOM     24  O   UNL     1     -21.763 -38.199  18.628  1.00  0.00    -0.484 OA
ENDROOT
BRANCH   1  25
ATOM     25  C   UNL     1     -19.703 -40.500  22.365  1.00  0.00     0.021 A 
ATOM     26  C   UNL     1     -17.647 -41.946  23.644  1.00  0.00     0.160 A 
ATOM     27  C   UNL     1     -17.399 -41.254  22.454  1.00  0.00     0.051 A 
ATOM     28  C   UNL     1     -18.938 -41.946  24.197  1.00  0.00     0.161 A 
ATOM     29  C   UNL     1     -18.412 -40.529  21.826  1.00  0.00     0.016 A 
ATOM     30  C   UNL     1     -19.948 -41.212  23.555  1.00  0.00     0.062 A 
BRANCH  26  31
ATOM     31  O   UNL     1     -16.554 -42.617  24.129  1.00  0.00    -0.493 OA
ATOM     32  C   UNL     1     -15.306 -41.952  23.964  1.00  0.00     0.278 C 
ENDBRANCH  26  31
BRANCH  28  33
ATOM     33  O   UNL     1     -19.142 -42.697  25.324  1.00  0.00    -0.493 OA
ATOM     34  C   UNL     1     -19.091 -42.041  26.584  1.00  0.00     0.278 C 
ENDBRANCH  28  33
ENDBRANCH   1  25
BRANCH   9  35
ATOM     35  O   UNL     1     -22.846 -35.724  19.197  1.00  0.00    -0.384 OA
ATOM     36  H   UNL     1     -22.394 -35.435  18.384  1.00  0.00     0.211 HD
ENDBRANCH   9  35
BRANCH  19  37
ATOM     37  O   UNL     1     -23.497 -34.455  17.061  1.00  0.00    -0.388 OA
ATOM     38  H   UNL     1     -22.758 -34.483  16.431  1.00  0.00     0.211 HD
ENDBRANCH  19  37
TORSDOF 5
ENDMDL
