MODEL 1
REMARK VINA RESULT:    -7.604      0.000      0.000
REMARK INTER + INTRA:          -9.723
REMARK INTER:                  -9.382
REMARK INTRA:                  -0.341
REMARK UNBOUND:                -0.341
REMARK SMILES CC[C@H](C)n1cc(C(=O)C(F)(F)F)cn1
REMARK SMILES IDX 5 1 6 2 7 3 14 4 15 5 3 6 4 7 2 8 1 9 8 10 9 11 10 12 11 13
REMARK SMILES IDX 12 14 13 15
REMARK H PARENT
ROOT
ATOM      1  N   UNL     1     -14.850 -43.729  27.153  1.00  0.00    -0.269 N 
ATOM      2  C   UNL     1     -13.958 -44.552  26.518  1.00  0.00     0.121 A 
ATOM      3  C   UNL     1     -13.374 -45.330  27.499  1.00  0.00     0.065 A 
ATOM      4  C   UNL     1     -13.989 -44.891  28.691  1.00  0.00     0.147 A 
ATOM      5  N   UNL     1     -14.883 -43.922  28.485  1.00  0.00    -0.180 NA
ENDROOT
BRANCH   1   6
ATOM      6  C   UNL     1     -15.710 -42.723  26.527  1.00  0.00     0.104 C 
ATOM      7  C   UNL     1     -16.019 -43.102  25.078  1.00  0.00     0.033 C 
BRANCH   6   8
ATOM      8  C   UNL     1     -16.973 -42.485  27.375  1.00  0.00     0.023 C 
ATOM      9  C   UNL     1     -18.239 -42.346  26.543  1.00  0.00     0.006 C 
ENDBRANCH   6   8
ENDBRANCH   1   6
BRANCH   3  10
ATOM     10  C   UNL     1     -12.358 -46.368  27.362  1.00  0.00     0.269 C 
ATOM     11  O   UNL     1     -12.522 -47.280  26.548  1.00  0.00    -0.284 OA
BRANCH  10  12
ATOM     12  C   UNL     1     -11.119 -46.273  28.249  1.00  0.00     0.454 C 
ATOM     13  F   UNL     1     -10.609 -45.012  28.332  1.00  0.00    -0.163 F 
ATOM     14  F   UNL     1     -10.099 -47.064  27.806  1.00  0.00    -0.163 F 
ATOM     15  F   UNL     1     -11.366 -46.664  29.533  1.00  0.00    -0.163 F 
ENDBRANCH  10  12
ENDBRANCH   3  10
TORSDOF 4
ENDMDL
MODEL 2
REMARK VINA RESULT:    -7.462      3.815      4.861
REMARK INTER + INTRA:          -9.547
REMARK INTER:                  -9.162
REMARK INTRA:                  -0.385
REMARK UNBOUND:                -0.341
REMARK SMILES CC[C@H](C)n1cc(C(=O)C(F)(F)F)cn1
REMARK SMILES IDX 5 1 6 2 7 3 14 4 15 5 3 6 4 7 2 8 1 9 8 10 9 11 10 12 11 13
REMARK SMILES IDX 12 14 13 15
REMARK H PARENT
ROOT
ATOM      1  N   UNL     1     -11.493 -44.221  28.405  1.00  0.00    -0.269 N 
ATOM      2  C   UNL     1     -10.496 -44.690  29.218  1.00  0.00     0.121 A 
ATOM      3  C   UNL     1      -9.901 -43.582  29.789  1.00  0.00     0.065 A 
ATOM      4  C   UNL     1     -10.619 -42.494  29.247  1.00  0.00     0.147 A 
ATOM      5  N   UNL     1     -11.583 -42.878  28.409  1.00  0.00    -0.180 NA
ENDROOT
BRANCH   1   6
ATOM      6  C   UNL     1     -12.404 -45.023  27.585  1.00  0.00     0.104 C 
ATOM      7  C   UNL     1     -12.075 -46.512  27.712  1.00  0.00     0.033 C 
BRANCH   6   8
ATOM      8  C   UNL     1     -13.869 -44.695  27.923  1.00  0.00     0.023 C 
ATOM      9  C   UNL     1     -14.623 -44.053  26.768  1.00  0.00     0.006 C 
ENDBRANCH   6   8
ENDBRANCH   1   6
BRANCH   3  10
ATOM     10  C   UNL     1      -8.789 -43.522  30.732  1.00  0.00     0.269 C 
ATOM     11  O   UNL     1      -7.745 -42.949  30.410  1.00  0.00    -0.284 OA
BRANCH  10  12
ATOM     12  C   UNL     1      -8.976 -44.183  32.095  1.00  0.00     0.454 C 
ATOM     13  F   UNL     1     -10.271 -44.197  32.516  1.00  0.00    -0.163 F 
ATOM     14  F   UNL     1      -8.267 -43.557  33.079  1.00  0.00    -0.163 F 
ATOM     15  F   UNL     1      -8.561 -45.483  32.105  1.00  0.00    -0.163 F 
ENDBRANCH  10  12
ENDBRANCH   3  10
TORSDOF 4
ENDMDL
MODEL 3
REMARK VINA RESULT:    -7.174      1.714      2.308
REMARK INTER + INTRA:          -9.192
REMARK INTER:                  -8.966
REMARK INTRA:                  -0.226
REMARK UNBOUND:                -0.341
REMARK SMILES CC[C@H](C)n1cc(C(=O)C(F)(F)F)cn1
REMARK SMILES IDX 5 1 6 2 7 3 14 4 15 5 3 6 4 7 2 8 1 9 8 10 9 11 10 12 11 13
REMARK SMILES IDX 12 14 13 15
REMARK H PARENT
ROOT
ATOM      1  N   UNL     1     -14.334 -44.381  27.978  1.00  0.00    -0.269 N 
ATOM      2  C   UNL     1     -13.146 -45.061  27.924  1.00  0.00     0.121 A 
ATOM      3  C   UNL     1     -12.811 -45.372  29.227  1.00  0.00     0.065 A 
ATOM      4  C   UNL     1     -13.870 -44.829  29.988  1.00  0.00     0.147 A 
ATOM      5  N   UNL     1     -14.793 -44.229  29.234  1.00  0.00    -0.180 NA
ENDROOT
BRANCH   1   6
ATOM      6  C   UNL     1     -15.087 -43.844  26.843  1.00  0.00     0.104 C 
ATOM      7  C   UNL     1     -15.999 -42.701  27.292  1.00  0.00     0.033 C 
BRANCH   6   8
ATOM      8  C   UNL     1     -14.136 -43.448  25.699  1.00  0.00     0.023 C 
ATOM      9  C   UNL     1     -14.694 -43.760  24.318  1.00  0.00     0.006 C 
ENDBRANCH   6   8
ENDBRANCH   1   6
BRANCH   3  10
ATOM     10  C   UNL     1     -11.644 -46.090  29.728  1.00  0.00     0.269 C 
ATOM     11  O   UNL     1     -11.641 -46.521  30.884  1.00  0.00    -0.284 OA
BRANCH  10  12
ATOM     12  C   UNL     1     -10.463 -46.276  28.780  1.00  0.00     0.454 C 
ATOM     13  F   UNL     1      -9.932 -45.101  28.339  1.00  0.00    -0.163 F 
ATOM     14  F   UNL     1     -10.799 -46.982  27.661  1.00  0.00    -0.163 F 
ATOM     15  F   UNL     1      -9.433 -46.961  29.358  1.00  0.00    -0.163 F 
ENDBRANCH  10  12
ENDBRANCH   3  10
TORSDOF 4
ENDMDL
MODEL 4
REMARK VINA RESULT:    -7.159      3.899      5.862
REMARK INTER + INTRA:          -9.174
REMARK INTER:                  -8.800
REMARK INTRA:                  -0.374
REMARK UNBOUND:                -0.341
REMARK SMILES CC[C@H](C)n1cc(C(=O)C(F)(F)F)cn1
REMARK SMILES IDX 5 1 6 2 7 3 14 4 15 5 3 6 4 7 2 8 1 9 8 10 9 11 10 12 11 13
REMARK SMILES IDX 12 14 13 15
REMARK H PARENT
ROOT
ATOM      1  N   UNL     1     -13.272 -44.216  27.660  1.00  0.00    -0.269 N 
ATOM      2  C   UNL     1     -14.543 -44.354  27.169  1.00  0.00     0.121 A 
ATOM      3  C   UNL     1     -14.735 -43.317  26.277  1.00  0.00     0.065 A 
ATOM      4  C   UNL     1     -13.512 -42.612  26.309  1.00  0.00     0.147 A 
ATOM      5  N   UNL     1     -12.625 -43.154  27.145  1.00  0.00    -0.180 NA
ENDROOT
BRANCH   1   6
ATOM      6  C   UNL     1     -12.613 -45.082  28.640  1.00  0.00     0.104 C 
ATOM      7  C   UNL     1     -13.590 -45.485  29.746  1.00  0.00     0.033 C 
BRANCH   6   8
ATOM      8  C   UNL     1     -11.954 -46.286  27.944  1.00  0.00     0.023 C 
ATOM      9  C   UNL     1     -10.531 -46.549  28.415  1.00  0.00     0.006 C 
ENDBRANCH   6   8
ENDBRANCH   1   6
BRANCH   3  10
ATOM     10  C   UNL     1     -15.913 -43.001  25.478  1.00  0.00     0.269 C 
ATOM     11  O   UNL     1     -16.947 -42.625  26.037  1.00  0.00    -0.284 OA
BRANCH  10  12
ATOM     12  C   UNL     1     -15.809 -43.155  23.963  1.00  0.00     0.454 C 
ATOM     13  F   UNL     1     -17.016 -43.321  23.353  1.00  0.00    -0.163 F 
ATOM     14  F   UNL     1     -15.051 -44.230  23.599  1.00  0.00    -0.163 F 
ATOM     15  F   UNL     1     -15.231 -42.071  23.368  1.00  0.00    -0.163 F 
ENDBRANCH  10  12
ENDBRANCH   3  10
TORSDOF 4
ENDMDL
MODEL 5
REMARK VINA RESULT:    -7.149      3.847      6.290
REMARK INTER + INTRA:          -9.162
REMARK INTER:                  -8.840
REMARK INTRA:                  -0.322
REMARK UNBOUND:                -0.341
REMARK SMILES CC[C@H](C)n1cc(C(=O)C(F)(F)F)cn1
REMARK SMILES IDX 5 1 6 2 7 3 14 4 15 5 3 6 4 7 2 8 1 9 8 10 9 11 10 12 11 13
REMARK SMILES IDX 12 14 13 15
REMARK H PARENT
ROOT
ATOM      1  N   UNL     1      -9.324 -43.612  30.068  1.00  0.00    -0.269 N 
ATOM      2  C   UNL     1     -10.511 -44.280  29.926  1.00  0.00     0.121 A 
ATOM      3  C   UNL     1     -10.942 -44.045  28.635  1.00  0.00     0.065 A 
ATOM      4  C   UNL     1      -9.937 -43.219  28.087  1.00  0.00     0.147 A 
ATOM      5  N   UNL     1      -8.956 -42.956  28.952  1.00  0.00    -0.180 NA
ENDROOT
BRANCH   1   6
ATOM      6  C   UNL     1      -8.485 -43.564  31.268  1.00  0.00     0.104 C 
ATOM      7  C   UNL     1      -9.347 -43.597  32.531  1.00  0.00     0.033 C 
BRANCH   6   8
ATOM      8  C   UNL     1      -7.420 -44.675  31.230  1.00  0.00     0.023 C 
ATOM      9  C   UNL     1      -7.991 -46.064  31.472  1.00  0.00     0.006 C 
ENDBRANCH   6   8
ENDBRANCH   1   6
BRANCH   3  10
ATOM     10  C   UNL     1     -12.149 -44.523  27.971  1.00  0.00     0.269 C 
ATOM     11  O   UNL     1     -12.991 -43.712  27.575  1.00  0.00    -0.284 OA
BRANCH  10  12
ATOM     12  C   UNL     1     -12.316 -46.030  27.795  1.00  0.00     0.454 C 
ATOM     13  F   UNL     1     -11.132 -46.696  27.695  1.00  0.00    -0.163 F 
ATOM     14  F   UNL     1     -13.024 -46.348  26.672  1.00  0.00    -0.163 F 
ATOM     15  F   UNL     1     -12.986 -46.605  28.835  1.00  0.00    -0.163 F 
ENDBRANCH  10  12
ENDBRANCH   3  10
TORSDOF 4
ENDMDL
MODEL 6
REMARK VINA RESULT:    -7.107      3.597      5.729
REMARK INTER + INTRA:          -9.110
REMARK INTER:                  -8.756
REMARK INTRA:                  -0.354
REMARK UNBOUND:                -0.341
REMARK SMILES CC[C@H](C)n1cc(C(=O)C(F)(F)F)cn1
REMARK SMILES IDX 5 1 6 2 7 3 14 4 15 5 3 6 4 7 2 8 1 9 8 10 9 11 10 12 11 13
REMARK SMILES IDX 12 14 13 15
REMARK H PARENT
ROOT
ATOM      1  N   UNL     1     -12.382 -45.122  28.227  1.00  0.00    -0.269 N 
ATOM      2  C   UNL     1     -13.667 -45.019  27.766  1.00  0.00     0.121 A 
ATOM      3  C   UNL     1     -13.761 -43.794  27.134  1.00  0.00     0.065 A 
ATOM      4  C   UNL     1     -12.470 -43.241  27.274  1.00  0.00     0.147 A 
ATOM      5  N   UNL     1     -11.633 -44.042  27.936  1.00  0.00    -0.180 NA
ENDROOT
BRANCH   1   6
ATOM      6  C   UNL     1     -11.805 -46.248  28.965  1.00  0.00     0.104 C 
ATOM      7  C   UNL     1     -10.390 -46.549  28.471  1.00  0.00     0.033 C 
BRANCH   6   8
ATOM      8  C   UNL     1     -11.877 -45.996  30.482  1.00  0.00     0.023 C 
ATOM      9  C   UNL     1     -10.562 -46.263  31.200  1.00  0.00     0.006 C 
ENDBRANCH   6   8
ENDBRANCH   1   6
BRANCH   3  10
ATOM     10  C   UNL     1     -14.911 -43.191  26.470  1.00  0.00     0.269 C 
ATOM     11  O   UNL     1     -15.698 -42.498  27.121  1.00  0.00    -0.284 OA
BRANCH  10  12
ATOM     12  C   UNL     1     -15.089 -43.450  24.977  1.00  0.00     0.454 C 
ATOM     13  F   UNL     1     -14.651 -44.680  24.586  1.00  0.00    -0.163 F 
ATOM     14  F   UNL     1     -14.414 -42.548  24.207  1.00  0.00    -0.163 F 
ATOM     15  F   UNL     1     -16.394 -43.373  24.585  1.00  0.00    -0.163 F 
ENDBRANCH  10  12
ENDBRANCH   3  10
TORSDOF 4
ENDMDL
MODEL 7
REMARK VINA RESULT:    -7.082      1.996      2.773
REMARK INTER + INTRA:          -9.079
REMARK INTER:                  -8.740
REMARK INTRA:                  -0.338
REMARK UNBOUND:                -0.341
REMARK SMILES CC[C@H](C)n1cc(C(=O)C(F)(F)F)cn1
REMARK SMILES IDX 5 1 6 2 7 3 14 4 15 5 3 6 4 7 2 8 1 9 8 10 9 11 10 12 11 13
REMARK SMILES IDX 12 14 13 15
REMARK H PARENT
ROOT
ATOM      1  N   UNL     1     -13.615 -44.235  27.172  1.00  0.00    -0.269 N 
ATOM      2  C   UNL     1     -13.243 -45.373  27.837  1.00  0.00     0.121 A 
ATOM      3  C   UNL     1     -12.031 -45.099  28.440  1.00  0.00     0.065 A 
ATOM      4  C   UNL     1     -11.764 -43.763  28.071  1.00  0.00     0.147 A 
ATOM      5  N   UNL     1     -12.721 -43.237  27.304  1.00  0.00    -0.180 NA
ENDROOT
BRANCH   1   6
ATOM      6  C   UNL     1     -14.832 -44.041  26.382  1.00  0.00     0.104 C 
ATOM      7  C   UNL     1     -15.585 -42.793  26.848  1.00  0.00     0.033 C 
BRANCH   6   8
ATOM      8  C   UNL     1     -14.507 -44.028  24.878  1.00  0.00     0.023 C 
ATOM      9  C   UNL     1     -15.547 -43.295  24.043  1.00  0.00     0.006 C 
ENDBRANCH   6   8
ENDBRANCH   1   6
BRANCH   3  10
ATOM     10  C   UNL     1     -11.201 -45.968  29.267  1.00  0.00     0.269 C 
ATOM     11  O   UNL     1     -10.311 -46.642  28.743  1.00  0.00    -0.284 OA
BRANCH  10  12
ATOM     12  C   UNL     1     -11.479 -46.000  30.767  1.00  0.00     0.454 C 
ATOM     13  F   UNL     1     -12.708 -46.498  31.079  1.00  0.00    -0.163 F 
ATOM     14  F   UNL     1     -11.419 -44.761  31.335  1.00  0.00    -0.163 F 
ATOM     15  F   UNL     1     -10.579 -46.767  31.448  1.00  0.00    -0.163 F 
ENDBRANCH  10  12
ENDBRANCH   3  10
TORSDOF 4
ENDMDL
MODEL 8
REMARK VINA RESULT:    -7.025      5.940      6.776
REMARK INTER + INTRA:          -9.008
REMARK INTER:                  -8.851
REMARK INTRA:                  -0.157
REMARK UNBOUND:                -0.341
REMARK SMILES CC[C@H](C)n1cc(C(=O)C(F)(F)F)cn1
REMARK SMILES IDX 5 1 6 2 7 3 14 4 15 5 3 6 4 7 2 8 1 9 8 10 9 11 10 12 11 13
REMARK SMILES IDX 12 14 13 15
REMARK H PARENT
ROOT
ATOM      1  N   UNL     1     -11.759 -42.715  33.028  1.00  0.00    -0.269 N 
ATOM      2  C   UNL     1     -10.730 -43.402  32.441  1.00  0.00     0.121 A 
ATOM      3  C   UNL     1      -9.581 -43.042  33.118  1.00  0.00     0.065 A 
ATOM      4  C   UNL     1     -10.035 -42.130  34.095  1.00  0.00     0.147 A 
ATOM      5  N   UNL     1     -11.353 -41.930  34.043  1.00  0.00    -0.180 NA
ENDROOT
BRANCH   1   6
ATOM      6  C   UNL     1     -13.174 -42.770  32.653  1.00  0.00     0.104 C 
ATOM      7  C   UNL     1     -13.548 -44.170  32.164  1.00  0.00     0.033 C 
BRANCH   6   8
ATOM      8  C   UNL     1     -14.061 -42.273  33.808  1.00  0.00     0.023 C 
ATOM      9  C   UNL     1     -15.276 -41.485  33.338  1.00  0.00     0.006 C 
ENDBRANCH   6   8
ENDBRANCH   1   6
BRANCH   3  10
ATOM     10  C   UNL     1      -8.209 -43.484  32.895  1.00  0.00     0.269 C 
ATOM     11  O   UNL     1      -7.282 -42.923  33.485  1.00  0.00    -0.284 OA
BRANCH  10  12
ATOM     12  C   UNL     1      -7.983 -44.641  31.925  1.00  0.00     0.454 C 
ATOM     13  F   UNL     1      -6.735 -45.182  32.010  1.00  0.00    -0.163 F 
ATOM     14  F   UNL     1      -8.143 -44.267  30.622  1.00  0.00    -0.163 F 
ATOM     15  F   UNL     1      -8.855 -45.671  32.129  1.00  0.00    -0.163 F 
ENDBRANCH  10  12
ENDBRANCH   3  10
TORSDOF 4
ENDMDL
MODEL 9
REMARK VINA RESULT:    -6.973      2.191      2.895
REMARK INTER + INTRA:          -8.945
REMARK INTER:                  -8.642
REMARK INTRA:                  -0.302
REMARK UNBOUND:                -0.341
REMARK SMILES CC[C@H](C)n1cc(C(=O)C(F)(F)F)cn1
REMARK SMILES IDX 5 1 6 2 7 3 14 4 15 5 3 6 4 7 2 8 1 9 8 10 9 11 10 12 11 13
REMARK SMILES IDX 12 14 13 15
REMARK H PARENT
ROOT
ATOM      1  N   UNL     1     -14.167 -44.685  27.366  1.00  0.00    -0.269 N 
ATOM      2  C   UNL     1     -14.209 -44.706  28.735  1.00  0.00     0.121 A 
ATOM      3  C   UNL     1     -13.298 -45.663  29.140  1.00  0.00     0.065 A 
ATOM      4  C   UNL     1     -12.765 -46.158  27.931  1.00  0.00     0.147 A 
ATOM      5  N   UNL     1     -13.289 -45.567  26.855  1.00  0.00    -0.180 NA
ENDROOT
BRANCH   1   6
ATOM      6  C   UNL     1     -14.959 -43.828  26.480  1.00  0.00     0.104 C 
ATOM      7  C   UNL     1     -15.847 -42.885  27.293  1.00  0.00     0.033 C 
BRANCH   6   8
ATOM      8  C   UNL     1     -14.049 -43.094  25.480  1.00  0.00     0.023 C 
ATOM      9  C   UNL     1     -14.819 -42.343  24.403  1.00  0.00     0.006 C 
ENDBRANCH   6   8
ENDBRANCH   1   6
BRANCH   3  10
ATOM     10  C   UNL     1     -12.952 -46.083  30.493  1.00  0.00     0.269 C 
ATOM     11  O   UNL     1     -13.735 -46.790  31.133  1.00  0.00    -0.284 OA
BRANCH  10  12
ATOM     12  C   UNL     1     -11.614 -45.620  31.062  1.00  0.00     0.454 C 
ATOM     13  F   UNL     1     -10.882 -44.877  30.186  1.00  0.00    -0.163 F 
ATOM     14  F   UNL     1     -10.815 -46.663  31.431  1.00  0.00    -0.163 F 
ATOM     15  F   UNL     1     -11.761 -44.848  32.179  1.00  0.00    -0.163 F 
ENDBRANCH  10  12
ENDBRANCH   3  10
TORSDOF 4
ENDMDL
