MODEL 1
REMARK VINA RESULT:   -13.118      0.000      0.000
REMARK INTER + INTRA:         -18.337
REMARK INTER:                 -17.720
REMARK INTRA:                  -0.617
REMARK UNBOUND:                -0.617
REMARK SMILES COc1ccc2c(c1)CC[C@H](Cc1cc[n+](Cc3ccccc3C)cc1C(C)=O)C2=O
REMARK SMILES IDX 13 1 14 2 15 3 16 4 25 5 26 6 12 7 11 8 3 9 4 10 8 11 5 12
REMARK SMILES IDX 7 13 6 14 9 15 30 16 10 17 31 18 2 19 1 20 27 21 28 22 29 23
REMARK SMILES IDX 17 24 18 25 19 26 23 27 20 28 22 29 21 30 24 31
REMARK H PARENT
ROOT
ATOM      1  C   UNL     1     -12.726 -43.982  27.580  1.00  0.00    -0.025 A 
ATOM      2  C   UNL     1     -13.423 -45.073  28.119  1.00  0.00     0.075 A 
ATOM      3  C   UNL     1     -12.979 -45.698  29.281  1.00  0.00     0.308 A 
ATOM      4  N   UNL     1     -11.871 -45.255  29.917  1.00  0.00    -0.200 N 
ATOM      5  C   UNL     1     -11.164 -44.215  29.416  1.00  0.00     0.320 A 
ATOM      6  C   UNL     1     -11.560 -43.575  28.238  1.00  0.00     0.084 A 
ENDROOT
BRANCH   1   7
ATOM      7  C   UNL     1     -13.319 -43.291  26.370  1.00  0.00     0.048 C 
BRANCH   7   8
ATOM      8  C   UNL     1     -14.850 -43.454  26.237  1.00  0.00     0.066 C 
ATOM      9  C   UNL     1     -19.228 -41.997  23.832  1.00  0.00     0.119 A 
ATOM     10  C   UNL     1     -18.324 -42.317  22.819  1.00  0.00     0.047 A 
ATOM     11  C   UNL     1     -18.824 -42.092  25.165  1.00  0.00     0.050 A 
ATOM     12  C   UNL     1     -17.028 -42.731  23.126  1.00  0.00     0.016 A 
ATOM     13  C   UNL     1     -17.516 -42.494  25.493  1.00  0.00    -0.033 A 
ATOM     14  C   UNL     1     -16.626 -42.826  24.462  1.00  0.00     0.021 A 
ATOM     15  C   UNL     1     -17.116 -42.606  26.937  1.00  0.00     0.037 C 
ATOM     16  C   UNL     1     -15.245 -43.287  24.772  1.00  0.00     0.166 C 
ATOM     17  C   UNL     1     -15.608 -42.452  27.112  1.00  0.00     0.017 C 
ATOM     18  O   UNL     1     -14.473 -43.574  23.860  1.00  0.00    -0.294 OA
BRANCH   9  19
ATOM     19  O   UNL     1     -20.464 -41.614  23.390  1.00  0.00    -0.497 OA
ATOM     20  C   UNL     1     -20.591 -40.294  22.876  1.00  0.00     0.278 C 
ENDBRANCH   9  19
ENDBRANCH   7   8
ENDBRANCH   1   7
BRANCH   6  21
ATOM     21  C   UNL     1     -10.709 -42.435  27.849  1.00  0.00     0.166 C 
ATOM     22  C   UNL     1      -9.328 -42.677  27.311  1.00  0.00     0.094 C 
ATOM     23  O   UNL     1     -11.161 -41.314  28.059  1.00  0.00    -0.294 OA
ENDBRANCH   6  21
BRANCH   4  24
ATOM     24  C   UNL     1     -11.431 -45.913  31.177  1.00  0.00     0.393 C 
BRANCH  24  25
ATOM     25  C   UNL     1      -9.990 -45.583  31.484  1.00  0.00     0.020 A 
ATOM     26  C   UNL     1      -8.985 -46.471  31.050  1.00  0.00     0.010 A 
ATOM     27  C   UNL     1      -9.615 -44.420  32.194  1.00  0.00    -0.042 A 
ATOM     28  C   UNL     1      -7.639 -46.205  31.291  1.00  0.00     0.001 A 
ATOM     29  C   UNL     1      -8.252 -44.170  32.426  1.00  0.00     0.004 A 
ATOM     30  C   UNL     1      -7.273 -45.053  31.975  1.00  0.00     0.000 A 
ATOM     31  C   UNL     1     -10.621 -43.437  32.733  1.00  0.00     0.045 C 
ENDBRANCH  24  25
ENDBRANCH   4  24
TORSDOF 6
ENDMDL
MODEL 2
REMARK VINA RESULT:   -12.160      2.653      9.776
REMARK INTER + INTRA:         -17.042
REMARK INTER:                 -16.185
REMARK INTRA:                  -0.858
REMARK UNBOUND:                -0.617
REMARK SMILES COc1ccc2c(c1)CC[C@H](Cc1cc[n+](Cc3ccccc3C)cc1C(C)=O)C2=O
REMARK SMILES IDX 13 1 14 2 15 3 16 4 25 5 26 6 12 7 11 8 3 9 4 10 8 11 5 12
REMARK SMILES IDX 7 13 6 14 9 15 30 16 10 17 31 18 2 19 1 20 27 21 28 22 29 23
REMARK SMILES IDX 17 24 18 25 19 26 23 27 20 28 22 29 21 30 24 31
REMARK H PARENT
ROOT
ATOM      1  C   UNL     1     -15.257 -43.117  26.333  1.00  0.00    -0.025 A 
ATOM      2  C   UNL     1     -15.799 -43.002  27.621  1.00  0.00     0.075 A 
ATOM      3  C   UNL     1     -17.117 -42.593  27.806  1.00  0.00     0.308 A 
ATOM      4  N   UNL     1     -17.903 -42.311  26.741  1.00  0.00    -0.200 N 
ATOM      5  C   UNL     1     -17.408 -42.395  25.485  1.00  0.00     0.320 A 
ATOM      6  C   UNL     1     -16.083 -42.777  25.255  1.00  0.00     0.084 A 
ENDROOT
BRANCH   1   7
ATOM      7  C   UNL     1     -13.849 -43.659  26.204  1.00  0.00     0.048 C 
BRANCH   7   8
ATOM      8  C   UNL     1     -13.301 -44.310  27.493  1.00  0.00     0.066 C 
ATOM      9  C   UNL     1      -9.136 -45.710  30.279  1.00  0.00     0.119 A 
ATOM     10  C   UNL     1      -8.939 -44.369  29.944  1.00  0.00     0.047 A 
ATOM     11  C   UNL     1     -10.283 -46.367  29.829  1.00  0.00     0.050 A 
ATOM     12  C   UNL     1      -9.875 -43.685  29.169  1.00  0.00     0.016 A 
ATOM     13  C   UNL     1     -11.231 -45.694  29.035  1.00  0.00    -0.033 A 
ATOM     14  C   UNL     1     -11.023 -44.344  28.721  1.00  0.00     0.021 A 
ATOM     15  C   UNL     1     -12.465 -46.421  28.582  1.00  0.00     0.037 C 
ATOM     16  C   UNL     1     -12.020 -43.593  27.911  1.00  0.00     0.166 C 
ATOM     17  C   UNL     1     -13.039 -45.808  27.309  1.00  0.00     0.017 C 
ATOM     18  O   UNL     1     -11.828 -42.410  27.641  1.00  0.00    -0.294 OA
BRANCH   9  19
ATOM     19  O   UNL     1      -8.145 -46.254  31.047  1.00  0.00    -0.497 OA
ATOM     20  C   UNL     1      -7.139 -45.374  31.533  1.00  0.00     0.278 C 
ENDBRANCH   9  19
ENDBRANCH   7   8
ENDBRANCH   1   7
BRANCH   6  21
ATOM     21  C   UNL     1     -15.712 -42.862  23.831  1.00  0.00     0.166 C 
ATOM     22  C   UNL     1     -15.995 -41.709  22.910  1.00  0.00     0.094 C 
ATOM     23  O   UNL     1     -15.242 -43.929  23.447  1.00  0.00    -0.294 OA
ENDBRANCH   6  21
BRANCH   4  24
ATOM     24  C   UNL     1     -19.319 -41.910  26.956  1.00  0.00     0.393 C 
BRANCH  24  25
ATOM     25  C   UNL     1     -20.237 -43.106  26.874  1.00  0.00     0.020 A 
ATOM     26  C   UNL     1     -20.443 -43.882  28.032  1.00  0.00     0.010 A 
ATOM     27  C   UNL     1     -20.892 -43.475  25.677  1.00  0.00    -0.042 A 
ATOM     28  C   UNL     1     -21.295 -44.984  28.015  1.00  0.00     0.001 A 
ATOM     29  C   UNL     1     -21.747 -44.590  25.681  1.00  0.00     0.004 A 
ATOM     30  C   UNL     1     -21.950 -45.336  26.841  1.00  0.00     0.000 A 
ATOM     31  C   UNL     1     -20.699 -42.732  24.381  1.00  0.00     0.045 C 
ENDBRANCH  24  25
ENDBRANCH   4  24
TORSDOF 6
ENDMDL
MODEL 3
REMARK VINA RESULT:   -11.770      2.134      3.551
REMARK INTER + INTRA:         -16.515
REMARK INTER:                 -16.402
REMARK INTRA:                  -0.114
REMARK UNBOUND:                -0.617
REMARK SMILES COc1ccc2c(c1)CC[C@H](Cc1cc[n+](Cc3ccccc3C)cc1C(C)=O)C2=O
REMARK SMILES IDX 13 1 14 2 15 3 16 4 25 5 26 6 12 7 11 8 3 9 4 10 8 11 5 12
REMARK SMILES IDX 7 13 6 14 9 15 30 16 10 17 31 18 2 19 1 20 27 21 28 22 29 23
REMARK SMILES IDX 17 24 18 25 19 26 23 27 20 28 22 29 21 30 24 31
REMARK H PARENT
ROOT
ATOM      1  C   UNL     1     -12.725 -44.635  29.062  1.00  0.00    -0.025 A 
ATOM      2  C   UNL     1     -11.674 -43.991  28.393  1.00  0.00     0.075 A 
ATOM      3  C   UNL     1     -10.486 -43.690  29.054  1.00  0.00     0.308 A 
ATOM      4  N   UNL     1     -10.322 -44.025  30.354  1.00  0.00    -0.200 N 
ATOM      5  C   UNL     1     -11.321 -44.632  31.036  1.00  0.00     0.320 A 
ATOM      6  C   UNL     1     -12.539 -44.930  30.418  1.00  0.00     0.084 A 
ENDROOT
BRANCH   1   7
ATOM      7  C   UNL     1     -13.948 -45.018  28.256  1.00  0.00     0.048 C 
BRANCH   7   8
ATOM      8  C   UNL     1     -14.181 -44.141  27.005  1.00  0.00     0.066 C 
ATOM      9  C   UNL     1     -17.559 -42.279  23.513  1.00  0.00     0.119 A 
ATOM     10  C   UNL     1     -18.114 -42.007  24.765  1.00  0.00     0.047 A 
ATOM     11  C   UNL     1     -16.339 -42.955  23.437  1.00  0.00     0.050 A 
ATOM     12  C   UNL     1     -17.461 -42.400  25.933  1.00  0.00     0.016 A 
ATOM     13  C   UNL     1     -15.674 -43.371  24.606  1.00  0.00    -0.033 A 
ATOM     14  C   UNL     1     -16.239 -43.075  25.855  1.00  0.00     0.021 A 
ATOM     15  C   UNL     1     -14.353 -44.078  24.494  1.00  0.00     0.037 C 
ATOM     16  C   UNL     1     -15.548 -43.471  27.112  1.00  0.00     0.166 C 
ATOM     17  C   UNL     1     -14.084 -44.955  25.712  1.00  0.00     0.017 C 
ATOM     18  O   UNL     1     -16.052 -43.207  28.200  1.00  0.00    -0.294 OA
BRANCH   9  19
ATOM     19  O   UNL     1     -18.300 -41.833  22.455  1.00  0.00    -0.497 OA
ATOM     20  C   UNL     1     -18.073 -40.499  22.016  1.00  0.00     0.278 C 
ENDBRANCH   9  19
ENDBRANCH   7   8
ENDBRANCH   1   7
BRANCH   6  21
ATOM     21  C   UNL     1     -13.506 -45.629  31.283  1.00  0.00     0.166 C 
ATOM     22  C   UNL     1     -14.107 -44.922  32.465  1.00  0.00     0.094 C 
ATOM     23  O   UNL     1     -13.721 -46.810  31.027  1.00  0.00    -0.294 OA
ENDBRANCH   6  21
BRANCH   4  24
ATOM     24  C   UNL     1      -9.033 -43.727  31.035  1.00  0.00     0.393 C 
BRANCH  24  25
ATOM     25  C   UNL     1      -9.270 -43.148  32.410  1.00  0.00     0.020 A 
ATOM     26  C   UNL     1     -10.581 -42.784  32.774  1.00  0.00     0.010 A 
ATOM     27  C   UNL     1      -8.223 -42.955  33.339  1.00  0.00    -0.042 A 
ATOM     28  C   UNL     1     -10.857 -42.263  34.036  1.00  0.00     0.001 A 
ATOM     29  C   UNL     1      -8.522 -42.429  34.607  1.00  0.00     0.004 A 
ATOM     30  C   UNL     1      -9.828 -42.089  34.953  1.00  0.00     0.000 A 
ATOM     31  C   UNL     1      -6.785 -43.275  33.023  1.00  0.00     0.045 C 
ENDBRANCH  24  25
ENDBRANCH   4  24
TORSDOF 6
ENDMDL
MODEL 4
REMARK VINA RESULT:   -11.241      1.857      3.023
REMARK INTER + INTRA:         -15.801
REMARK INTER:                 -15.273
REMARK INTRA:                  -0.527
REMARK UNBOUND:                -0.617
REMARK SMILES COc1ccc2c(c1)CC[C@H](Cc1cc[n+](Cc3ccccc3C)cc1C(C)=O)C2=O
REMARK SMILES IDX 13 1 14 2 15 3 16 4 25 5 26 6 12 7 11 8 3 9 4 10 8 11 5 12
REMARK SMILES IDX 7 13 6 14 9 15 30 16 10 17 31 18 2 19 1 20 27 21 28 22 29 23
REMARK SMILES IDX 17 24 18 25 19 26 23 27 20 28 22 29 21 30 24 31
REMARK H PARENT
ROOT
ATOM      1  C   UNL     1     -12.078 -43.755  27.659  1.00  0.00    -0.025 A 
ATOM      2  C   UNL     1     -11.216 -42.695  27.977  1.00  0.00     0.075 A 
ATOM      3  C   UNL     1     -10.268 -42.827  28.988  1.00  0.00     0.308 A 
ATOM      4  N   UNL     1     -10.154 -43.987  29.674  1.00  0.00    -0.200 N 
ATOM      5  C   UNL     1     -10.980 -45.025  29.405  1.00  0.00     0.320 A 
ATOM      6  C   UNL     1     -11.963 -44.927  28.415  1.00  0.00     0.084 A 
ENDROOT
BRANCH   1   7
ATOM      7  C   UNL     1     -13.017 -43.575  26.485  1.00  0.00     0.048 C 
BRANCH   7   8
ATOM      8  C   UNL     1     -14.513 -43.717  26.845  1.00  0.00     0.066 C 
ATOM      9  C   UNL     1     -19.346 -41.855  26.347  1.00  0.00     0.119 A 
ATOM     10  C   UNL     1     -18.847 -41.974  25.049  1.00  0.00     0.047 A 
ATOM     11  C   UNL     1     -18.532 -42.196  27.428  1.00  0.00     0.050 A 
ATOM     12  C   UNL     1     -17.548 -42.432  24.825  1.00  0.00     0.016 A 
ATOM     13  C   UNL     1     -17.214 -42.647  27.221  1.00  0.00    -0.033 A 
ATOM     14  C   UNL     1     -16.735 -42.775  25.910  1.00  0.00     0.021 A 
ATOM     15  C   UNL     1     -16.368 -43.026  28.403  1.00  0.00     0.037 C 
ATOM     16  C   UNL     1     -15.358 -43.279  25.652  1.00  0.00     0.166 C 
ATOM     17  C   UNL     1     -14.881 -42.901  28.088  1.00  0.00     0.017 C 
ATOM     18  O   UNL     1     -14.949 -43.387  24.499  1.00  0.00    -0.294 OA
BRANCH   9  19
ATOM     19  O   UNL     1     -20.633 -41.401  26.420  1.00  0.00    -0.497 OA
ATOM     20  C   UNL     1     -21.661 -42.374  26.558  1.00  0.00     0.278 C 
ENDBRANCH   9  19
ENDBRANCH   7   8
ENDBRANCH   1   7
BRANCH   6  21
ATOM     21  C   UNL     1     -12.750 -46.157  28.216  1.00  0.00     0.166 C 
ATOM     22  C   UNL     1     -12.682 -46.891  26.906  1.00  0.00     0.094 C 
ATOM     23  O   UNL     1     -13.497 -46.487  29.132  1.00  0.00    -0.294 OA
ENDBRANCH   6  21
BRANCH   4  24
ATOM     24  C   UNL     1      -9.112 -44.121  30.727  1.00  0.00     0.393 C 
BRANCH  24  25
ATOM     25  C   UNL     1      -9.539 -43.431  32.001  1.00  0.00     0.020 A 
ATOM     26  C   UNL     1     -10.904 -43.130  32.182  1.00  0.00     0.010 A 
ATOM     27  C   UNL     1      -8.620 -43.073  33.012  1.00  0.00    -0.042 A 
ATOM     28  C   UNL     1     -11.354 -42.511  33.346  1.00  0.00     0.001 A 
ATOM     29  C   UNL     1      -9.094 -42.450  34.179  1.00  0.00     0.004 A 
ATOM     30  C   UNL     1     -10.449 -42.175  34.346  1.00  0.00     0.000 A 
ATOM     31  C   UNL     1      -7.138 -43.316  32.888  1.00  0.00     0.045 C 
ENDBRANCH  24  25
ENDBRANCH   4  24
TORSDOF 6
ENDMDL
MODEL 5
REMARK VINA RESULT:   -11.168      2.531     10.036
REMARK INTER + INTRA:         -15.703
REMARK INTER:                 -14.743
REMARK INTRA:                  -0.960
REMARK UNBOUND:                -0.617
REMARK SMILES COc1ccc2c(c1)CC[C@H](Cc1cc[n+](Cc3ccccc3C)cc1C(C)=O)C2=O
REMARK SMILES IDX 13 1 14 2 15 3 16 4 25 5 26 6 12 7 11 8 3 9 4 10 8 11 5 12
REMARK SMILES IDX 7 13 6 14 9 15 30 16 10 17 31 18 2 19 1 20 27 21 28 22 29 23
REMARK SMILES IDX 17 24 18 25 19 26 23 27 20 28 22 29 21 30 24 31
REMARK H PARENT
ROOT
ATOM      1  C   UNL     1     -15.881 -43.143  26.130  1.00  0.00    -0.025 A 
ATOM      2  C   UNL     1     -16.314 -43.066  27.462  1.00  0.00     0.075 A 
ATOM      3  C   UNL     1     -17.565 -42.543  27.775  1.00  0.00     0.308 A 
ATOM      4  N   UNL     1     -18.392 -42.110  26.795  1.00  0.00    -0.200 N 
ATOM      5  C   UNL     1     -18.001 -42.155  25.501  1.00  0.00     0.320 A 
ATOM      6  C   UNL     1     -16.742 -42.649  25.144  1.00  0.00     0.084 A 
ENDROOT
BRANCH   1   7
ATOM      7  C   UNL     1     -14.550 -43.812  25.855  1.00  0.00     0.048 C 
BRANCH   7   8
ATOM      8  C   UNL     1     -13.839 -44.346  27.119  1.00  0.00     0.066 C 
ATOM      9  C   UNL     1      -9.361 -45.028  29.681  1.00  0.00     0.119 A 
ATOM     10  C   UNL     1      -9.394 -43.680  29.321  1.00  0.00     0.047 A 
ATOM     11  C   UNL     1     -10.414 -45.864  29.303  1.00  0.00     0.050 A 
ATOM     12  C   UNL     1     -10.466 -43.164  28.593  1.00  0.00     0.016 A 
ATOM     13  C   UNL     1     -11.497 -45.362  28.556  1.00  0.00    -0.033 A 
ATOM     14  C   UNL     1     -11.521 -44.002  28.217  1.00  0.00     0.021 A 
ATOM     15  C   UNL     1     -12.626 -46.280  28.181  1.00  0.00     0.037 C 
ATOM     16  C   UNL     1     -12.665 -43.430  27.456  1.00  0.00     0.166 C 
ATOM     17  C   UNL     1     -13.356 -45.788  26.936  1.00  0.00     0.017 C 
ATOM     18  O   UNL     1     -12.675 -42.237  27.164  1.00  0.00    -0.294 OA
BRANCH   9  19
ATOM     19  O   UNL     1      -8.257 -45.397  30.397  1.00  0.00    -0.497 OA
ATOM     20  C   UNL     1      -8.369 -46.554  31.217  1.00  0.00     0.278 C 
ENDBRANCH   9  19
ENDBRANCH   7   8
ENDBRANCH   1   7
BRANCH   6  21
ATOM     21  C   UNL     1     -16.486 -42.670  23.692  1.00  0.00     0.166 C 
ATOM     22  C   UNL     1     -15.540 -41.676  23.081  1.00  0.00     0.094 C 
ATOM     23  O   UNL     1     -17.134 -43.475  23.030  1.00  0.00    -0.294 OA
ENDBRANCH   6  21
BRANCH   4  24
ATOM     24  C   UNL     1     -19.739 -41.587  27.147  1.00  0.00     0.393 C 
BRANCH  24  25
ATOM     25  C   UNL     1     -20.754 -41.958  26.092  1.00  0.00     0.020 A 
ATOM     26  C   UNL     1     -21.111 -40.994  25.128  1.00  0.00     0.010 A 
ATOM     27  C   UNL     1     -21.360 -43.234  26.042  1.00  0.00    -0.042 A 
ATOM     28  C   UNL     1     -22.029 -41.291  24.122  1.00  0.00     0.001 A 
ATOM     29  C   UNL     1     -22.283 -43.513  25.020  1.00  0.00     0.004 A 
ATOM     30  C   UNL     1     -22.611 -42.551  24.066  1.00  0.00     0.000 A 
ATOM     31  C   UNL     1     -21.073 -44.312  27.054  1.00  0.00     0.045 C 
ENDBRANCH  24  25
ENDBRANCH   4  24
TORSDOF 6
ENDMDL
MODEL 6
REMARK VINA RESULT:   -10.798      2.961     10.701
REMARK INTER + INTRA:         -15.203
REMARK INTER:                 -14.560
REMARK INTRA:                  -0.643
REMARK UNBOUND:                -0.617
REMARK SMILES COc1ccc2c(c1)CC[C@H](Cc1cc[n+](Cc3ccccc3C)cc1C(C)=O)C2=O
REMARK SMILES IDX 13 1 14 2 15 3 16 4 25 5 26 6 12 7 11 8 3 9 4 10 8 11 5 12
REMARK SMILES IDX 7 13 6 14 9 15 30 16 10 17 31 18 2 19 1 20 27 21 28 22 29 23
REMARK SMILES IDX 17 24 18 25 19 26 23 27 20 28 22 29 21 30 24 31
REMARK H PARENT
ROOT
ATOM      1  C   UNL     1     -16.744 -42.582  25.863  1.00  0.00    -0.025 A 
ATOM      2  C   UNL     1     -16.102 -42.761  24.630  1.00  0.00     0.075 A 
ATOM      3  C   UNL     1     -16.829 -42.777  23.443  1.00  0.00     0.308 A 
ATOM      4  N   UNL     1     -18.172 -42.609  23.460  1.00  0.00    -0.200 N 
ATOM      5  C   UNL     1     -18.826 -42.450  24.634  1.00  0.00     0.320 A 
ATOM      6  C   UNL     1     -18.137 -42.453  25.850  1.00  0.00     0.084 A 
ENDROOT
BRANCH   1   7
ATOM      7  C   UNL     1     -15.880 -42.478  27.103  1.00  0.00     0.048 C 
BRANCH   7   8
ATOM      8  C   UNL     1     -15.103 -43.770  27.442  1.00  0.00     0.066 C 
ATOM      9  C   UNL     1     -11.781 -46.187  30.635  1.00  0.00     0.119 A 
ATOM     10  C   UNL     1     -12.769 -45.639  31.454  1.00  0.00     0.047 A 
ATOM     11  C   UNL     1     -11.845 -45.984  29.255  1.00  0.00     0.050 A 
ATOM     12  C   UNL     1     -13.815 -44.897  30.908  1.00  0.00     0.016 A 
ATOM     13  C   UNL     1     -12.887 -45.225  28.689  1.00  0.00    -0.033 A 
ATOM     14  C   UNL     1     -13.879 -44.695  29.526  1.00  0.00     0.021 A 
ATOM     15  C   UNL     1     -12.942 -45.040  27.198  1.00  0.00     0.037 C 
ATOM     16  C   UNL     1     -15.013 -43.916  28.958  1.00  0.00     0.166 C 
ATOM     17  C   UNL     1     -13.703 -43.774  26.820  1.00  0.00     0.017 C 
ATOM     18  O   UNL     1     -15.876 -43.456  29.702  1.00  0.00    -0.294 OA
BRANCH   9  19
ATOM     19  O   UNL     1     -10.820 -46.896  31.300  1.00  0.00    -0.497 OA
ATOM     20  C   UNL     1      -9.463 -46.569  31.028  1.00  0.00     0.278 C 
ENDBRANCH   9  19
ENDBRANCH   7   8
ENDBRANCH   1   7
BRANCH   6  21
ATOM     21  C   UNL     1     -18.989 -42.226  27.032  1.00  0.00     0.166 C 
ATOM     22  C   UNL     1     -20.150 -41.276  26.952  1.00  0.00     0.094 C 
ATOM     23  O   UNL     1     -18.651 -42.787  28.070  1.00  0.00    -0.294 OA
ENDBRANCH   6  21
BRANCH   4  24
ATOM     24  C   UNL     1     -18.928 -42.594  22.180  1.00  0.00     0.393 C 
BRANCH  24  25
ATOM     25  C   UNL     1     -19.881 -41.423  22.129  1.00  0.00     0.020 A 
ATOM     26  C   UNL     1     -19.354 -40.131  21.933  1.00  0.00     0.010 A 
ATOM     27  C   UNL     1     -21.278 -41.578  22.275  1.00  0.00    -0.042 A 
ATOM     28  C   UNL     1     -20.191 -39.018  21.860  1.00  0.00     0.001 A 
ATOM     29  C   UNL     1     -22.104 -40.444  22.197  1.00  0.00     0.004 A 
ATOM     30  C   UNL     1     -21.565 -39.176  21.988  1.00  0.00     0.000 A 
ATOM     31  C   UNL     1     -21.926 -42.914  22.529  1.00  0.00     0.045 C 
ENDBRANCH  24  25
ENDBRANCH   4  24
TORSDOF 6
ENDMDL
MODEL 7
REMARK VINA RESULT:   -10.498      3.081      9.637
REMARK INTER + INTRA:         -14.798
REMARK INTER:                 -14.734
REMARK INTRA:                  -0.064
REMARK UNBOUND:                -0.617
REMARK SMILES COc1ccc2c(c1)CC[C@H](Cc1cc[n+](Cc3ccccc3C)cc1C(C)=O)C2=O
REMARK SMILES IDX 13 1 14 2 15 3 16 4 25 5 26 6 12 7 11 8 3 9 4 10 8 11 5 12
REMARK SMILES IDX 7 13 6 14 9 15 30 16 10 17 31 18 2 19 1 20 27 21 28 22 29 23
REMARK SMILES IDX 17 24 18 25 19 26 23 27 20 28 22 29 21 30 24 31
REMARK H PARENT
ROOT
ATOM      1  C   UNL     1     -13.128 -45.575  27.915  1.00  0.00    -0.025 A 
ATOM      2  C   UNL     1     -13.523 -45.164  26.634  1.00  0.00     0.075 A 
ATOM      3  C   UNL     1     -14.546 -44.234  26.468  1.00  0.00     0.308 A 
ATOM      4  N   UNL     1     -15.170 -43.702  27.544  1.00  0.00    -0.200 N 
ATOM      5  C   UNL     1     -14.825 -44.087  28.795  1.00  0.00     0.320 A 
ATOM      6  C   UNL     1     -13.821 -45.037  29.006  1.00  0.00     0.084 A 
ENDROOT
BRANCH   1   7
ATOM      7  C   UNL     1     -11.945 -46.514  28.023  1.00  0.00     0.048 C 
BRANCH   7   8
ATOM      8  C   UNL     1     -10.605 -45.811  28.334  1.00  0.00     0.066 C 
ATOM      9  C   UNL     1      -7.614 -43.419  31.856  1.00  0.00     0.119 A 
ATOM     10  C   UNL     1      -8.014 -44.619  32.446  1.00  0.00     0.047 A 
ATOM     11  C   UNL     1      -8.065 -43.103  30.573  1.00  0.00     0.050 A 
ATOM     12  C   UNL     1      -8.854 -45.501  31.766  1.00  0.00     0.016 A 
ATOM     13  C   UNL     1      -8.925 -43.975  29.879  1.00  0.00    -0.033 A 
ATOM     14  C   UNL     1      -9.304 -45.183  30.481  1.00  0.00     0.021 A 
ATOM     15  C   UNL     1      -9.378 -43.617  28.492  1.00  0.00     0.037 C 
ATOM     16  C   UNL     1     -10.185 -46.143  29.763  1.00  0.00     0.166 C 
ATOM     17  C   UNL     1     -10.700 -44.294  28.144  1.00  0.00     0.017 C 
ATOM     18  O   UNL     1     -10.511 -47.198  30.300  1.00  0.00    -0.294 OA
BRANCH   9  19
ATOM     19  O   UNL     1      -6.786 -42.655  32.630  1.00  0.00    -0.497 OA
ATOM     20  C   UNL     1      -5.868 -43.338  33.474  1.00  0.00     0.278 C 
ENDBRANCH   9  19
ENDBRANCH   7   8
ENDBRANCH   1   7
BRANCH   6  21
ATOM     21  C   UNL     1     -13.536 -45.316  30.425  1.00  0.00     0.166 C 
ATOM     22  C   UNL     1     -12.876 -44.272  31.280  1.00  0.00     0.094 C 
ATOM     23  O   UNL     1     -13.796 -46.446  30.827  1.00  0.00    -0.294 OA
ENDBRANCH   6  21
BRANCH   4  24
ATOM     24  C   UNL     1     -16.236 -42.684  27.348  1.00  0.00     0.393 C 
BRANCH  24  25
ATOM     25  C   UNL     1     -16.623 -42.580  25.892  1.00  0.00     0.020 A 
ATOM     26  C   UNL     1     -15.603 -42.562  24.921  1.00  0.00     0.010 A 
ATOM     27  C   UNL     1     -17.970 -42.496  25.472  1.00  0.00    -0.042 A 
ATOM     28  C   UNL     1     -15.906 -42.487  23.562  1.00  0.00     0.001 A 
ATOM     29  C   UNL     1     -18.254 -42.422  24.098  1.00  0.00     0.004 A 
ATOM     30  C   UNL     1     -17.231 -42.421  23.152  1.00  0.00     0.000 A 
ATOM     31  C   UNL     1     -19.124 -42.466  26.439  1.00  0.00     0.045 C 
ENDBRANCH  24  25
ENDBRANCH   4  24
TORSDOF 6
ENDMDL
MODEL 8
REMARK VINA RESULT:   -10.464      1.750      2.772
REMARK INTER + INTRA:         -14.751
REMARK INTER:                 -14.098
REMARK INTRA:                  -0.653
REMARK UNBOUND:                -0.617
REMARK SMILES COc1ccc2c(c1)CC[C@H](Cc1cc[n+](Cc3ccccc3C)cc1C(C)=O)C2=O
REMARK SMILES IDX 13 1 14 2 15 3 16 4 25 5 26 6 12 7 11 8 3 9 4 10 8 11 5 12
REMARK SMILES IDX 7 13 6 14 9 15 30 16 10 17 31 18 2 19 1 20 27 21 28 22 29 23
REMARK SMILES IDX 17 24 18 25 19 26 23 27 20 28 22 29 21 30 24 31
REMARK H PARENT
ROOT
ATOM      1  C   UNL     1     -12.868 -44.028  27.643  1.00  0.00    -0.025 A 
ATOM      2  C   UNL     1     -12.048 -43.075  27.023  1.00  0.00     0.075 A 
ATOM      3  C   UNL     1     -10.943 -42.547  27.685  1.00  0.00     0.308 A 
ATOM      4  N   UNL     1     -10.635 -42.955  28.937  1.00  0.00    -0.200 N 
ATOM      5  C   UNL     1     -11.413 -43.862  29.572  1.00  0.00     0.320 A 
ATOM      6  C   UNL     1     -12.546 -44.398  28.954  1.00  0.00     0.084 A 
ENDROOT
BRANCH   1   7
ATOM      7  C   UNL     1     -13.995 -44.630  26.829  1.00  0.00     0.048 C 
BRANCH   7   8
ATOM      8  C   UNL     1     -14.676 -43.636  25.862  1.00  0.00     0.066 C 
ATOM      9  C   UNL     1     -19.115 -41.772  23.889  1.00  0.00     0.119 A 
ATOM     10  C   UNL     1     -19.266 -41.731  25.276  1.00  0.00     0.047 A 
ATOM     11  C   UNL     1     -17.933 -42.278  23.343  1.00  0.00     0.050 A 
ATOM     12  C   UNL     1     -18.250 -42.186  26.116  1.00  0.00     0.016 A 
ATOM     13  C   UNL     1     -16.904 -42.755  24.177  1.00  0.00    -0.033 A 
ATOM     14  C   UNL     1     -17.067 -42.692  25.568  1.00  0.00     0.021 A 
ATOM     15  C   UNL     1     -15.636 -43.276  23.562  1.00  0.00     0.037 C 
ATOM     16  C   UNL     1     -15.987 -43.157  26.479  1.00  0.00     0.166 C 
ATOM     17  C   UNL     1     -14.930 -44.262  24.487  1.00  0.00     0.017 C 
ATOM     18  O   UNL     1     -16.141 -43.097  27.696  1.00  0.00    -0.294 OA
BRANCH   9  19
ATOM     19  O   UNL     1     -20.183 -41.288  23.187  1.00  0.00    -0.497 OA
ATOM     20  C   UNL     1     -20.047 -40.002  22.597  1.00  0.00     0.278 C 
ENDBRANCH   9  19
ENDBRANCH   7   8
ENDBRANCH   1   7
BRANCH   6  21
ATOM     21  C   UNL     1     -13.261 -45.403  29.762  1.00  0.00     0.166 C 
ATOM     22  C   UNL     1     -13.778 -45.044  31.126  1.00  0.00     0.094 C 
ATOM     23  O   UNL     1     -13.336 -46.535  29.292  1.00  0.00    -0.294 OA
ENDBRANCH   6  21
BRANCH   4  24
ATOM     24  C   UNL     1      -9.430 -42.406  29.615  1.00  0.00     0.393 C 
BRANCH  24  25
ATOM     25  C   UNL     1      -8.775 -43.452  30.485  1.00  0.00     0.020 A 
ATOM     26  C   UNL     1      -7.811 -44.303  29.910  1.00  0.00     0.010 A 
ATOM     27  C   UNL     1      -9.099 -43.610  31.851  1.00  0.00    -0.042 A 
ATOM     28  C   UNL     1      -7.163 -45.274  30.672  1.00  0.00     0.001 A 
ATOM     29  C   UNL     1      -8.435 -44.594  32.603  1.00  0.00     0.004 A 
ATOM     30  C   UNL     1      -7.473 -45.416  32.019  1.00  0.00     0.000 A 
ATOM     31  C   UNL     1     -10.147 -42.776  32.541  1.00  0.00     0.045 C 
ENDBRANCH  24  25
ENDBRANCH   4  24
TORSDOF 6
ENDMDL
MODEL 9
REMARK VINA RESULT:   -10.369      1.941      3.367
REMARK INTER + INTRA:         -14.623
REMARK INTER:                 -13.538
REMARK INTRA:                  -1.084
REMARK UNBOUND:                -0.617
REMARK SMILES COc1ccc2c(c1)CC[C@H](Cc1cc[n+](Cc3ccccc3C)cc1C(C)=O)C2=O
REMARK SMILES IDX 13 1 14 2 15 3 16 4 25 5 26 6 12 7 11 8 3 9 4 10 8 11 5 12
REMARK SMILES IDX 7 13 6 14 9 15 30 16 10 17 31 18 2 19 1 20 27 21 28 22 29 23
REMARK SMILES IDX 17 24 18 25 19 26 23 27 20 28 22 29 21 30 24 31
REMARK H PARENT
ROOT
ATOM      1  C   UNL     1     -15.294 -43.353  26.995  1.00  0.00    -0.025 A 
ATOM      2  C   UNL     1     -15.253 -43.696  28.355  1.00  0.00     0.075 A 
ATOM      3  C   UNL     1     -14.389 -44.686  28.814  1.00  0.00     0.308 A 
ATOM      4  N   UNL     1     -13.564 -45.328  27.955  1.00  0.00    -0.200 N 
ATOM      5  C   UNL     1     -13.588 -45.034  26.635  1.00  0.00     0.320 A 
ATOM      6  C   UNL     1     -14.458 -44.064  26.127  1.00  0.00     0.084 A 
ENDROOT
BRANCH   1   7
ATOM      7  C   UNL     1     -16.186 -42.201  26.583  1.00  0.00     0.048 C 
BRANCH   7   8
ATOM      8  C   UNL     1     -17.649 -42.607  26.295  1.00  0.00     0.066 C 
ATOM      9  C   UNL     1     -22.159 -41.431  23.982  1.00  0.00     0.119 A 
ATOM     10  C   UNL     1     -21.180 -41.310  22.995  1.00  0.00     0.047 A 
ATOM     11  C   UNL     1     -21.783 -41.782  25.280  1.00  0.00     0.050 A 
ATOM     12  C   UNL     1     -19.837 -41.540  23.293  1.00  0.00     0.016 A 
ATOM     13  C   UNL     1     -20.430 -42.003  25.601  1.00  0.00    -0.033 A 
ATOM     14  C   UNL     1     -19.462 -41.893  24.593  1.00  0.00     0.021 A 
ATOM     15  C   UNL     1     -20.058 -42.400  27.001  1.00  0.00     0.037 C 
ATOM     16  C   UNL     1     -18.027 -42.151  24.889  1.00  0.00     0.166 C 
ATOM     17  C   UNL     1     -18.617 -42.017  27.326  1.00  0.00     0.017 C 
ATOM     18  O   UNL     1     -17.188 -42.051  23.997  1.00  0.00    -0.294 OA
BRANCH   9  19
ATOM     19  O   UNL     1     -23.433 -41.185  23.551  1.00  0.00    -0.497 OA
ATOM     20  C   UNL     1     -24.039 -42.164  22.716  1.00  0.00     0.278 C 
ENDBRANCH   9  19
ENDBRANCH   7   8
ENDBRANCH   1   7
BRANCH   6  21
ATOM     21  C   UNL     1     -14.332 -43.833  24.677  1.00  0.00     0.166 C 
ATOM     22  C   UNL     1     -14.851 -44.853  23.703  1.00  0.00     0.094 C 
ATOM     23  O   UNL     1     -13.727 -42.822  24.331  1.00  0.00    -0.294 OA
ENDBRANCH   6  21
BRANCH   4  24
ATOM     24  C   UNL     1     -12.623 -46.359  28.470  1.00  0.00     0.393 C 
BRANCH  24  25
ATOM     25  C   UNL     1     -11.614 -45.747  29.412  1.00  0.00     0.020 A 
ATOM     26  C   UNL     1     -10.437 -45.189  28.873  1.00  0.00     0.010 A 
ATOM     27  C   UNL     1     -11.806 -45.719  30.811  1.00  0.00    -0.042 A 
ATOM     28  C   UNL     1      -9.482 -44.595  29.696  1.00  0.00     0.001 A 
ATOM     29  C   UNL     1     -10.832 -45.115  31.624  1.00  0.00     0.004 A 
ATOM     30  C   UNL     1      -9.682 -44.555  31.070  1.00  0.00     0.000 A 
ATOM     31  C   UNL     1     -13.011 -46.327  31.480  1.00  0.00     0.045 C 
ENDBRANCH  24  25
ENDBRANCH   4  24
TORSDOF 6
ENDMDL
