MODEL 1
REMARK VINA RESULT:   -11.205      0.000      0.000
REMARK INTER + INTRA:         -15.817
REMARK INTER:                 -15.135
REMARK INTRA:                  -0.682
REMARK UNBOUND:                -0.682
REMARK SMILES COc1ccc2c(CC[C@H]3CC[N@@H+](Cc4ccccc4)CC3)noc2c1
REMARK SMILES IDX 9 1 10 2 12 3 13 4 11 5 21 6 22 7 14 9 15 10 16 11 20 12
REMARK SMILES IDX 17 13 19 14 18 15 8 16 7 17 6 18 23 19 5 20 25 21 24 22 4 23
REMARK SMILES IDX 26 24 3 25 2 26 1 27
REMARK H PARENT 13 8
ROOT
ATOM      1  C   UNL     1     -10.143 -46.140  30.293  1.00  0.00     0.010 C 
ENDROOT
BRANCH   1   2
ATOM      2  C   UNL     1     -10.139 -45.811  28.779  1.00  0.00     0.000 C 
ATOM      3  C   UNL     1     -12.609 -46.210  28.246  1.00  0.00     0.262 C 
ATOM      4  N   UNL     1     -12.744 -44.752  27.894  1.00  0.00    -0.331 N 
ATOM      5  C   UNL     1     -11.173 -46.664  28.024  1.00  0.00     0.065 C 
ATOM      6  C   UNL     1     -11.805 -43.877  28.693  1.00  0.00     0.262 C 
ATOM      7  C   UNL     1     -10.371 -44.328  28.455  1.00  0.00     0.065 C 
ATOM      8  H   UNL     1     -12.478 -44.643  26.907  1.00  0.00     0.348 HD
BRANCH   4   9
ATOM      9  C   UNL     1     -14.187 -44.294  27.984  1.00  0.00     0.299 C 
BRANCH   9  10
ATOM     10  C   UNL     1     -14.766 -43.903  26.653  1.00  0.00     0.006 A 
ATOM     11  C   UNL     1     -15.803 -42.960  26.573  1.00  0.00     0.009 A 
ATOM     12  C   UNL     1     -14.265 -44.463  25.466  1.00  0.00     0.009 A 
ATOM     13  C   UNL     1     -16.320 -42.581  25.334  1.00  0.00     0.001 A 
ATOM     14  C   UNL     1     -14.786 -44.081  24.229  1.00  0.00     0.001 A 
ATOM     15  C   UNL     1     -15.810 -43.139  24.164  1.00  0.00     0.000 A 
ENDBRANCH   9  10
ENDBRANCH   4   9
ENDBRANCH   1   2
BRANCH   1  16
ATOM     16  C   UNL     1      -8.984 -45.556  31.115  1.00  0.00     0.061 C 
BRANCH  16  17
ATOM     17  C   UNL     1      -9.383 -44.428  32.000  1.00  0.00     0.091 A 
ATOM     18  C   UNL     1     -10.685 -43.961  32.312  1.00  0.00     0.045 A 
ATOM     19  N   UNL     1      -8.439 -43.713  32.627  1.00  0.00    -0.084 NA
ATOM     20  C   UNL     1     -12.010 -44.286  31.981  1.00  0.00     0.018 A 
ATOM     21  C   UNL     1     -10.458 -42.910  33.181  1.00  0.00     0.170 A 
ATOM     22  O   UNL     1      -9.120 -42.761  33.369  1.00  0.00    -0.356 OA
ATOM     23  C   UNL     1     -13.050 -43.526  32.548  1.00  0.00     0.047 A 
ATOM     24  C   UNL     1     -11.462 -42.140  33.760  1.00  0.00     0.097 A 
ATOM     25  C   UNL     1     -12.781 -42.468  33.425  1.00  0.00     0.122 A 
BRANCH  25  26
ATOM     26  O   UNL     1     -13.720 -41.674  34.028  1.00  0.00    -0.497 OA
ATOM     27  C   UNL     1     -15.006 -41.610  33.424  1.00  0.00     0.278 C 
ENDBRANCH  25  26
ENDBRANCH  16  17
ENDBRANCH   1  16
TORSDOF 6
ENDMDL
MODEL 2
REMARK VINA RESULT:   -10.984      3.791      8.816
REMARK INTER + INTRA:         -15.518
REMARK INTER:                 -14.800
REMARK INTRA:                  -0.718
REMARK UNBOUND:                -0.682
REMARK SMILES COc1ccc2c(CC[C@H]3CC[N@@H+](Cc4ccccc4)CC3)noc2c1
REMARK SMILES IDX 9 1 10 2 12 3 13 4 11 5 21 6 22 7 14 9 15 10 16 11 20 12
REMARK SMILES IDX 17 13 19 14 18 15 8 16 7 17 6 18 23 19 5 20 25 21 24 22 4 23
REMARK SMILES IDX 26 24 3 25 2 26 1 27
REMARK H PARENT 13 8
ROOT
ATOM      1  C   UNL     1     -14.231 -44.283  27.392  1.00  0.00     0.010 C 
ENDROOT
BRANCH   1   2
ATOM      2  C   UNL     1     -12.853 -44.987  27.310  1.00  0.00     0.000 C 
ATOM      3  C   UNL     1     -11.695 -43.896  29.314  1.00  0.00     0.262 C 
ATOM      4  N   UNL     1     -11.612 -45.248  29.972  1.00  0.00    -0.331 N 
ATOM      5  C   UNL     1     -11.727 -44.059  27.801  1.00  0.00     0.065 C 
ATOM      6  C   UNL     1     -12.761 -46.150  29.583  1.00  0.00     0.262 C 
ATOM      7  C   UNL     1     -12.779 -46.319  28.071  1.00  0.00     0.065 C 
ATOM      8  H   UNL     1     -10.754 -45.706  29.638  1.00  0.00     0.348 HD
BRANCH   4   9
ATOM      9  C   UNL     1     -11.452 -45.122  31.475  1.00  0.00     0.299 C 
BRANCH   9  10
ATOM     10  C   UNL     1     -10.068 -44.705  31.889  1.00  0.00     0.006 A 
ATOM     11  C   UNL     1      -8.951 -45.473  31.524  1.00  0.00     0.009 A 
ATOM     12  C   UNL     1      -9.871 -43.529  32.632  1.00  0.00     0.009 A 
ATOM     13  C   UNL     1      -7.666 -45.068  31.887  1.00  0.00     0.001 A 
ATOM     14  C   UNL     1      -8.584 -43.129  32.993  1.00  0.00     0.001 A 
ATOM     15  C   UNL     1      -7.483 -43.897  32.619  1.00  0.00     0.000 A 
ENDBRANCH   9  10
ENDBRANCH   4   9
ENDBRANCH   1   2
BRANCH   1  16
ATOM     16  C   UNL     1     -14.320 -42.895  26.739  1.00  0.00     0.061 C 
BRANCH  16  17
ATOM     17  C   UNL     1     -15.029 -42.890  25.431  1.00  0.00     0.091 A 
ATOM     18  C   UNL     1     -16.409 -42.695  25.169  1.00  0.00     0.045 A 
ATOM     19  N   UNL     1     -14.334 -43.084  24.302  1.00  0.00    -0.084 NA
ATOM     20  C   UNL     1     -17.580 -42.457  25.905  1.00  0.00     0.018 A 
ATOM     21  C   UNL     1     -16.497 -42.781  23.792  1.00  0.00     0.170 A 
ATOM     22  O   UNL     1     -15.262 -43.013  23.274  1.00  0.00    -0.356 OA
ATOM     23  C   UNL     1     -18.795 -42.318  25.207  1.00  0.00     0.047 A 
ATOM     24  C   UNL     1     -17.680 -42.647  23.072  1.00  0.00     0.097 A 
ATOM     25  C   UNL     1     -18.845 -42.411  23.811  1.00  0.00     0.122 A 
BRANCH  25  26
ATOM     26  O   UNL     1     -19.973 -42.288  23.044  1.00  0.00    -0.497 OA
ATOM     27  C   UNL     1     -19.940 -41.342  21.981  1.00  0.00     0.278 C 
ENDBRANCH  25  26
ENDBRANCH  16  17
ENDBRANCH   1  16
TORSDOF 6
ENDMDL
MODEL 3
REMARK VINA RESULT:   -10.929      2.890      8.008
REMARK INTER + INTRA:         -15.444
REMARK INTER:                 -14.708
REMARK INTRA:                  -0.736
REMARK UNBOUND:                -0.682
REMARK SMILES COc1ccc2c(CC[C@H]3CC[N@@H+](Cc4ccccc4)CC3)noc2c1
REMARK SMILES IDX 9 1 10 2 12 3 13 4 11 5 21 6 22 7 14 9 15 10 16 11 20 12
REMARK SMILES IDX 17 13 19 14 18 15 8 16 7 17 6 18 23 19 5 20 25 21 24 22 4 23
REMARK SMILES IDX 26 24 3 25 2 26 1 27
REMARK H PARENT 13 8
ROOT
ATOM      1  C   UNL     1     -12.425 -46.373  28.323  1.00  0.00     0.010 C 
ENDROOT
BRANCH   1   2
ATOM      2  C   UNL     1     -10.985 -46.048  28.793  1.00  0.00     0.000 C 
ATOM      3  C   UNL     1     -11.319 -43.628  29.553  1.00  0.00     0.262 C 
ATOM      4  N   UNL     1     -10.980 -44.047  30.959  1.00  0.00    -0.331 N 
ATOM      5  C   UNL     1     -10.648 -44.565  28.558  1.00  0.00     0.065 C 
ATOM      6  C   UNL     1     -11.389 -45.473  31.249  1.00  0.00     0.262 C 
ATOM      7  C   UNL     1     -10.704 -46.405  30.260  1.00  0.00     0.065 C 
ATOM      8  H   UNL     1      -9.957 -44.009  31.058  1.00  0.00     0.348 HD
BRANCH   4   9
ATOM      9  C   UNL     1     -11.528 -43.064  31.975  1.00  0.00     0.299 C 
BRANCH   9  10
ATOM     10  C   UNL     1     -10.536 -42.707  33.047  1.00  0.00     0.006 A 
ATOM     11  C   UNL     1     -10.948 -42.035  34.208  1.00  0.00     0.009 A 
ATOM     12  C   UNL     1      -9.183 -43.058  32.909  1.00  0.00     0.009 A 
ATOM     13  C   UNL     1     -10.029 -41.730  35.212  1.00  0.00     0.001 A 
ATOM     14  C   UNL     1      -8.267 -42.750  33.916  1.00  0.00     0.001 A 
ATOM     15  C   UNL     1      -8.690 -42.088  35.067  1.00  0.00     0.000 A 
ENDBRANCH   9  10
ENDBRANCH   4   9
ENDBRANCH   1   2
BRANCH   1  16
ATOM     16  C   UNL     1     -12.801 -45.890  26.914  1.00  0.00     0.061 C 
BRANCH  16  17
ATOM     17  C   UNL     1     -13.872 -44.857  26.898  1.00  0.00     0.091 A 
ATOM     18  C   UNL     1     -14.557 -44.304  25.788  1.00  0.00     0.045 A 
ATOM     19  N   UNL     1     -14.304 -44.336  28.055  1.00  0.00    -0.084 NA
ATOM     20  C   UNL     1     -14.549 -44.442  24.391  1.00  0.00     0.018 A 
ATOM     21  C   UNL     1     -15.443 -43.410  26.360  1.00  0.00     0.170 A 
ATOM     22  O   UNL     1     -15.293 -43.427  27.711  1.00  0.00    -0.356 OA
ATOM     23  C   UNL     1     -15.443 -43.661  23.634  1.00  0.00     0.047 A 
ATOM     24  C   UNL     1     -16.339 -42.625  25.642  1.00  0.00     0.097 A 
ATOM     25  C   UNL     1     -16.325 -42.765  24.249  1.00  0.00     0.122 A 
BRANCH  25  26
ATOM     26  O   UNL     1     -17.230 -41.967  23.602  1.00  0.00    -0.497 OA
ATOM     27  C   UNL     1     -16.777 -41.268  22.448  1.00  0.00     0.278 C 
ENDBRANCH  25  26
ENDBRANCH  16  17
ENDBRANCH   1  16
TORSDOF 6
ENDMDL
MODEL 4
REMARK VINA RESULT:   -10.727      3.534      8.080
REMARK INTER + INTRA:         -15.172
REMARK INTER:                 -14.820
REMARK INTRA:                  -0.352
REMARK UNBOUND:                -0.682
REMARK SMILES COc1ccc2c(CC[C@H]3CC[N@@H+](Cc4ccccc4)CC3)noc2c1
REMARK SMILES IDX 9 1 10 2 12 3 13 4 11 5 21 6 22 7 14 9 15 10 16 11 20 12
REMARK SMILES IDX 17 13 19 14 18 15 8 16 7 17 6 18 23 19 5 20 25 21 24 22 4 23
REMARK SMILES IDX 26 24 3 25 2 26 1 27
REMARK H PARENT 13 8
ROOT
ATOM      1  C   UNL     1     -13.757 -44.147  27.411  1.00  0.00     0.010 C 
ENDROOT
BRANCH   1   2
ATOM      2  C   UNL     1     -12.659 -45.218  27.632  1.00  0.00     0.000 C 
ATOM      3  C   UNL     1     -11.268 -44.043  29.429  1.00  0.00     0.262 C 
ATOM      4  N   UNL     1     -11.618 -45.149  30.390  1.00  0.00    -0.331 N 
ATOM      5  C   UNL     1     -11.315 -44.566  28.000  1.00  0.00     0.065 C 
ATOM      6  C   UNL     1     -12.979 -45.744  30.111  1.00  0.00     0.262 C 
ATOM      7  C   UNL     1     -13.014 -46.277  28.686  1.00  0.00     0.065 C 
ATOM      8  H   UNL     1     -10.935 -45.905  30.257  1.00  0.00     0.348 HD
BRANCH   4   9
ATOM      9  C   UNL     1     -11.461 -44.699  31.829  1.00  0.00     0.299 C 
BRANCH   9  10
ATOM     10  C   UNL     1     -10.051 -44.311  32.176  1.00  0.00     0.006 A 
ATOM     11  C   UNL     1      -9.795 -43.182  32.970  1.00  0.00     0.009 A 
ATOM     12  C   UNL     1      -8.968 -45.084  31.726  1.00  0.00     0.009 A 
ATOM     13  C   UNL     1      -8.486 -42.840  33.312  1.00  0.00     0.001 A 
ATOM     14  C   UNL     1      -7.661 -44.738  32.070  1.00  0.00     0.001 A 
ATOM     15  C   UNL     1      -7.421 -43.618  32.864  1.00  0.00     0.000 A 
ENDBRANCH   9  10
ENDBRANCH   4   9
ENDBRANCH   1   2
BRANCH   1  16
ATOM     16  C   UNL     1     -13.818 -43.522  26.009  1.00  0.00     0.061 C 
BRANCH  16  17
ATOM     17  C   UNL     1     -15.195 -43.166  25.570  1.00  0.00     0.091 A 
ATOM     18  C   UNL     1     -16.318 -42.818  26.362  1.00  0.00     0.045 A 
ATOM     19  N   UNL     1     -15.486 -43.142  24.262  1.00  0.00    -0.084 NA
ATOM     20  C   UNL     1     -16.621 -42.673  27.725  1.00  0.00     0.018 A 
ATOM     21  C   UNL     1     -17.313 -42.577  25.433  1.00  0.00     0.170 A 
ATOM     22  O   UNL     1     -16.819 -42.770  24.181  1.00  0.00    -0.356 OA
ATOM     23  C   UNL     1     -17.926 -42.291  28.086  1.00  0.00     0.047 A 
ATOM     24  C   UNL     1     -18.612 -42.196  25.756  1.00  0.00     0.097 A 
ATOM     25  C   UNL     1     -18.908 -42.056  27.116  1.00  0.00     0.122 A 
BRANCH  25  26
ATOM     26  O   UNL     1     -20.201 -41.679  27.366  1.00  0.00    -0.497 OA
ATOM     27  C   UNL     1     -20.941 -41.124  26.285  1.00  0.00     0.278 C 
ENDBRANCH  25  26
ENDBRANCH  16  17
ENDBRANCH   1  16
TORSDOF 6
ENDMDL
MODEL 5
REMARK VINA RESULT:   -10.659      2.616      7.058
REMARK INTER + INTRA:         -15.080
REMARK INTER:                 -15.058
REMARK INTRA:                  -0.022
REMARK UNBOUND:                -0.682
REMARK SMILES COc1ccc2c(CC[C@H]3CC[N@@H+](Cc4ccccc4)CC3)noc2c1
REMARK SMILES IDX 9 1 10 2 12 3 13 4 11 5 21 6 22 7 14 9 15 10 16 11 20 12
REMARK SMILES IDX 17 13 19 14 18 15 8 16 7 17 6 18 23 19 5 20 25 21 24 22 4 23
REMARK SMILES IDX 26 24 3 25 2 26 1 27
REMARK H PARENT 13 8
ROOT
ATOM      1  C   UNL     1     -11.884 -46.409  28.642  1.00  0.00     0.010 C 
ENDROOT
BRANCH   1   2
ATOM      2  C   UNL     1     -10.402 -45.964  28.722  1.00  0.00     0.000 C 
ATOM      3  C   UNL     1     -10.696 -43.709  29.894  1.00  0.00     0.262 C 
ATOM      4  N   UNL     1      -9.916 -44.243  31.067  1.00  0.00    -0.331 N 
ATOM      5  C   UNL     1     -10.278 -44.433  28.622  1.00  0.00     0.065 C 
ATOM      6  C   UNL     1     -10.096 -45.732  31.247  1.00  0.00     0.262 C 
ATOM      7  C   UNL     1      -9.664 -46.451  29.978  1.00  0.00     0.065 C 
ATOM      8  H   UNL     1      -8.918 -44.090  30.873  1.00  0.00     0.348 HD
BRANCH   4   9
ATOM      9  C   UNL     1     -10.214 -43.460  32.331  1.00  0.00     0.299 C 
BRANCH   9  10
ATOM     10  C   UNL     1     -11.685 -43.339  32.616  1.00  0.00     0.006 A 
ATOM     11  C   UNL     1     -12.158 -42.395  33.541  1.00  0.00     0.009 A 
ATOM     12  C   UNL     1     -12.611 -44.156  31.946  1.00  0.00     0.009 A 
ATOM     13  C   UNL     1     -13.526 -42.267  33.784  1.00  0.00     0.001 A 
ATOM     14  C   UNL     1     -13.978 -44.024  32.192  1.00  0.00     0.001 A 
ATOM     15  C   UNL     1     -14.435 -43.079  33.108  1.00  0.00     0.000 A 
ENDBRANCH   9  10
ENDBRANCH   4   9
ENDBRANCH   1   2
BRANCH   1  16
ATOM     16  C   UNL     1     -12.578 -46.205  27.286  1.00  0.00     0.061 C 
BRANCH  16  17
ATOM     17  C   UNL     1     -13.594 -45.117  27.289  1.00  0.00     0.091 A 
ATOM     18  C   UNL     1     -14.291 -44.549  26.193  1.00  0.00     0.045 A 
ATOM     19  N   UNL     1     -13.955 -44.554  28.450  1.00  0.00    -0.084 NA
ATOM     20  C   UNL     1     -14.341 -44.712  24.799  1.00  0.00     0.018 A 
ATOM     21  C   UNL     1     -15.107 -43.600  26.779  1.00  0.00     0.170 A 
ATOM     22  O   UNL     1     -14.908 -43.601  28.124  1.00  0.00    -0.356 OA
ATOM     23  C   UNL     1     -15.221 -43.899  24.060  1.00  0.00     0.047 A 
ATOM     24  C   UNL     1     -15.988 -42.782  26.078  1.00  0.00     0.097 A 
ATOM     25  C   UNL     1     -16.032 -42.948  24.689  1.00  0.00     0.122 A 
BRANCH  25  26
ATOM     26  O   UNL     1     -16.919 -42.114  24.059  1.00  0.00    -0.497 OA
ATOM     27  C   UNL     1     -16.550 -41.617  22.779  1.00  0.00     0.278 C 
ENDBRANCH  25  26
ENDBRANCH  16  17
ENDBRANCH   1  16
TORSDOF 6
ENDMDL
MODEL 6
REMARK VINA RESULT:   -10.372      3.228      5.793
REMARK INTER + INTRA:         -14.692
REMARK INTER:                 -13.872
REMARK INTRA:                  -0.820
REMARK UNBOUND:                -0.682
REMARK SMILES COc1ccc2c(CC[C@H]3CC[N@@H+](Cc4ccccc4)CC3)noc2c1
REMARK SMILES IDX 9 1 10 2 12 3 13 4 11 5 21 6 22 7 14 9 15 10 16 11 20 12
REMARK SMILES IDX 17 13 19 14 18 15 8 16 7 17 6 18 23 19 5 20 25 21 24 22 4 23
REMARK SMILES IDX 26 24 3 25 2 26 1 27
REMARK H PARENT 13 8
ROOT
ATOM      1  C   UNL     1     -14.006 -44.566  26.065  1.00  0.00     0.010 C 
ENDROOT
BRANCH   1   2
ATOM      2  C   UNL     1     -14.149 -43.122  25.520  1.00  0.00     0.000 C 
ATOM      3  C   UNL     1     -16.040 -43.485  23.835  1.00  0.00     0.262 C 
ATOM      4  N   UNL     1     -16.909 -42.563  24.649  1.00  0.00    -0.331 N 
ATOM      5  C   UNL     1     -14.574 -43.128  24.042  1.00  0.00     0.065 C 
ATOM      6  C   UNL     1     -16.577 -42.609  26.122  1.00  0.00     0.262 C 
ATOM      7  C   UNL     1     -15.115 -42.238  26.322  1.00  0.00     0.065 C 
ATOM      8  H   UNL     1     -16.722 -41.601  24.336  1.00  0.00     0.348 HD
BRANCH   4   9
ATOM      9  C   UNL     1     -18.380 -42.806  24.373  1.00  0.00     0.299 C 
BRANCH   9  10
ATOM     10  C   UNL     1     -19.020 -41.710  23.567  1.00  0.00     0.006 A 
ATOM     11  C   UNL     1     -20.271 -41.190  23.932  1.00  0.00     0.009 A 
ATOM     12  C   UNL     1     -18.365 -41.178  22.444  1.00  0.00     0.009 A 
ATOM     13  C   UNL     1     -20.848 -40.155  23.197  1.00  0.00     0.001 A 
ATOM     14  C   UNL     1     -18.946 -40.143  21.711  1.00  0.00     0.001 A 
ATOM     15  C   UNL     1     -20.186 -39.630  22.089  1.00  0.00     0.000 A 
ENDBRANCH   9  10
ENDBRANCH   4   9
ENDBRANCH   1   2
BRANCH   1  16
ATOM     16  C   UNL     1     -14.192 -44.737  27.581  1.00  0.00     0.061 C 
BRANCH  16  17
ATOM     17  C   UNL     1     -12.927 -45.017  28.313  1.00  0.00     0.091 A 
ATOM     18  C   UNL     1     -11.790 -44.186  28.474  1.00  0.00     0.045 A 
ATOM     19  N   UNL     1     -12.772 -46.193  28.938  1.00  0.00    -0.084 NA
ATOM     20  C   UNL     1     -11.378 -42.905  28.074  1.00  0.00     0.018 A 
ATOM     21  C   UNL     1     -10.934 -44.946  29.247  1.00  0.00     0.170 A 
ATOM     22  O   UNL     1     -11.516 -46.142  29.524  1.00  0.00    -0.356 OA
ATOM     23  C   UNL     1     -10.108 -42.451  28.479  1.00  0.00     0.047 A 
ATOM     24  C   UNL     1      -9.674 -44.528  29.665  1.00  0.00     0.097 A 
ATOM     25  C   UNL     1      -9.268 -43.251  29.263  1.00  0.00     0.122 A 
BRANCH  25  26
ATOM     26  O   UNL     1      -8.021 -42.899  29.707  1.00  0.00    -0.497 OA
ATOM     27  C   UNL     1      -7.541 -43.542  30.882  1.00  0.00     0.278 C 
ENDBRANCH  25  26
ENDBRANCH  16  17
ENDBRANCH   1  16
TORSDOF 6
ENDMDL
MODEL 7
REMARK VINA RESULT:   -10.288      3.439      8.681
REMARK INTER + INTRA:         -14.579
REMARK INTER:                 -14.245
REMARK INTRA:                  -0.334
REMARK UNBOUND:                -0.682
REMARK SMILES COc1ccc2c(CC[C@H]3CC[N@@H+](Cc4ccccc4)CC3)noc2c1
REMARK SMILES IDX 9 1 10 2 12 3 13 4 11 5 21 6 22 7 14 9 15 10 16 11 20 12
REMARK SMILES IDX 17 13 19 14 18 15 8 16 7 17 6 18 23 19 5 20 25 21 24 22 4 23
REMARK SMILES IDX 26 24 3 25 2 26 1 27
REMARK H PARENT 13 8
ROOT
ATOM      1  C   UNL     1     -13.297 -43.937  27.452  1.00  0.00     0.010 C 
ENDROOT
BRANCH   1   2
ATOM      2  C   UNL     1     -12.476 -45.216  27.754  1.00  0.00     0.000 C 
ATOM      3  C   UNL     1     -10.846 -44.279  29.489  1.00  0.00     0.262 C 
ATOM      4  N   UNL     1     -11.440 -45.209  30.514  1.00  0.00    -0.331 N 
ATOM      5  C   UNL     1     -11.017 -44.870  28.096  1.00  0.00     0.065 C 
ATOM      6  C   UNL     1     -12.902 -45.491  30.257  1.00  0.00     0.262 C 
ATOM      7  C   UNL     1     -13.064 -46.093  28.870  1.00  0.00     0.065 C 
ATOM      8  H   UNL     1     -10.950 -46.110  30.439  1.00  0.00     0.348 HD
BRANCH   4   9
ATOM      9  C   UNL     1     -11.179 -44.715  31.924  1.00  0.00     0.299 C 
BRANCH   9  10
ATOM     10  C   UNL     1      -9.725 -44.442  32.195  1.00  0.00     0.006 A 
ATOM     11  C   UNL     1      -8.733 -45.308  31.709  1.00  0.00     0.009 A 
ATOM     12  C   UNL     1      -9.338 -43.305  32.922  1.00  0.00     0.009 A 
ATOM     13  C   UNL     1      -7.384 -45.036  31.940  1.00  0.00     0.001 A 
ATOM     14  C   UNL     1      -7.988 -43.038  33.150  1.00  0.00     0.001 A 
ATOM     15  C   UNL     1      -7.012 -43.901  32.658  1.00  0.00     0.000 A 
ENDBRANCH   9  10
ENDBRANCH   4   9
ENDBRANCH   1   2
BRANCH   1  16
ATOM     16  C   UNL     1     -14.081 -43.934  26.130  1.00  0.00     0.061 C 
BRANCH  16  17
ATOM     17  C   UNL     1     -15.429 -43.311  26.233  1.00  0.00     0.091 A 
ATOM     18  C   UNL     1     -16.335 -42.977  25.195  1.00  0.00     0.045 A 
ATOM     19  N   UNL     1     -15.924 -43.003  27.440  1.00  0.00    -0.084 NA
ATOM     20  C   UNL     1     -16.381 -43.055  23.794  1.00  0.00     0.018 A 
ATOM     21  C   UNL     1     -17.421 -42.445  25.865  1.00  0.00     0.170 A 
ATOM     22  O   UNL     1     -17.178 -42.460  27.202  1.00  0.00    -0.356 OA
ATOM     23  C   UNL     1     -17.532 -42.586  23.133  1.00  0.00     0.047 A 
ATOM     24  C   UNL     1     -18.573 -41.975  25.243  1.00  0.00     0.097 A 
ATOM     25  C   UNL     1     -18.613 -42.054  23.846  1.00  0.00     0.122 A 
BRANCH  25  26
ATOM     26  O   UNL     1     -19.773 -41.577  23.296  1.00  0.00    -0.497 OA
ATOM     27  C   UNL     1     -20.681 -42.530  22.758  1.00  0.00     0.278 C 
ENDBRANCH  25  26
ENDBRANCH  16  17
ENDBRANCH   1  16
TORSDOF 6
ENDMDL
MODEL 8
REMARK VINA RESULT:    -9.730      3.078      5.770
REMARK INTER + INTRA:         -13.825
REMARK INTER:                 -13.330
REMARK INTRA:                  -0.495
REMARK UNBOUND:                -0.682
REMARK SMILES COc1ccc2c(CC[C@H]3CC[N@@H+](Cc4ccccc4)CC3)noc2c1
REMARK SMILES IDX 9 1 10 2 12 3 13 4 11 5 21 6 22 7 14 9 15 10 16 11 20 12
REMARK SMILES IDX 17 13 19 14 18 15 8 16 7 17 6 18 23 19 5 20 25 21 24 22 4 23
REMARK SMILES IDX 26 24 3 25 2 26 1 27
REMARK H PARENT 13 8
ROOT
ATOM      1  C   UNL     1     -14.828 -44.215  27.223  1.00  0.00     0.010 C 
ENDROOT
BRANCH   1   2
ATOM      2  C   UNL     1     -15.118 -42.722  26.927  1.00  0.00     0.000 C 
ATOM      3  C   UNL     1     -16.139 -42.937  24.592  1.00  0.00     0.262 C 
ATOM      4  N   UNL     1     -17.438 -42.404  25.136  1.00  0.00    -0.331 N 
ATOM      5  C   UNL     1     -14.976 -42.417  25.426  1.00  0.00     0.065 C 
ATOM      6  C   UNL     1     -17.648 -42.771  26.587  1.00  0.00     0.262 C 
ATOM      7  C   UNL     1     -16.490 -42.237  27.416  1.00  0.00     0.065 C 
ATOM      8  H   UNL     1     -17.394 -41.377  25.097  1.00  0.00     0.348 HD
BRANCH   4   9
ATOM      9  C   UNL     1     -18.608 -42.799  24.257  1.00  0.00     0.299 C 
BRANCH   9  10
ATOM     10  C   UNL     1     -19.183 -41.645  23.484  1.00  0.00     0.006 A 
ATOM     11  C   UNL     1     -18.513 -41.130  22.363  1.00  0.00     0.009 A 
ATOM     12  C   UNL     1     -20.411 -41.076  23.862  1.00  0.00     0.009 A 
ATOM     13  C   UNL     1     -19.063 -40.076  21.633  1.00  0.00     0.001 A 
ATOM     14  C   UNL     1     -20.957 -40.022  23.129  1.00  0.00     0.001 A 
ATOM     15  C   UNL     1     -20.285 -39.524  22.014  1.00  0.00     0.000 A 
ENDBRANCH   9  10
ENDBRANCH   4   9
ENDBRANCH   1   2
BRANCH   1  16
ATOM     16  C   UNL     1     -13.400 -44.698  26.924  1.00  0.00     0.061 C 
BRANCH  16  17
ATOM     17  C   UNL     1     -12.369 -44.122  27.831  1.00  0.00     0.091 A 
ATOM     18  C   UNL     1     -11.679 -44.746  28.901  1.00  0.00     0.045 A 
ATOM     19  N   UNL     1     -11.985 -42.848  27.670  1.00  0.00    -0.084 NA
ATOM     20  C   UNL     1     -11.649 -46.004  29.522  1.00  0.00     0.018 A 
ATOM     21  C   UNL     1     -10.843 -43.753  29.375  1.00  0.00     0.170 A 
ATOM     22  O   UNL     1     -11.024 -42.621  28.644  1.00  0.00    -0.356 OA
ATOM     23  C   UNL     1     -10.768 -46.199  30.602  1.00  0.00     0.047 A 
ATOM     24  C   UNL     1      -9.960 -43.912  30.439  1.00  0.00     0.097 A 
ATOM     25  C   UNL     1      -9.936 -45.168  31.055  1.00  0.00     0.122 A 
BRANCH  25  26
ATOM     26  O   UNL     1      -9.046 -45.260  32.093  1.00  0.00    -0.497 OA
ATOM     27  C   UNL     1      -7.661 -45.231  31.771  1.00  0.00     0.278 C 
ENDBRANCH  25  26
ENDBRANCH  16  17
ENDBRANCH   1  16
TORSDOF 6
ENDMDL
MODEL 9
REMARK VINA RESULT:    -9.424      1.748      2.908
REMARK INTER + INTRA:         -13.412
REMARK INTER:                 -13.139
REMARK INTRA:                  -0.273
REMARK UNBOUND:                -0.682
REMARK SMILES COc1ccc2c(CC[C@H]3CC[N@@H+](Cc4ccccc4)CC3)noc2c1
REMARK SMILES IDX 9 1 10 2 12 3 13 4 11 5 21 6 22 7 14 9 15 10 16 11 20 12
REMARK SMILES IDX 17 13 19 14 18 15 8 16 7 17 6 18 23 19 5 20 25 21 24 22 4 23
REMARK SMILES IDX 26 24 3 25 2 26 1 27
REMARK H PARENT 13 8
ROOT
ATOM      1  C   UNL     1     -10.922 -45.856  28.403  1.00  0.00     0.010 C 
ENDROOT
BRANCH   1   2
ATOM      2  C   UNL     1     -12.406 -46.295  28.469  1.00  0.00     0.000 C 
ATOM      3  C   UNL     1     -13.530 -43.998  28.540  1.00  0.00     0.262 C 
ATOM      4  N   UNL     1     -14.181 -44.302  27.217  1.00  0.00    -0.331 N 
ATOM      5  C   UNL     1     -13.243 -45.295  29.285  1.00  0.00     0.065 C 
ATOM      6  C   UNL     1     -13.335 -45.208  26.353  1.00  0.00     0.262 C 
ATOM      7  C   UNL     1     -13.064 -46.507  27.098  1.00  0.00     0.065 C 
ATOM      8  H   UNL     1     -15.054 -44.811  27.408  1.00  0.00     0.348 HD
BRANCH   4   9
ATOM      9  C   UNL     1     -14.595 -43.031  26.501  1.00  0.00     0.299 C 
BRANCH   9  10
ATOM     10  C   UNL     1     -16.078 -42.788  26.539  1.00  0.00     0.006 A 
ATOM     11  C   UNL     1     -16.740 -42.595  27.762  1.00  0.00     0.009 A 
ATOM     12  C   UNL     1     -16.821 -42.731  25.348  1.00  0.00     0.009 A 
ATOM     13  C   UNL     1     -18.112 -42.343  27.791  1.00  0.00     0.001 A 
ATOM     14  C   UNL     1     -18.193 -42.479  25.383  1.00  0.00     0.001 A 
ATOM     15  C   UNL     1     -18.837 -42.283  26.602  1.00  0.00     0.000 A 
ENDBRANCH   9  10
ENDBRANCH   4   9
ENDBRANCH   1   2
BRANCH   1  16
ATOM     16  C   UNL     1     -10.649 -44.360  28.622  1.00  0.00     0.061 C 
BRANCH  16  17
ATOM     17  C   UNL     1      -9.843 -44.068  29.838  1.00  0.00     0.091 A 
ATOM     18  C   UNL     1     -10.276 -43.577  31.096  1.00  0.00     0.045 A 
ATOM     19  N   UNL     1      -8.519 -44.281  29.820  1.00  0.00    -0.084 NA
ATOM     20  C   UNL     1     -11.483 -43.187  31.696  1.00  0.00     0.018 A 
ATOM     21  C   UNL     1      -9.114 -43.512  31.841  1.00  0.00     0.170 A 
ATOM     22  O   UNL     1      -8.066 -43.930  31.083  1.00  0.00    -0.356 OA
ATOM     23  C   UNL     1     -11.457 -42.744  33.032  1.00  0.00     0.047 A 
ATOM     24  C   UNL     1      -9.053 -43.081  33.163  1.00  0.00     0.097 A 
ATOM     25  C   UNL     1     -10.259 -42.691  33.755  1.00  0.00     0.122 A 
BRANCH  25  26
ATOM     26  O   UNL     1     -10.131 -42.279  35.055  1.00  0.00    -0.497 OA
ATOM     27  C   UNL     1      -8.924 -41.617  35.415  1.00  0.00     0.278 C 
ENDBRANCH  25  26
ENDBRANCH  16  17
ENDBRANCH   1  16
TORSDOF 6
ENDMDL
