MODEL 1
REMARK VINA RESULT:   -13.122      0.000      0.000
REMARK INTER + INTRA:         -17.589
REMARK INTER:                 -16.958
REMARK INTRA:                  -0.631
REMARK UNBOUND:                -0.631
REMARK SMILES CN1C(=O)Cc2cc3c(CC[C@H]4CC[N@H+](Cc5ccccc5)CC4)noc3cc21
REMARK SMILES IDX 11 1 12 2 14 3 15 4 13 5 23 6 24 7 16 9 17 10 18 11 22 12
REMARK SMILES IDX 19 13 21 14 20 15 10 16 9 17 8 18 25 19 7 20 27 21 26 22
REMARK SMILES IDX 6 23 28 24 5 25 29 26 3 27 2 28 4 29 1 30
REMARK H PARENT 15 8
ROOT
ATOM      1  C   UNL     1     -13.665 -45.375  26.391  1.00  0.00     0.010 C 
ENDROOT
BRANCH   1   2
ATOM      2  C   UNL     1     -13.093 -45.950  27.702  1.00  0.00     0.000 C 
ATOM      3  C   UNL     1     -11.007 -46.572  29.006  1.00  0.00     0.262 C 
ATOM      4  N   UNL     1     -11.461 -45.661  30.120  1.00  0.00    -0.331 N 
ATOM      5  C   UNL     1     -11.565 -46.078  27.674  1.00  0.00     0.065 C 
ATOM      6  C   UNL     1     -12.962 -45.578  30.206  1.00  0.00     0.262 C 
ATOM      7  C   UNL     1     -13.521 -45.070  28.886  1.00  0.00     0.065 C 
ATOM      8  H   UNL     1     -11.104 -44.721  29.907  1.00  0.00     0.348 HD
BRANCH   4   9
ATOM      9  C   UNL     1     -10.855 -46.035  31.461  1.00  0.00     0.299 C 
BRANCH   9  10
ATOM     10  C   UNL     1      -9.607 -45.258  31.778  1.00  0.00     0.006 A 
ATOM     11  C   UNL     1      -8.341 -45.803  31.508  1.00  0.00     0.009 A 
ATOM     12  C   UNL     1      -9.687 -43.986  32.366  1.00  0.00     0.009 A 
ATOM     13  C   UNL     1      -7.183 -45.093  31.827  1.00  0.00     0.001 A 
ATOM     14  C   UNL     1      -8.526 -43.280  32.684  1.00  0.00     0.001 A 
ATOM     15  C   UNL     1      -7.276 -43.835  32.417  1.00  0.00     0.000 A 
ENDBRANCH   9  10
ENDBRANCH   4   9
ENDBRANCH   1   2
BRANCH   1  16
ATOM     16  C   UNL     1     -13.788 -43.845  26.390  1.00  0.00     0.061 C 
BRANCH  16  17
ATOM     17  C   UNL     1     -14.777 -43.367  25.383  1.00  0.00     0.091 A 
ATOM     18  C   UNL     1     -16.102 -42.900  25.588  1.00  0.00     0.045 A 
ATOM     19  N   UNL     1     -14.442 -43.354  24.086  1.00  0.00    -0.084 NA
ATOM     20  C   UNL     1     -16.964 -42.700  26.684  1.00  0.00     0.020 A 
ATOM     21  C   UNL     1     -16.544 -42.600  24.304  1.00  0.00     0.169 A 
ATOM     22  O   UNL     1     -15.553 -42.872  23.415  1.00  0.00    -0.356 OA
ATOM     23  C   UNL     1     -18.231 -42.202  26.388  1.00  0.00    -0.014 A 
ATOM     24  C   UNL     1     -17.807 -42.100  23.983  1.00  0.00     0.077 A 
ATOM     25  C   UNL     1     -19.352 -41.889  27.337  1.00  0.00     0.138 C 
ATOM     26  C   UNL     1     -18.633 -41.914  25.080  1.00  0.00     0.051 A 
ATOM     27  C   UNL     1     -20.453 -41.386  26.401  1.00  0.00     0.231 C 
ATOM     28  N   UNL     1     -19.947 -41.434  25.101  1.00  0.00    -0.315 N 
ATOM     29  O   UNL     1     -21.564 -41.020  26.752  1.00  0.00    -0.274 OA
ATOM     30  C   UNL     1     -20.681 -41.036  23.928  1.00  0.00     0.153 C 
ENDBRANCH  16  17
ENDBRANCH   1  16
TORSDOF 5
ENDMDL
MODEL 2
REMARK VINA RESULT:   -12.479      1.121      1.586
REMARK INTER + INTRA:         -16.758
REMARK INTER:                 -16.162
REMARK INTRA:                  -0.595
REMARK UNBOUND:                -0.631
REMARK SMILES CN1C(=O)Cc2cc3c(CC[C@H]4CC[N@H+](Cc5ccccc5)CC4)noc3cc21
REMARK SMILES IDX 11 1 12 2 14 3 15 4 13 5 23 6 24 7 16 9 17 10 18 11 22 12
REMARK SMILES IDX 19 13 21 14 20 15 10 16 9 17 8 18 25 19 7 20 27 21 26 22
REMARK SMILES IDX 6 23 28 24 5 25 29 26 3 27 2 28 4 29 1 30
REMARK H PARENT 15 8
ROOT
ATOM      1  C   UNL     1     -13.964 -44.945  26.438  1.00  0.00     0.010 C 
ENDROOT
BRANCH   1   2
ATOM      2  C   UNL     1     -13.412 -45.603  27.718  1.00  0.00     0.000 C 
ATOM      3  C   UNL     1     -11.354 -46.421  28.956  1.00  0.00     0.262 C 
ATOM      4  N   UNL     1     -11.718 -45.518  30.109  1.00  0.00    -0.331 N 
ATOM      5  C   UNL     1     -11.898 -45.842  27.654  1.00  0.00     0.065 C 
ATOM      6  C   UNL     1     -13.208 -45.328  30.229  1.00  0.00     0.262 C 
ATOM      7  C   UNL     1     -13.752 -44.735  28.938  1.00  0.00     0.065 C 
ATOM      8  H   UNL     1     -11.297 -44.600  29.920  1.00  0.00     0.348 HD
BRANCH   4   9
ATOM      9  C   UNL     1     -11.118 -45.980  31.424  1.00  0.00     0.299 C 
BRANCH   9  10
ATOM     10  C   UNL     1      -9.808 -45.310  31.740  1.00  0.00     0.006 A 
ATOM     11  C   UNL     1      -9.784 -44.010  32.269  1.00  0.00     0.009 A 
ATOM     12  C   UNL     1      -8.593 -45.967  31.494  1.00  0.00     0.009 A 
ATOM     13  C   UNL     1      -8.568 -43.380  32.537  1.00  0.00     0.001 A 
ATOM     14  C   UNL     1      -7.380 -45.332  31.763  1.00  0.00     0.001 A 
ATOM     15  C   UNL     1      -7.368 -44.039  32.281  1.00  0.00     0.000 A 
ENDBRANCH   9  10
ENDBRANCH   4   9
ENDBRANCH   1   2
BRANCH   1  16
ATOM     16  C   UNL     1     -14.181 -43.431  26.569  1.00  0.00     0.061 C 
BRANCH  16  17
ATOM     17  C   UNL     1     -14.726 -42.836  25.316  1.00  0.00     0.091 A 
ATOM     18  C   UNL     1     -16.080 -42.631  24.943  1.00  0.00     0.045 A 
ATOM     19  N   UNL     1     -13.880 -42.421  24.363  1.00  0.00    -0.084 NA
ATOM     20  C   UNL     1     -17.348 -42.860  25.509  1.00  0.00     0.020 A 
ATOM     21  C   UNL     1     -15.986 -42.054  23.681  1.00  0.00     0.169 A 
ATOM     22  O   UNL     1     -14.676 -41.932  23.340  1.00  0.00    -0.356 OA
ATOM     23  C   UNL     1     -18.445 -42.480  24.739  1.00  0.00    -0.014 A 
ATOM     24  C   UNL     1     -17.069 -41.665  22.891  1.00  0.00     0.077 A 
ATOM     25  C   UNL     1     -19.904 -42.597  25.075  1.00  0.00     0.138 C 
ATOM     26  C   UNL     1     -18.304 -41.903  23.473  1.00  0.00     0.051 A 
ATOM     27  C   UNL     1     -20.583 -42.015  23.834  1.00  0.00     0.231 C 
ATOM     28  N   UNL     1     -19.572 -41.634  22.949  1.00  0.00    -0.315 N 
ATOM     29  O   UNL     1     -21.788 -41.916  23.671  1.00  0.00    -0.274 OA
ATOM     30  C   UNL     1     -19.805 -41.035  21.660  1.00  0.00     0.153 C 
ENDBRANCH  16  17
ENDBRANCH   1  16
TORSDOF 5
ENDMDL
MODEL 3
REMARK VINA RESULT:   -11.998      1.832      2.593
REMARK INTER + INTRA:         -16.137
REMARK INTER:                 -15.417
REMARK INTRA:                  -0.720
REMARK UNBOUND:                -0.631
REMARK SMILES CN1C(=O)Cc2cc3c(CC[C@H]4CC[N@H+](Cc5ccccc5)CC4)noc3cc21
REMARK SMILES IDX 11 1 12 2 14 3 15 4 13 5 23 6 24 7 16 9 17 10 18 11 22 12
REMARK SMILES IDX 19 13 21 14 20 15 10 16 9 17 8 18 25 19 7 20 27 21 26 22
REMARK SMILES IDX 6 23 28 24 5 25 29 26 3 27 2 28 4 29 1 30
REMARK H PARENT 15 8
ROOT
ATOM      1  C   UNL     1     -13.870 -45.028  26.640  1.00  0.00     0.010 C 
ENDROOT
BRANCH   1   2
ATOM      2  C   UNL     1     -12.482 -45.076  27.308  1.00  0.00     0.000 C 
ATOM      3  C   UNL     1     -10.657 -43.767  28.489  1.00  0.00     0.262 C 
ATOM      4  N   UNL     1     -10.763 -44.718  29.656  1.00  0.00    -0.331 N 
ATOM      5  C   UNL     1     -11.994 -43.693  27.759  1.00  0.00     0.065 C 
ATOM      6  C   UNL     1     -11.174 -46.101  29.223  1.00  0.00     0.262 C 
ATOM      7  C   UNL     1     -12.516 -46.034  28.509  1.00  0.00     0.065 C 
ATOM      8  H   UNL     1     -11.494 -44.352  30.280  1.00  0.00     0.348 HD
BRANCH   4   9
ATOM      9  C   UNL     1      -9.497 -44.760  30.491  1.00  0.00     0.299 C 
BRANCH   9  10
ATOM     10  C   UNL     1      -9.590 -43.930  31.742  1.00  0.00     0.006 A 
ATOM     11  C   UNL     1     -10.834 -43.465  32.198  1.00  0.00     0.009 A 
ATOM     12  C   UNL     1      -8.434 -43.592  32.463  1.00  0.00     0.009 A 
ATOM     13  C   UNL     1     -10.916 -42.674  33.343  1.00  0.00     0.001 A 
ATOM     14  C   UNL     1      -8.521 -42.800  33.608  1.00  0.00     0.001 A 
ATOM     15  C   UNL     1      -9.760 -42.339  34.046  1.00  0.00     0.000 A 
ENDBRANCH   9  10
ENDBRANCH   4   9
ENDBRANCH   1   2
BRANCH   1  16
ATOM     16  C   UNL     1     -14.292 -43.621  26.196  1.00  0.00     0.061 C 
BRANCH  16  17
ATOM     17  C   UNL     1     -15.548 -43.179  26.866  1.00  0.00     0.091 A 
ATOM     18  C   UNL     1     -16.752 -42.709  26.279  1.00  0.00     0.045 A 
ATOM     19  N   UNL     1     -15.622 -43.195  28.203  1.00  0.00    -0.084 NA
ATOM     20  C   UNL     1     -17.241 -42.481  24.978  1.00  0.00     0.020 A 
ATOM     21  C   UNL     1     -17.566 -42.441  27.374  1.00  0.00     0.169 A 
ATOM     22  O   UNL     1     -16.888 -42.732  28.516  1.00  0.00    -0.356 OA
ATOM     23  C   UNL     1     -18.542 -41.991  24.886  1.00  0.00    -0.014 A 
ATOM     24  C   UNL     1     -18.870 -41.950  27.307  1.00  0.00     0.077 A 
ATOM     25  C   UNL     1     -19.325 -41.656  23.649  1.00  0.00     0.138 C 
ATOM     26  C   UNL     1     -19.325 -41.735  26.016  1.00  0.00     0.051 A 
ATOM     27  C   UNL     1     -20.660 -41.172  24.217  1.00  0.00     0.231 C 
ATOM     28  N   UNL     1     -20.572 -41.252  25.608  1.00  0.00    -0.315 N 
ATOM     29  O   UNL     1     -21.611 -40.788  23.554  1.00  0.00    -0.274 OA
ATOM     30  C   UNL     1     -21.633 -40.887  26.511  1.00  0.00     0.153 C 
ENDBRANCH  16  17
ENDBRANCH   1  16
TORSDOF 5
ENDMDL
MODEL 4
REMARK VINA RESULT:   -11.499      1.267      2.028
REMARK INTER + INTRA:         -15.492
REMARK INTER:                 -15.141
REMARK INTRA:                  -0.351
REMARK UNBOUND:                -0.631
REMARK SMILES CN1C(=O)Cc2cc3c(CC[C@H]4CC[N@H+](Cc5ccccc5)CC4)noc3cc21
REMARK SMILES IDX 11 1 12 2 14 3 15 4 13 5 23 6 24 7 16 9 17 10 18 11 22 12
REMARK SMILES IDX 19 13 21 14 20 15 10 16 9 17 8 18 25 19 7 20 27 21 26 22
REMARK SMILES IDX 6 23 28 24 5 25 29 26 3 27 2 28 4 29 1 30
REMARK H PARENT 15 8
ROOT
ATOM      1  C   UNL     1     -13.812 -42.899  25.862  1.00  0.00     0.010 C 
ENDROOT
BRANCH   1   2
ATOM      2  C   UNL     1     -13.371 -43.433  27.239  1.00  0.00     0.000 C 
ATOM      3  C   UNL     1     -13.282 -45.429  28.803  1.00  0.00     0.262 C 
ATOM      4  N   UNL     1     -11.783 -45.275  28.875  1.00  0.00    -0.331 N 
ATOM      5  C   UNL     1     -13.794 -44.890  27.471  1.00  0.00     0.065 C 
ATOM      6  C   UNL     1     -11.353 -43.840  28.719  1.00  0.00     0.262 C 
ATOM      7  C   UNL     1     -11.848 -43.303  27.384  1.00  0.00     0.065 C 
ATOM      8  H   UNL     1     -11.385 -45.811  28.094  1.00  0.00     0.348 HD
BRANCH   4   9
ATOM      9  C   UNL     1     -11.194 -45.888  30.133  1.00  0.00     0.299 C 
BRANCH   9  10
ATOM     10  C   UNL     1     -10.870 -44.867  31.189  1.00  0.00     0.006 A 
ATOM     11  C   UNL     1     -11.893 -44.124  31.798  1.00  0.00     0.009 A 
ATOM     12  C   UNL     1      -9.540 -44.629  31.567  1.00  0.00     0.009 A 
ATOM     13  C   UNL     1     -11.589 -43.158  32.758  1.00  0.00     0.001 A 
ATOM     14  C   UNL     1      -9.240 -43.662  32.528  1.00  0.00     0.001 A 
ATOM     15  C   UNL     1     -10.264 -42.926  33.120  1.00  0.00     0.000 A 
ENDBRANCH   9  10
ENDBRANCH   4   9
ENDBRANCH   1   2
BRANCH   1  16
ATOM     16  C   UNL     1     -14.638 -43.903  25.047  1.00  0.00     0.061 C 
BRANCH  16  17
ATOM     17  C   UNL     1     -15.768 -43.245  24.332  1.00  0.00     0.091 A 
ATOM     18  C   UNL     1     -16.985 -42.743  24.862  1.00  0.00     0.045 A 
ATOM     19  N   UNL     1     -15.698 -43.077  23.005  1.00  0.00    -0.084 NA
ATOM     20  C   UNL     1     -17.593 -42.646  26.129  1.00  0.00     0.020 A 
ATOM     21  C   UNL     1     -17.650 -42.252  23.744  1.00  0.00     0.169 A 
ATOM     22  O   UNL     1     -16.881 -42.454  22.642  1.00  0.00    -0.356 OA
ATOM     23  C   UNL     1     -18.850 -42.049  26.166  1.00  0.00    -0.014 A 
ATOM     24  C   UNL     1     -18.909 -41.650  23.755  1.00  0.00     0.077 A 
ATOM     25  C   UNL     1     -19.732 -41.808  27.357  1.00  0.00     0.138 C 
ATOM     26  C   UNL     1     -19.482 -41.569  25.014  1.00  0.00     0.051 A 
ATOM     27  C   UNL     1     -20.956 -41.130  26.738  1.00  0.00     0.231 C 
ATOM     28  N   UNL     1     -20.724 -41.030  25.365  1.00  0.00    -0.315 N 
ATOM     29  O   UNL     1     -21.942 -40.757  27.353  1.00  0.00    -0.274 OA
ATOM     30  C   UNL     1     -21.645 -40.443  24.427  1.00  0.00     0.153 C 
ENDBRANCH  16  17
ENDBRANCH   1  16
TORSDOF 5
ENDMDL
MODEL 5
REMARK VINA RESULT:   -11.299      3.332     11.142
REMARK INTER + INTRA:         -15.233
REMARK INTER:                 -14.696
REMARK INTRA:                  -0.537
REMARK UNBOUND:                -0.631
REMARK SMILES CN1C(=O)Cc2cc3c(CC[C@H]4CC[N@H+](Cc5ccccc5)CC4)noc3cc21
REMARK SMILES IDX 11 1 12 2 14 3 15 4 13 5 23 6 24 7 16 9 17 10 18 11 22 12
REMARK SMILES IDX 19 13 21 14 20 15 10 16 9 17 8 18 25 19 7 20 27 21 26 22
REMARK SMILES IDX 6 23 28 24 5 25 29 26 3 27 2 28 4 29 1 30
REMARK H PARENT 15 8
ROOT
ATOM      1  C   UNL     1     -15.037 -42.420  26.209  1.00  0.00     0.010 C 
ENDROOT
BRANCH   1   2
ATOM      2  C   UNL     1     -16.189 -42.810  25.262  1.00  0.00     0.000 C 
ATOM      3  C   UNL     1     -18.683 -42.697  24.808  1.00  0.00     0.262 C 
ATOM      4  N   UNL     1     -18.386 -42.064  23.471  1.00  0.00    -0.331 N 
ATOM      5  C   UNL     1     -17.562 -42.376  25.792  1.00  0.00     0.065 C 
ATOM      6  C   UNL     1     -17.072 -42.533  22.902  1.00  0.00     0.262 C 
ATOM      7  C   UNL     1     -15.949 -42.199  23.874  1.00  0.00     0.065 C 
ATOM      8  H   UNL     1     -18.320 -41.050  23.623  1.00  0.00     0.348 HD
BRANCH   4   9
ATOM      9  C   UNL     1     -19.513 -42.256  22.472  1.00  0.00     0.299 C 
BRANCH   9  10
ATOM     10  C   UNL     1     -19.972 -40.965  21.849  1.00  0.00     0.006 A 
ATOM     11  C   UNL     1     -19.479 -40.564  20.598  1.00  0.00     0.009 A 
ATOM     12  C   UNL     1     -20.886 -40.136  22.517  1.00  0.00     0.009 A 
ATOM     13  C   UNL     1     -19.885 -39.355  20.033  1.00  0.00     0.001 A 
ATOM     14  C   UNL     1     -21.289 -38.927  21.948  1.00  0.00     0.001 A 
ATOM     15  C   UNL     1     -20.787 -38.536  20.709  1.00  0.00     0.000 A 
ENDBRANCH   9  10
ENDBRANCH   4   9
ENDBRANCH   1   2
BRANCH   1  16
ATOM     16  C   UNL     1     -13.740 -43.201  25.955  1.00  0.00     0.061 C 
BRANCH  16  17
ATOM     17  C   UNL     1     -13.329 -44.001  27.143  1.00  0.00     0.091 A 
ATOM     18  C   UNL     1     -12.148 -43.896  27.923  1.00  0.00     0.045 A 
ATOM     19  N   UNL     1     -14.133 -44.976  27.589  1.00  0.00    -0.084 NA
ATOM     20  C   UNL     1     -10.989 -43.096  27.932  1.00  0.00     0.020 A 
ATOM     21  C   UNL     1     -12.302 -44.890  28.884  1.00  0.00     0.169 A 
ATOM     22  O   UNL     1     -13.485 -45.529  28.681  1.00  0.00    -0.356 OA
ATOM     23  C   UNL     1     -10.059 -43.370  28.932  1.00  0.00    -0.014 A 
ATOM     24  C   UNL     1     -11.386 -45.182  29.895  1.00  0.00     0.077 A 
ATOM     25  C   UNL     1      -8.745 -42.691  29.191  1.00  0.00     0.138 C 
ATOM     26  C   UNL     1     -10.256 -44.380  29.878  1.00  0.00     0.051 A 
ATOM     27  C   UNL     1      -8.211 -43.447  30.409  1.00  0.00     0.231 C 
ATOM     28  N   UNL     1      -9.158 -44.417  30.744  1.00  0.00    -0.315 N 
ATOM     29  O   UNL     1      -7.147 -43.226  30.966  1.00  0.00    -0.274 OA
ATOM     30  C   UNL     1      -9.025 -45.336  31.844  1.00  0.00     0.153 C 
ENDBRANCH  16  17
ENDBRANCH   1  16
TORSDOF 5
ENDMDL
MODEL 6
REMARK VINA RESULT:   -10.960      3.377     10.173
REMARK INTER + INTRA:         -14.796
REMARK INTER:                 -14.161
REMARK INTRA:                  -0.635
REMARK UNBOUND:                -0.631
REMARK SMILES CN1C(=O)Cc2cc3c(CC[C@H]4CC[N@H+](Cc5ccccc5)CC4)noc3cc21
REMARK SMILES IDX 11 1 12 2 14 3 15 4 13 5 23 6 24 7 16 9 17 10 18 11 22 12
REMARK SMILES IDX 19 13 21 14 20 15 10 16 9 17 8 18 25 19 7 20 27 21 26 22
REMARK SMILES IDX 6 23 28 24 5 25 29 26 3 27 2 28 4 29 1 30
REMARK H PARENT 15 8
ROOT
ATOM      1  C   UNL     1     -12.944 -46.193  27.180  1.00  0.00     0.010 C 
ENDROOT
BRANCH   1   2
ATOM      2  C   UNL     1     -13.534 -44.924  26.535  1.00  0.00     0.000 C 
ATOM      3  C   UNL     1     -14.823 -43.950  24.578  1.00  0.00     0.262 C 
ATOM      4  N   UNL     1     -15.829 -43.388  25.552  1.00  0.00    -0.331 N 
ATOM      5  C   UNL     1     -14.174 -45.198  25.168  1.00  0.00     0.065 C 
ATOM      6  C   UNL     1     -15.203 -43.048  26.879  1.00  0.00     0.262 C 
ATOM      7  C   UNL     1     -14.569 -44.294  27.478  1.00  0.00     0.065 C 
ATOM      8  H   UNL     1     -16.535 -44.118  25.714  1.00  0.00     0.348 HD
BRANCH   4   9
ATOM      9  C   UNL     1     -16.589 -42.203  24.985  1.00  0.00     0.299 C 
BRANCH   9  10
ATOM     10  C   UNL     1     -18.078 -42.318  25.168  1.00  0.00     0.006 A 
ATOM     11  C   UNL     1     -18.899 -42.711  24.099  1.00  0.00     0.009 A 
ATOM     12  C   UNL     1     -18.671 -42.017  26.404  1.00  0.00     0.009 A 
ATOM     13  C   UNL     1     -20.282 -42.791  24.263  1.00  0.00     0.001 A 
ATOM     14  C   UNL     1     -20.055 -42.099  26.563  1.00  0.00     0.001 A 
ATOM     15  C   UNL     1     -20.859 -42.483  25.493  1.00  0.00     0.000 A 
ENDBRANCH   9  10
ENDBRANCH   4   9
ENDBRANCH   1   2
BRANCH   1  16
ATOM     16  C   UNL     1     -12.857 -46.123  28.711  1.00  0.00     0.061 C 
BRANCH  16  17
ATOM     17  C   UNL     1     -11.452 -45.967  29.183  1.00  0.00     0.091 A 
ATOM     18  C   UNL     1     -10.952 -45.163  30.240  1.00  0.00     0.045 A 
ATOM     19  N   UNL     1     -10.473 -46.643  28.567  1.00  0.00    -0.084 NA
ATOM     20  C   UNL     1     -11.482 -44.274  31.195  1.00  0.00     0.020 A 
ATOM     21  C   UNL     1      -9.584 -45.409  30.217  1.00  0.00     0.169 A 
ATOM     22  O   UNL     1      -9.304 -46.289  29.220  1.00  0.00    -0.356 OA
ATOM     23  C   UNL     1     -10.567 -43.692  32.070  1.00  0.00    -0.014 A 
ATOM     24  C   UNL     1      -8.648 -44.838  31.082  1.00  0.00     0.077 A 
ATOM     25  C   UNL     1     -10.833 -42.718  33.181  1.00  0.00     0.138 C 
ATOM     26  C   UNL     1      -9.198 -43.968  32.010  1.00  0.00     0.051 A 
ATOM     27  C   UNL     1      -9.434 -42.467  33.750  1.00  0.00     0.231 C 
ATOM     28  N   UNL     1      -8.540 -43.239  33.005  1.00  0.00    -0.315 N 
ATOM     29  O   UNL     1      -9.175 -41.722  34.681  1.00  0.00    -0.274 OA
ATOM     30  C   UNL     1      -7.119 -43.283  33.235  1.00  0.00     0.153 C 
ENDBRANCH  16  17
ENDBRANCH   1  16
TORSDOF 5
ENDMDL
MODEL 7
REMARK VINA RESULT:   -10.646      3.137      6.487
REMARK INTER + INTRA:         -14.389
REMARK INTER:                 -13.645
REMARK INTRA:                  -0.744
REMARK UNBOUND:                -0.631
REMARK SMILES CN1C(=O)Cc2cc3c(CC[C@H]4CC[N@H+](Cc5ccccc5)CC4)noc3cc21
REMARK SMILES IDX 11 1 12 2 14 3 15 4 13 5 23 6 24 7 16 9 17 10 18 11 22 12
REMARK SMILES IDX 19 13 21 14 20 15 10 16 9 17 8 18 25 19 7 20 27 21 26 22
REMARK SMILES IDX 6 23 28 24 5 25 29 26 3 27 2 28 4 29 1 30
REMARK H PARENT 15 8
ROOT
ATOM      1  C   UNL     1     -19.827 -42.590  26.548  1.00  0.00     0.010 C 
ENDROOT
BRANCH   1   2
ATOM      2  C   UNL     1     -18.330 -42.233  26.460  1.00  0.00     0.000 C 
ATOM      3  C   UNL     1     -16.046 -42.409  27.552  1.00  0.00     0.262 C 
ATOM      4  N   UNL     1     -15.517 -43.040  26.287  1.00  0.00    -0.331 N 
ATOM      5  C   UNL     1     -17.538 -42.698  27.689  1.00  0.00     0.065 C 
ATOM      6  C   UNL     1     -16.238 -42.542  25.062  1.00  0.00     0.262 C 
ATOM      7  C   UNL     1     -17.724 -42.843  25.187  1.00  0.00     0.065 C 
ATOM      8  H   UNL     1     -15.682 -44.052  26.361  1.00  0.00     0.348 HD
BRANCH   4   9
ATOM      9  C   UNL     1     -14.015 -42.881  26.141  1.00  0.00     0.299 C 
BRANCH   9  10
ATOM     10  C   UNL     1     -13.236 -43.910  26.915  1.00  0.00     0.006 A 
ATOM     11  C   UNL     1     -12.149 -43.525  27.717  1.00  0.00     0.009 A 
ATOM     12  C   UNL     1     -13.573 -45.269  26.834  1.00  0.00     0.009 A 
ATOM     13  C   UNL     1     -11.412 -44.483  28.413  1.00  0.00     0.001 A 
ATOM     14  C   UNL     1     -12.832 -46.224  27.532  1.00  0.00     0.001 A 
ATOM     15  C   UNL     1     -11.751 -45.831  28.318  1.00  0.00     0.000 A 
ENDBRANCH   9  10
ENDBRANCH   4   9
ENDBRANCH   1   2
BRANCH   1  16
ATOM     16  C   UNL     1     -20.716 -41.415  26.976  1.00  0.00     0.061 C 
BRANCH  16  17
ATOM     17  C   UNL     1     -21.570 -40.925  25.856  1.00  0.00     0.091 A 
ATOM     18  C   UNL     1     -21.201 -40.635  24.517  1.00  0.00     0.045 A 
ATOM     19  N   UNL     1     -22.872 -40.699  26.072  1.00  0.00    -0.084 NA
ATOM     20  C   UNL     1     -20.026 -40.677  23.741  1.00  0.00     0.020 A 
ATOM     21  C   UNL     1     -22.392 -40.215  23.935  1.00  0.00     0.169 A 
ATOM     22  O   UNL     1     -23.383 -40.254  24.864  1.00  0.00    -0.356 OA
ATOM     23  C   UNL     1     -20.151 -40.282  22.411  1.00  0.00    -0.014 A 
ATOM     24  C   UNL     1     -22.542 -39.815  22.606  1.00  0.00     0.077 A 
ATOM     25  C   UNL     1     -19.086 -40.222  21.354  1.00  0.00     0.138 C 
ATOM     26  C   UNL     1     -21.370 -39.865  21.868  1.00  0.00     0.051 A 
ATOM     27  C   UNL     1     -19.853 -39.713  20.133  1.00  0.00     0.231 C 
ATOM     28  N   UNL     1     -21.181 -39.532  20.523  1.00  0.00    -0.315 N 
ATOM     29  O   UNL     1     -19.369 -39.509  19.031  1.00  0.00    -0.274 OA
ATOM     30  C   UNL     1     -22.227 -39.064  19.650  1.00  0.00     0.153 C 
ENDBRANCH  16  17
ENDBRANCH   1  16
TORSDOF 5
ENDMDL
MODEL 8
REMARK VINA RESULT:   -10.525      3.315     10.342
REMARK INTER + INTRA:         -14.232
REMARK INTER:                 -13.807
REMARK INTRA:                  -0.426
REMARK UNBOUND:                -0.631
REMARK SMILES CN1C(=O)Cc2cc3c(CC[C@H]4CC[N@H+](Cc5ccccc5)CC4)noc3cc21
REMARK SMILES IDX 11 1 12 2 14 3 15 4 13 5 23 6 24 7 16 9 17 10 18 11 22 12
REMARK SMILES IDX 19 13 21 14 20 15 10 16 9 17 8 18 25 19 7 20 27 21 26 22
REMARK SMILES IDX 6 23 28 24 5 25 29 26 3 27 2 28 4 29 1 30
REMARK H PARENT 15 8
ROOT
ATOM      1  C   UNL     1     -14.218 -43.330  26.183  1.00  0.00     0.010 C 
ENDROOT
BRANCH   1   2
ATOM      2  C   UNL     1     -15.748 -43.351  25.998  1.00  0.00     0.000 C 
ATOM      3  C   UNL     1     -17.993 -42.530  26.848  1.00  0.00     0.262 C 
ATOM      4  N   UNL     1     -18.278 -41.965  25.479  1.00  0.00    -0.331 N 
ATOM      5  C   UNL     1     -16.487 -42.567  27.089  1.00  0.00     0.065 C 
ATOM      6  C   UNL     1     -17.616 -42.765  24.387  1.00  0.00     0.262 C 
ATOM      7  C   UNL     1     -16.112 -42.790  24.615  1.00  0.00     0.065 C 
ATOM      8  H   UNL     1     -17.887 -41.015  25.455  1.00  0.00     0.348 HD
BRANCH   4   9
ATOM      9  C   UNL     1     -19.764 -41.802  25.213  1.00  0.00     0.299 C 
BRANCH   9  10
ATOM     10  C   UNL     1     -20.585 -42.945  25.744  1.00  0.00     0.006 A 
ATOM     11  C   UNL     1     -20.567 -44.193  25.101  1.00  0.00     0.009 A 
ATOM     12  C   UNL     1     -21.394 -42.777  26.878  1.00  0.00     0.009 A 
ATOM     13  C   UNL     1     -21.349 -45.245  25.579  1.00  0.00     0.001 A 
ATOM     14  C   UNL     1     -22.175 -43.832  27.352  1.00  0.00     0.001 A 
ATOM     15  C   UNL     1     -22.154 -45.064  26.701  1.00  0.00     0.000 A 
ENDBRANCH   9  10
ENDBRANCH   4   9
ENDBRANCH   1   2
BRANCH   1  16
ATOM     16  C   UNL     1     -13.651 -44.626  26.779  1.00  0.00     0.061 C 
BRANCH  16  17
ATOM     17  C   UNL     1     -13.395 -44.501  28.242  1.00  0.00     0.091 A 
ATOM     18  C   UNL     1     -12.174 -44.226  28.912  1.00  0.00     0.045 A 
ATOM     19  N   UNL     1     -14.408 -44.665  29.104  1.00  0.00    -0.084 NA
ATOM     20  C   UNL     1     -10.836 -43.976  28.550  1.00  0.00     0.020 A 
ATOM     21  C   UNL     1     -12.531 -44.235  30.256  1.00  0.00     0.169 A 
ATOM     22  O   UNL     1     -13.860 -44.497  30.364  1.00  0.00    -0.356 OA
ATOM     23  C   UNL     1      -9.947 -43.750  29.597  1.00  0.00    -0.014 A 
ATOM     24  C   UNL     1     -11.659 -44.011  31.322  1.00  0.00     0.077 A 
ATOM     25  C   UNL     1      -8.475 -43.459  29.522  1.00  0.00     0.138 C 
ATOM     26  C   UNL     1     -10.350 -43.768  30.936  1.00  0.00     0.051 A 
ATOM     27  C   UNL     1      -8.085 -43.316  30.994  1.00  0.00     0.231 C 
ATOM     28  N   UNL     1      -9.242 -43.512  31.751  1.00  0.00    -0.315 N 
ATOM     29  O   UNL     1      -6.961 -43.077  31.406  1.00  0.00    -0.274 OA
ATOM     30  C   UNL     1      -9.292 -43.453  33.189  1.00  0.00     0.153 C 
ENDBRANCH  16  17
ENDBRANCH   1  16
TORSDOF 5
ENDMDL
MODEL 9
REMARK VINA RESULT:   -10.357      3.109     10.389
REMARK INTER + INTRA:         -14.016
REMARK INTER:                 -13.444
REMARK INTRA:                  -0.572
REMARK UNBOUND:                -0.631
REMARK SMILES CN1C(=O)Cc2cc3c(CC[C@H]4CC[N@H+](Cc5ccccc5)CC4)noc3cc21
REMARK SMILES IDX 11 1 12 2 14 3 15 4 13 5 23 6 24 7 16 9 17 10 18 11 22 12
REMARK SMILES IDX 19 13 21 14 20 15 10 16 9 17 8 18 25 19 7 20 27 21 26 22
REMARK SMILES IDX 6 23 28 24 5 25 29 26 3 27 2 28 4 29 1 30
REMARK H PARENT 15 8
ROOT
ATOM      1  C   UNL     1     -13.751 -44.115  25.935  1.00  0.00     0.010 C 
ENDROOT
BRANCH   1   2
ATOM      2  C   UNL     1     -14.891 -43.174  25.498  1.00  0.00     0.000 C 
ATOM      3  C   UNL     1     -16.583 -42.596  23.698  1.00  0.00     0.262 C 
ATOM      4  N   UNL     1     -17.683 -42.730  24.722  1.00  0.00    -0.331 N 
ATOM      5  C   UNL     1     -15.404 -43.483  24.086  1.00  0.00     0.065 C 
ATOM      6  C   UNL     1     -17.214 -42.363  26.106  1.00  0.00     0.262 C 
ATOM      7  C   UNL     1     -16.049 -43.257  26.503  1.00  0.00     0.065 C 
ATOM      8  H   UNL     1     -17.965 -43.718  24.736  1.00  0.00     0.348 HD
BRANCH   4   9
ATOM      9  C   UNL     1     -18.930 -41.953  24.343  1.00  0.00     0.299 C 
BRANCH   9  10
ATOM     10  C   UNL     1     -20.093 -42.226  25.258  1.00  0.00     0.006 A 
ATOM     11  C   UNL     1     -20.643 -43.515  25.345  1.00  0.00     0.009 A 
ATOM     12  C   UNL     1     -20.656 -41.194  26.024  1.00  0.00     0.009 A 
ATOM     13  C   UNL     1     -21.739 -43.761  26.174  1.00  0.00     0.001 A 
ATOM     14  C   UNL     1     -21.752 -41.445  26.851  1.00  0.00     0.001 A 
ATOM     15  C   UNL     1     -22.294 -42.726  26.923  1.00  0.00     0.000 A 
ENDBRANCH   9  10
ENDBRANCH   4   9
ENDBRANCH   1   2
BRANCH   1  16
ATOM     16  C   UNL     1     -13.900 -44.638  27.371  1.00  0.00     0.061 C 
BRANCH  16  17
ATOM     17  C   UNL     1     -12.676 -45.351  27.834  1.00  0.00     0.091 A 
ATOM     18  C   UNL     1     -11.768 -44.985  28.861  1.00  0.00     0.045 A 
ATOM     19  N   UNL     1     -12.318 -46.497  27.240  1.00  0.00    -0.084 NA
ATOM     20  C   UNL     1     -11.631 -43.932  29.786  1.00  0.00     0.020 A 
ATOM     21  C   UNL     1     -10.827 -46.008  28.844  1.00  0.00     0.169 A 
ATOM     22  O   UNL     1     -11.158 -46.905  27.877  1.00  0.00    -0.356 OA
ATOM     23  C   UNL     1     -10.531 -43.998  30.638  1.00  0.00    -0.014 A 
ATOM     24  C   UNL     1      -9.717 -46.097  29.686  1.00  0.00     0.077 A 
ATOM     25  C   UNL     1     -10.128 -43.033  31.715  1.00  0.00     0.138 C 
ATOM     26  C   UNL     1      -9.608 -45.048  30.584  1.00  0.00     0.051 A 
ATOM     27  C   UNL     1      -8.850 -43.664  32.271  1.00  0.00     0.231 C 
ATOM     28  N   UNL     1      -8.621 -44.838  31.552  1.00  0.00    -0.315 N 
ATOM     29  O   UNL     1      -8.172 -43.203  33.176  1.00  0.00    -0.274 OA
ATOM     30  C   UNL     1      -7.510 -45.726  31.781  1.00  0.00     0.153 C 
ENDBRANCH  16  17
ENDBRANCH   1  16
TORSDOF 5
ENDMDL
