MODEL 1
REMARK VINA RESULT:   -13.169      0.000      0.000
REMARK INTER + INTRA:         -17.972
REMARK INTER:                 -17.404
REMARK INTRA:                  -0.569
REMARK UNBOUND:                -0.569
REMARK SMILES O=C1C(NCCNc2c3c(nc4cc(Cl)ccc24)CCCC3)=CC(=O)c2c(O)cccc21
REMARK SMILES IDX 5 1 4 2 3 4 2 5 32 6 23 7 31 8 26 9 24 10 30 11 27 12 29 13
REMARK SMILES IDX 1 14 25 15 28 16 6 18 7 19 8 21 9 22 18 23 10 24 22 25 17 26
REMARK SMILES IDX 12 27 11 28 19 29 21 30 16 31 13 32 20 33 14 34 15 35
REMARK H PARENT 4 3 28 17 7 20
ROOT
ATOM      1  C   UNL     1     -12.999 -45.620  28.401  1.00  0.00     0.134 C 
ENDROOT
BRANCH   1   2
ATOM      2  N   UNL     1     -13.442 -44.264  28.058  1.00  0.00    -0.380 N 
ATOM      3  H   UNL     1     -13.223 -43.572  28.770  1.00  0.00     0.160 HD
BRANCH   2   4
ATOM      4  C   UNL     1     -14.380 -43.880  27.105  1.00  0.00     0.087 C 
ATOM      5  C   UNL     1     -15.703 -43.272  27.519  1.00  0.00     0.209 C 
ATOM      6  C   UNL     1     -16.666 -42.883  26.466  1.00  0.00     0.039 A 
ATOM      7  C   UNL     1     -14.146 -44.056  25.796  1.00  0.00     0.082 C 
ATOM      8  C   UNL     1     -17.894 -42.312  26.837  1.00  0.00     0.013 A 
ATOM      9  C   UNL     1     -16.374 -43.080  25.119  1.00  0.00     0.075 A 
ATOM     10  C   UNL     1     -15.092 -43.682  24.735  1.00  0.00     0.192 C 
ATOM     11  C   UNL     1     -18.820 -41.940  25.861  1.00  0.00     0.005 A 
ATOM     12  C   UNL     1     -17.308 -42.705  24.144  1.00  0.00     0.127 A 
ATOM     13  C   UNL     1     -18.525 -42.137  24.513  1.00  0.00     0.047 A 
ATOM     14  O   UNL     1     -16.006 -43.099  28.696  1.00  0.00    -0.287 OA
ATOM     15  O   UNL     1     -14.816 -43.870  23.555  1.00  0.00    -0.289 OA
BRANCH  12  16
ATOM     16  O   UNL     1     -17.097 -42.866  22.801  1.00  0.00    -0.507 OA
ATOM     17  H   UNL     1     -16.143 -43.054  22.653  1.00  0.00     0.293 HD
ENDBRANCH  12  16
ENDBRANCH   2   4
ENDBRANCH   1   2
BRANCH   1  18
ATOM     18  C   UNL     1     -11.581 -45.619  29.004  1.00  0.00     0.134 C 
BRANCH  18  19
ATOM     19  N   UNL     1     -11.642 -46.095  30.405  1.00  0.00    -0.382 N 
ATOM     20  H   UNL     1     -12.597 -46.410  30.574  1.00  0.00     0.160 HD
BRANCH  19  21
ATOM     21  C   UNL     1     -11.309 -45.058  31.327  1.00  0.00     0.049 A 
ATOM     22  C   UNL     1      -9.951 -44.841  31.628  1.00  0.00    -0.003 A 
ATOM     23  C   UNL     1     -12.303 -44.198  31.875  1.00  0.00     0.024 A 
ATOM     24  C   UNL     1      -9.634 -43.771  32.466  1.00  0.00     0.046 A 
ATOM     25  C   UNL     1      -8.870 -45.713  31.036  1.00  0.00     0.039 C 
ATOM     26  C   UNL     1     -13.695 -44.314  31.624  1.00  0.00     0.014 A 
ATOM     27  C   UNL     1     -11.860 -43.161  32.722  1.00  0.00     0.074 A 
ATOM     28  N   UNL     1     -10.569 -42.957  33.010  1.00  0.00    -0.252 NA
ATOM     29  C   UNL     1      -8.214 -43.482  32.879  1.00  0.00     0.056 C 
ATOM     30  C   UNL     1      -7.519 -45.588  31.740  1.00  0.00     0.005 C 
ATOM     31  C   UNL     1     -14.611 -43.436  32.200  1.00  0.00     0.021 A 
ATOM     32  C   UNL     1     -12.786 -42.298  33.289  1.00  0.00     0.049 A 
ATOM     33  C   UNL     1      -7.174 -44.123  31.967  1.00  0.00     0.007 C 
ATOM     34  C   UNL     1     -14.148 -42.430  33.035  1.00  0.00     0.043 A 
ATOM     35  Cl  UNL     1     -15.265 -41.336  33.754  1.00  0.00    -0.084 Cl
ENDBRANCH  19  21
ENDBRANCH  18  19
ENDBRANCH   1  18
TORSDOF 6
ENDMDL
MODEL 2
REMARK VINA RESULT:   -12.386      1.774      3.683
REMARK INTER + INTRA:         -16.938
REMARK INTER:                 -16.378
REMARK INTRA:                  -0.560
REMARK UNBOUND:                -0.569
REMARK SMILES O=C1C(NCCNc2c3c(nc4cc(Cl)ccc24)CCCC3)=CC(=O)c2c(O)cccc21
REMARK SMILES IDX 5 1 4 2 3 4 2 5 32 6 23 7 31 8 26 9 24 10 30 11 27 12 29 13
REMARK SMILES IDX 1 14 25 15 28 16 6 18 7 19 8 21 9 22 18 23 10 24 22 25 17 26
REMARK SMILES IDX 12 27 11 28 19 29 21 30 16 31 13 32 20 33 14 34 15 35
REMARK H PARENT 4 3 28 17 7 20
ROOT
ATOM      1  C   UNL     1     -12.837 -45.151  28.276  1.00  0.00     0.134 C 
ENDROOT
BRANCH   1   2
ATOM      2  N   UNL     1     -13.571 -43.901  28.052  1.00  0.00    -0.380 N 
ATOM      3  H   UNL     1     -13.566 -43.277  28.856  1.00  0.00     0.160 HD
BRANCH   2   4
ATOM      4  C   UNL     1     -14.517 -43.622  27.071  1.00  0.00     0.087 C 
ATOM      5  C   UNL     1     -15.876 -43.065  27.439  1.00  0.00     0.209 C 
ATOM      6  C   UNL     1     -16.846 -42.788  26.356  1.00  0.00     0.039 A 
ATOM      7  C   UNL     1     -14.258 -43.856  25.776  1.00  0.00     0.082 C 
ATOM      8  C   UNL     1     -18.107 -42.265  26.684  1.00  0.00     0.013 A 
ATOM      9  C   UNL     1     -16.527 -43.042  25.026  1.00  0.00     0.075 A 
ATOM     10  C   UNL     1     -15.210 -43.593  24.688  1.00  0.00     0.192 C 
ATOM     11  C   UNL     1     -19.039 -41.998  25.680  1.00  0.00     0.005 A 
ATOM     12  C   UNL     1     -17.468 -42.772  24.023  1.00  0.00     0.127 A 
ATOM     13  C   UNL     1     -18.718 -42.252  24.348  1.00  0.00     0.047 A 
ATOM     14  O   UNL     1     -16.203 -42.845  28.601  1.00  0.00    -0.287 OA
ATOM     15  O   UNL     1     -14.909 -43.830  23.522  1.00  0.00    -0.289 OA
BRANCH  12  16
ATOM     16  O   UNL     1     -17.232 -42.995  22.693  1.00  0.00    -0.507 OA
ATOM     17  H   UNL     1     -16.908 -43.917  22.581  1.00  0.00     0.293 HD
ENDBRANCH  12  16
ENDBRANCH   2   4
ENDBRANCH   1   2
BRANCH   1  18
ATOM     18  C   UNL     1     -11.552 -44.916  29.093  1.00  0.00     0.134 C 
BRANCH  18  19
ATOM     19  N   UNL     1     -11.742 -45.431  30.469  1.00  0.00    -0.382 N 
ATOM     20  H   UNL     1     -12.723 -45.696  30.557  1.00  0.00     0.160 HD
BRANCH  19  21
ATOM     21  C   UNL     1     -11.422 -44.444  31.447  1.00  0.00     0.049 A 
ATOM     22  C   UNL     1     -12.479 -43.773  32.093  1.00  0.00    -0.003 A 
ATOM     23  C   UNL     1     -10.077 -44.188  31.838  1.00  0.00     0.024 A 
ATOM     24  C   UNL     1     -12.153 -42.872  33.107  1.00  0.00     0.046 A 
ATOM     25  C   UNL     1     -13.917 -44.047  31.726  1.00  0.00     0.039 C 
ATOM     26  C   UNL     1      -8.940 -44.819  31.270  1.00  0.00     0.014 A 
ATOM     27  C   UNL     1      -9.873 -43.242  32.865  1.00  0.00     0.074 A 
ATOM     28  N   UNL     1     -10.879 -42.603  33.476  1.00  0.00    -0.252 NA
ATOM     29  C   UNL     1     -13.210 -42.075  33.828  1.00  0.00     0.056 C 
ATOM     30  C   UNL     1     -14.898 -42.992  32.238  1.00  0.00     0.005 C 
ATOM     31  C   UNL     1      -7.650 -44.515  31.702  1.00  0.00     0.021 A 
ATOM     32  C   UNL     1      -8.583 -42.950  33.280  1.00  0.00     0.049 A 
ATOM     33  C   UNL     1     -14.609 -42.665  33.696  1.00  0.00     0.007 C 
ATOM     34  C   UNL     1      -7.480 -43.576  32.708  1.00  0.00     0.043 A 
ATOM     35  Cl  UNL     1      -5.894 -43.189  33.254  1.00  0.00    -0.084 Cl
ENDBRANCH  19  21
ENDBRANCH  18  19
ENDBRANCH   1  18
TORSDOF 6
ENDMDL
MODEL 3
REMARK VINA RESULT:   -11.924      1.151      2.077
REMARK INTER + INTRA:         -16.327
REMARK INTER:                 -16.082
REMARK INTRA:                  -0.245
REMARK UNBOUND:                -0.569
REMARK SMILES O=C1C(NCCNc2c3c(nc4cc(Cl)ccc24)CCCC3)=CC(=O)c2c(O)cccc21
REMARK SMILES IDX 5 1 4 2 3 4 2 5 32 6 23 7 31 8 26 9 24 10 30 11 27 12 29 13
REMARK SMILES IDX 1 14 25 15 28 16 6 18 7 19 8 21 9 22 18 23 10 24 22 25 17 26
REMARK SMILES IDX 12 27 11 28 19 29 21 30 16 31 13 32 20 33 14 34 15 35
REMARK H PARENT 4 3 28 17 7 20
ROOT
ATOM      1  C   UNL     1     -13.799 -44.714  28.708  1.00  0.00     0.134 C 
ENDROOT
BRANCH   1   2
ATOM      2  N   UNL     1     -13.931 -43.936  27.471  1.00  0.00    -0.380 N 
ATOM      3  H   UNL     1     -13.066 -43.489  27.178  1.00  0.00     0.160 HD
BRANCH   2   4
ATOM      4  C   UNL     1     -15.095 -43.466  26.871  1.00  0.00     0.087 C 
ATOM      5  C   UNL     1     -15.229 -43.427  25.363  1.00  0.00     0.209 C 
ATOM      6  C   UNL     1     -16.487 -42.916  24.776  1.00  0.00     0.039 A 
ATOM      7  C   UNL     1     -16.120 -43.017  27.609  1.00  0.00     0.082 C 
ATOM      8  C   UNL     1     -16.626 -42.881  23.380  1.00  0.00     0.013 A 
ATOM      9  C   UNL     1     -17.526 -42.467  25.586  1.00  0.00     0.075 A 
ATOM     10  C   UNL     1     -17.375 -42.499  27.045  1.00  0.00     0.192 C 
ATOM     11  C   UNL     1     -17.803 -42.400  22.802  1.00  0.00     0.005 A 
ATOM     12  C   UNL     1     -18.704 -41.984  25.000  1.00  0.00     0.127 A 
ATOM     13  C   UNL     1     -18.842 -41.951  23.614  1.00  0.00     0.047 A 
ATOM     14  O   UNL     1     -14.330 -43.797  24.614  1.00  0.00    -0.287 OA
ATOM     15  O   UNL     1     -18.275 -42.103  27.779  1.00  0.00    -0.289 OA
BRANCH  12  16
ATOM     16  O   UNL     1     -19.769 -41.524  25.727  1.00  0.00    -0.507 OA
ATOM     17  H   UNL     1     -19.803 -40.544  25.650  1.00  0.00     0.293 HD
ENDBRANCH  12  16
ENDBRANCH   2   4
ENDBRANCH   1   2
BRANCH   1  18
ATOM     18  C   UNL     1     -12.336 -45.121  28.969  1.00  0.00     0.134 C 
BRANCH  18  19
ATOM     19  N   UNL     1     -12.236 -45.774  30.295  1.00  0.00    -0.382 N 
ATOM     20  H   UNL     1     -13.182 -46.029  30.577  1.00  0.00     0.160 HD
BRANCH  19  21
ATOM     21  C   UNL     1     -11.664 -44.902  31.268  1.00  0.00     0.049 A 
ATOM     22  C   UNL     1     -10.262 -44.873  31.400  1.00  0.00    -0.003 A 
ATOM     23  C   UNL     1     -12.466 -44.012  32.038  1.00  0.00     0.024 A 
ATOM     24  C   UNL     1      -9.713 -43.955  32.296  1.00  0.00     0.046 A 
ATOM     25  C   UNL     1      -9.381 -45.779  30.574  1.00  0.00     0.039 C 
ATOM     26  C   UNL     1     -13.882 -43.943  31.971  1.00  0.00     0.014 A 
ATOM     27  C   UNL     1     -11.796 -43.141  32.922  1.00  0.00     0.074 A 
ATOM     28  N   UNL     1     -10.463 -43.117  33.049  1.00  0.00    -0.252 NA
ATOM     29  C   UNL     1      -8.227 -43.877  32.538  1.00  0.00     0.056 C 
ATOM     30  C   UNL     1      -7.948 -45.890  31.094  1.00  0.00     0.005 C 
ATOM     31  C   UNL     1     -14.603 -43.048  32.759  1.00  0.00     0.021 A 
ATOM     32  C   UNL     1     -12.529 -42.259  33.700  1.00  0.00     0.049 A 
ATOM     33  C   UNL     1      -7.397 -44.511  31.428  1.00  0.00     0.007 C 
ATOM     34  C   UNL     1     -13.918 -42.209  33.624  1.00  0.00     0.043 A 
ATOM     35  Cl  UNL     1     -14.791 -41.096  34.605  1.00  0.00    -0.084 Cl
ENDBRANCH  19  21
ENDBRANCH  18  19
ENDBRANCH   1  18
TORSDOF 6
ENDMDL
MODEL 4
REMARK VINA RESULT:   -11.058      2.047      4.199
REMARK INTER + INTRA:         -15.182
REMARK INTER:                 -14.627
REMARK INTRA:                  -0.555
REMARK UNBOUND:                -0.569
REMARK SMILES O=C1C(NCCNc2c3c(nc4cc(Cl)ccc24)CCCC3)=CC(=O)c2c(O)cccc21
REMARK SMILES IDX 5 1 4 2 3 4 2 5 32 6 23 7 31 8 26 9 24 10 30 11 27 12 29 13
REMARK SMILES IDX 1 14 25 15 28 16 6 18 7 19 8 21 9 22 18 23 10 24 22 25 17 26
REMARK SMILES IDX 12 27 11 28 19 29 21 30 16 31 13 32 20 33 14 34 15 35
REMARK H PARENT 4 3 28 17 7 20
ROOT
ATOM      1  C   UNL     1     -13.561 -44.988  28.240  1.00  0.00     0.134 C 
ENDROOT
BRANCH   1   2
ATOM      2  N   UNL     1     -14.042 -43.642  27.911  1.00  0.00    -0.380 N 
ATOM      3  H   UNL     1     -13.657 -42.915  28.508  1.00  0.00     0.160 HD
BRANCH   2   4
ATOM      4  C   UNL     1     -15.161 -43.287  27.164  1.00  0.00     0.087 C 
ATOM      5  C   UNL     1     -15.129 -43.329  25.651  1.00  0.00     0.209 C 
ATOM      6  C   UNL     1     -16.345 -42.940  24.904  1.00  0.00     0.039 A 
ATOM      7  C   UNL     1     -16.290 -42.881  27.762  1.00  0.00     0.082 C 
ATOM      8  C   UNL     1     -16.330 -42.981  23.501  1.00  0.00     0.013 A 
ATOM      9  C   UNL     1     -17.496 -42.532  25.572  1.00  0.00     0.075 A 
ATOM     10  C   UNL     1     -17.507 -42.485  27.038  1.00  0.00     0.192 C 
ATOM     11  C   UNL     1     -17.465 -42.616  22.775  1.00  0.00     0.005 A 
ATOM     12  C   UNL     1     -18.631 -42.165  24.837  1.00  0.00     0.127 A 
ATOM     13  C   UNL     1     -18.616 -42.207  23.444  1.00  0.00     0.047 A 
ATOM     14  O   UNL     1     -14.128 -43.666  25.025  1.00  0.00    -0.287 OA
ATOM     15  O   UNL     1     -18.508 -42.122  27.648  1.00  0.00    -0.289 OA
BRANCH  12  16
ATOM     16  O   UNL     1     -19.800 -41.751  25.418  1.00  0.00    -0.507 OA
ATOM     17  H   UNL     1     -19.699 -40.813  25.694  1.00  0.00     0.293 HD
ENDBRANCH  12  16
ENDBRANCH   2   4
ENDBRANCH   1   2
BRANCH   1  18
ATOM     18  C   UNL     1     -12.260 -44.940  29.065  1.00  0.00     0.134 C 
BRANCH  18  19
ATOM     19  N   UNL     1     -12.546 -45.353  30.459  1.00  0.00    -0.382 N 
ATOM     20  H   UNL     1     -13.557 -45.458  30.540  1.00  0.00     0.160 HD
BRANCH  19  21
ATOM     21  C   UNL     1     -12.088 -44.382  31.398  1.00  0.00     0.049 A 
ATOM     22  C   UNL     1     -13.044 -43.583  32.055  1.00  0.00    -0.003 A 
ATOM     23  C   UNL     1     -10.711 -44.264  31.740  1.00  0.00     0.024 A 
ATOM     24  C   UNL     1     -12.589 -42.696  33.031  1.00  0.00     0.046 A 
ATOM     25  C   UNL     1     -14.515 -43.707  31.740  1.00  0.00     0.039 C 
ATOM     26  C   UNL     1      -9.668 -45.030  31.157  1.00  0.00     0.014 A 
ATOM     27  C   UNL     1     -10.372 -43.319  32.732  1.00  0.00     0.074 A 
ATOM     28  N   UNL     1     -11.282 -42.559  33.354  1.00  0.00    -0.252 NA
ATOM     29  C   UNL     1     -13.530 -41.771  33.760  1.00  0.00     0.056 C 
ATOM     30  C   UNL     1     -15.359 -42.539  32.250  1.00  0.00     0.005 C 
ATOM     31  C   UNL     1      -8.340 -44.857  31.541  1.00  0.00     0.021 A 
ATOM     32  C   UNL     1      -9.045 -43.159  33.099  1.00  0.00     0.049 A 
ATOM     33  C   UNL     1     -14.988 -42.208  33.688  1.00  0.00     0.007 C 
ATOM     34  C   UNL     1      -8.035 -43.916  32.513  1.00  0.00     0.043 A 
ATOM     35  Cl  UNL     1      -6.400 -43.690  32.999  1.00  0.00    -0.084 Cl
ENDBRANCH  19  21
ENDBRANCH  18  19
ENDBRANCH   1  18
TORSDOF 6
ENDMDL
MODEL 5
REMARK VINA RESULT:   -10.877      5.923      9.720
REMARK INTER + INTRA:         -14.943
REMARK INTER:                 -14.516
REMARK INTRA:                  -0.426
REMARK UNBOUND:                -0.569
REMARK SMILES O=C1C(NCCNc2c3c(nc4cc(Cl)ccc24)CCCC3)=CC(=O)c2c(O)cccc21
REMARK SMILES IDX 5 1 4 2 3 4 2 5 32 6 23 7 31 8 26 9 24 10 30 11 27 12 29 13
REMARK SMILES IDX 1 14 25 15 28 16 6 18 7 19 8 21 9 22 18 23 10 24 22 25 17 26
REMARK SMILES IDX 12 27 11 28 19 29 21 30 16 31 13 32 20 33 14 34 15 35
REMARK H PARENT 4 3 28 17 7 20
ROOT
ATOM      1  C   UNL     1     -18.055 -40.151  21.803  1.00  0.00     0.134 C 
ENDROOT
BRANCH   1   2
ATOM      2  N   UNL     1     -18.696 -40.548  20.543  1.00  0.00    -0.380 N 
ATOM      3  H   UNL     1     -18.047 -40.932  19.861  1.00  0.00     0.160 HD
BRANCH   2   4
ATOM      4  C   UNL     1     -19.940 -40.165  20.053  1.00  0.00     0.087 C 
ATOM      5  C   UNL     1     -21.029 -41.190  19.816  1.00  0.00     0.209 C 
ATOM      6  C   UNL     1     -22.334 -40.731  19.292  1.00  0.00     0.039 A 
ATOM      7  C   UNL     1     -20.203 -38.884  19.760  1.00  0.00     0.082 C 
ATOM      8  C   UNL     1     -23.353 -41.671  19.074  1.00  0.00     0.013 A 
ATOM      9  C   UNL     1     -22.560 -39.387  19.009  1.00  0.00     0.075 A 
ATOM     10  C   UNL     1     -21.490 -38.409  19.233  1.00  0.00     0.192 C 
ATOM     11  C   UNL     1     -24.592 -41.262  18.577  1.00  0.00     0.005 A 
ATOM     12  C   UNL     1     -23.805 -38.983  18.509  1.00  0.00     0.127 A 
ATOM     13  C   UNL     1     -24.817 -39.916  18.295  1.00  0.00     0.047 A 
ATOM     14  O   UNL     1     -20.863 -42.387  20.036  1.00  0.00    -0.287 OA
ATOM     15  O   UNL     1     -21.665 -37.220  18.985  1.00  0.00    -0.289 OA
BRANCH  12  16
ATOM     16  O   UNL     1     -24.106 -37.682  18.206  1.00  0.00    -0.507 OA
ATOM     17  H   UNL     1     -24.692 -37.322  18.909  1.00  0.00     0.293 HD
ENDBRANCH  12  16
ENDBRANCH   2   4
ENDBRANCH   1   2
BRANCH   1  18
ATOM     18  C   UNL     1     -16.992 -41.174  22.245  1.00  0.00     0.134 C 
BRANCH  18  19
ATOM     19  N   UNL     1     -17.662 -42.399  22.740  1.00  0.00    -0.382 N 
ATOM     20  H   UNL     1     -18.601 -42.409  22.342  1.00  0.00     0.160 HD
BRANCH  19  21
ATOM     21  C   UNL     1     -17.745 -42.415  24.163  1.00  0.00     0.049 A 
ATOM     22  C   UNL     1     -16.618 -42.837  24.895  1.00  0.00    -0.003 A 
ATOM     23  C   UNL     1     -18.898 -41.940  24.851  1.00  0.00     0.024 A 
ATOM     24  C   UNL     1     -16.683 -42.768  26.287  1.00  0.00     0.046 A 
ATOM     25  C   UNL     1     -15.367 -43.314  24.197  1.00  0.00     0.039 C 
ATOM     26  C   UNL     1     -20.078 -41.474  24.216  1.00  0.00     0.014 A 
ATOM     27  C   UNL     1     -18.850 -41.933  26.261  1.00  0.00     0.074 A 
ATOM     28  N   UNL     1     -17.779 -42.337  26.955  1.00  0.00    -0.252 NA
ATOM     29  C   UNL     1     -15.545 -43.235  27.157  1.00  0.00     0.056 C 
ATOM     30  C   UNL     1     -14.401 -44.073  25.107  1.00  0.00     0.005 C 
ATOM     31  C   UNL     1     -21.171 -41.026  24.955  1.00  0.00     0.021 A 
ATOM     32  C   UNL     1     -19.948 -41.486  26.980  1.00  0.00     0.049 A 
ATOM     33  C   UNL     1     -14.214 -43.326  26.419  1.00  0.00     0.007 C 
ATOM     34  C   UNL     1     -21.099 -41.037  26.340  1.00  0.00     0.043 A 
ATOM     35  Cl  UNL     1     -22.439 -40.487  27.269  1.00  0.00    -0.084 Cl
ENDBRANCH  19  21
ENDBRANCH  18  19
ENDBRANCH   1  18
TORSDOF 6
ENDMDL
MODEL 6
REMARK VINA RESULT:   -10.804      3.497      9.183
REMARK INTER + INTRA:         -14.846
REMARK INTER:                 -14.963
REMARK INTRA:                   0.116
REMARK UNBOUND:                -0.569
REMARK SMILES O=C1C(NCCNc2c3c(nc4cc(Cl)ccc24)CCCC3)=CC(=O)c2c(O)cccc21
REMARK SMILES IDX 5 1 4 2 3 4 2 5 32 6 23 7 31 8 26 9 24 10 30 11 27 12 29 13
REMARK SMILES IDX 1 14 25 15 28 16 6 18 7 19 8 21 9 22 18 23 10 24 22 25 17 26
REMARK SMILES IDX 12 27 11 28 19 29 21 30 16 31 13 32 20 33 14 34 15 35
REMARK H PARENT 4 3 28 17 7 20
ROOT
ATOM      1  C   UNL     1     -15.003 -44.092  29.149  1.00  0.00     0.134 C 
ENDROOT
BRANCH   1   2
ATOM      2  N   UNL     1     -14.713 -44.453  30.541  1.00  0.00    -0.380 N 
ATOM      3  H   UNL     1     -15.443 -45.010  30.977  1.00  0.00     0.160 HD
BRANCH   2   4
ATOM      4  C   UNL     1     -13.789 -43.875  31.406  1.00  0.00     0.087 C 
ATOM      5  C   UNL     1     -12.311 -44.178  31.278  1.00  0.00     0.209 C 
ATOM      6  C   UNL     1     -11.371 -43.537  32.224  1.00  0.00     0.039 A 
ATOM      7  C   UNL     1     -14.184 -43.049  32.385  1.00  0.00     0.082 C 
ATOM      8  C   UNL     1      -9.998 -43.805  32.112  1.00  0.00     0.013 A 
ATOM      9  C   UNL     1     -11.830 -42.681  33.221  1.00  0.00     0.075 A 
ATOM     10  C   UNL     1     -13.266 -42.408  33.338  1.00  0.00     0.192 C 
ATOM     11  C   UNL     1      -9.092 -43.215  32.995  1.00  0.00     0.005 A 
ATOM     12  C   UNL     1     -10.916 -42.093  34.105  1.00  0.00     0.127 A 
ATOM     13  C   UNL     1      -9.553 -42.358  33.993  1.00  0.00     0.047 A 
ATOM     14  O   UNL     1     -11.869 -44.941  30.425  1.00  0.00    -0.287 OA
ATOM     15  O   UNL     1     -13.694 -41.661  34.213  1.00  0.00    -0.289 OA
BRANCH  12  16
ATOM     16  O   UNL     1     -11.287 -41.242  35.112  1.00  0.00    -0.507 OA
ATOM     17  H   UNL     1     -12.240 -41.023  35.004  1.00  0.00     0.293 HD
ENDBRANCH  12  16
ENDBRANCH   2   4
ENDBRANCH   1   2
BRANCH   1  18
ATOM     18  C   UNL     1     -16.444 -43.572  28.986  1.00  0.00     0.134 C 
BRANCH  18  19
ATOM     19  N   UNL     1     -16.422 -42.279  28.264  1.00  0.00    -0.382 N 
ATOM     20  H   UNL     1     -17.007 -41.631  28.791  1.00  0.00     0.160 HD
BRANCH  19  21
ATOM     21  C   UNL     1     -16.928 -42.410  26.936  1.00  0.00     0.049 A 
ATOM     22  C   UNL     1     -16.058 -42.880  25.932  1.00  0.00    -0.003 A 
ATOM     23  C   UNL     1     -18.295 -42.159  26.629  1.00  0.00     0.024 A 
ATOM     24  C   UNL     1     -16.588 -43.083  24.657  1.00  0.00     0.046 A 
ATOM     25  C   UNL     1     -14.612 -43.188  26.233  1.00  0.00     0.039 C 
ATOM     26  C   UNL     1     -19.260 -41.703  27.564  1.00  0.00     0.014 A 
ATOM     27  C   UNL     1     -18.709 -42.387  25.299  1.00  0.00     0.074 A 
ATOM     28  N   UNL     1     -17.880 -42.831  24.345  1.00  0.00    -0.252 NA
ATOM     29  C   UNL     1     -15.729 -43.545  23.508  1.00  0.00     0.056 C 
ATOM     30  C   UNL     1     -13.735 -43.323  24.988  1.00  0.00     0.005 C 
ATOM     31  C   UNL     1     -20.582 -41.476  27.189  1.00  0.00     0.021 A 
ATOM     32  C   UNL     1     -20.027 -42.152  24.943  1.00  0.00     0.049 A 
ATOM     33  C   UNL     1     -14.424 -44.196  23.949  1.00  0.00     0.007 C 
ATOM     34  C   UNL     1     -20.959 -41.701  25.874  1.00  0.00     0.043 A 
ATOM     35  Cl  UNL     1     -22.588 -41.425  25.393  1.00  0.00    -0.084 Cl
ENDBRANCH  19  21
ENDBRANCH  18  19
ENDBRANCH   1  18
TORSDOF 6
ENDMDL
MODEL 7
REMARK VINA RESULT:   -10.695      5.177     11.132
REMARK INTER + INTRA:         -14.703
REMARK INTER:                 -14.133
REMARK INTRA:                  -0.569
REMARK UNBOUND:                -0.569
REMARK SMILES O=C1C(NCCNc2c3c(nc4cc(Cl)ccc24)CCCC3)=CC(=O)c2c(O)cccc21
REMARK SMILES IDX 5 1 4 2 3 4 2 5 32 6 23 7 31 8 26 9 24 10 30 11 27 12 29 13
REMARK SMILES IDX 1 14 25 15 28 16 6 18 7 19 8 21 9 22 18 23 10 24 22 25 17 26
REMARK SMILES IDX 12 27 11 28 19 29 21 30 16 31 13 32 20 33 14 34 15 35
REMARK H PARENT 4 3 28 17 7 20
ROOT
ATOM      1  C   UNL     1     -16.922 -43.136  22.949  1.00  0.00     0.134 C 
ENDROOT
BRANCH   1   2
ATOM      2  N   UNL     1     -16.183 -42.457  24.019  1.00  0.00    -0.380 N 
ATOM      3  H   UNL     1     -15.761 -41.579  23.727  1.00  0.00     0.160 HD
BRANCH   2   4
ATOM      4  C   UNL     1     -15.712 -42.992  25.214  1.00  0.00     0.087 C 
ATOM      5  C   UNL     1     -14.647 -44.068  25.215  1.00  0.00     0.209 C 
ATOM      6  C   UNL     1     -14.183 -44.605  26.513  1.00  0.00     0.039 A 
ATOM      7  C   UNL     1     -16.202 -42.585  26.393  1.00  0.00     0.082 C 
ATOM      8  C   UNL     1     -13.190 -45.598  26.528  1.00  0.00     0.013 A 
ATOM      9  C   UNL     1     -14.718 -44.144  27.712  1.00  0.00     0.075 A 
ATOM     10  C   UNL     1     -15.758 -43.110  27.692  1.00  0.00     0.192 C 
ATOM     11  C   UNL     1     -12.739 -46.122  27.740  1.00  0.00     0.005 A 
ATOM     12  C   UNL     1     -14.261 -44.675  28.926  1.00  0.00     0.127 A 
ATOM     13  C   UNL     1     -13.275 -45.659  28.940  1.00  0.00     0.047 A 
ATOM     14  O   UNL     1     -14.163 -44.514  24.179  1.00  0.00    -0.287 OA
ATOM     15  O   UNL     1     -16.249 -42.693  28.737  1.00  0.00    -0.289 OA
BRANCH  12  16
ATOM     16  O   UNL     1     -14.737 -44.276  30.146  1.00  0.00    -0.507 OA
ATOM     17  H   UNL     1     -15.066 -45.067  30.629  1.00  0.00     0.293 HD
ENDBRANCH  12  16
ENDBRANCH   2   4
ENDBRANCH   1   2
BRANCH   1  18
ATOM     18  C   UNL     1     -18.390 -42.671  22.889  1.00  0.00     0.134 C 
BRANCH  18  19
ATOM     19  N   UNL     1     -18.477 -41.258  23.326  1.00  0.00    -0.382 N 
ATOM     20  H   UNL     1     -18.173 -41.226  24.299  1.00  0.00     0.160 HD
BRANCH  19  21
ATOM     21  C   UNL     1     -19.809 -40.759  23.224  1.00  0.00     0.049 A 
ATOM     22  C   UNL     1     -20.639 -40.825  24.360  1.00  0.00    -0.003 A 
ATOM     23  C   UNL     1     -20.282 -40.128  22.038  1.00  0.00     0.024 A 
ATOM     24  C   UNL     1     -21.910 -40.258  24.270  1.00  0.00     0.046 A 
ATOM     25  C   UNL     1     -20.157 -41.457  25.643  1.00  0.00     0.039 C 
ATOM     26  C   UNL     1     -19.526 -39.989  20.845  1.00  0.00     0.014 A 
ATOM     27  C   UNL     1     -21.592 -39.605  22.064  1.00  0.00     0.074 A 
ATOM     28  N   UNL     1     -22.381 -39.672  23.144  1.00  0.00    -0.252 NA
ATOM     29  C   UNL     1     -22.886 -40.314  25.418  1.00  0.00     0.056 C 
ATOM     30  C   UNL     1     -21.276 -41.780  26.633  1.00  0.00     0.005 C 
ATOM     31  C   UNL     1     -20.057 -39.361  19.720  1.00  0.00     0.021 A 
ATOM     32  C   UNL     1     -22.105 -38.987  20.935  1.00  0.00     0.049 A 
ATOM     33  C   UNL     1     -22.225 -40.597  26.762  1.00  0.00     0.007 C 
ATOM     34  C   UNL     1     -21.350 -38.863  19.772  1.00  0.00     0.043 A 
ATOM     35  Cl  UNL     1     -22.022 -38.084  18.392  1.00  0.00    -0.084 Cl
ENDBRANCH  19  21
ENDBRANCH  18  19
ENDBRANCH   1  18
TORSDOF 6
ENDMDL
MODEL 8
REMARK VINA RESULT:   -10.648      5.765     10.124
REMARK INTER + INTRA:         -14.640
REMARK INTER:                 -14.267
REMARK INTRA:                  -0.373
REMARK UNBOUND:                -0.569
REMARK SMILES O=C1C(NCCNc2c3c(nc4cc(Cl)ccc24)CCCC3)=CC(=O)c2c(O)cccc21
REMARK SMILES IDX 5 1 4 2 3 4 2 5 32 6 23 7 31 8 26 9 24 10 30 11 27 12 29 13
REMARK SMILES IDX 1 14 25 15 28 16 6 18 7 19 8 21 9 22 18 23 10 24 22 25 17 26
REMARK SMILES IDX 12 27 11 28 19 29 21 30 16 31 13 32 20 33 14 34 15 35
REMARK H PARENT 4 3 28 17 7 20
ROOT
ATOM      1  C   UNL     1     -18.133 -40.240  21.853  1.00  0.00     0.134 C 
ENDROOT
BRANCH   1   2
ATOM      2  N   UNL     1     -18.694 -40.466  20.517  1.00  0.00    -0.380 N 
ATOM      3  H   UNL     1     -17.991 -40.667  19.809  1.00  0.00     0.160 HD
BRANCH   2   4
ATOM      4  C   UNL     1     -19.954 -40.115  20.041  1.00  0.00     0.087 C 
ATOM      5  C   UNL     1     -21.010 -41.170  19.791  1.00  0.00     0.209 C 
ATOM      6  C   UNL     1     -22.332 -40.744  19.283  1.00  0.00     0.039 A 
ATOM      7  C   UNL     1     -20.260 -38.837  19.775  1.00  0.00     0.082 C 
ATOM      8  C   UNL     1     -23.322 -41.712  19.053  1.00  0.00     0.013 A 
ATOM      9  C   UNL     1     -22.604 -39.403  19.028  1.00  0.00     0.075 A 
ATOM     10  C   UNL     1     -21.566 -38.395  19.265  1.00  0.00     0.192 C 
ATOM     11  C   UNL     1     -24.577 -41.335  18.572  1.00  0.00     0.005 A 
ATOM     12  C   UNL     1     -23.865 -39.031  18.544  1.00  0.00     0.127 A 
ATOM     13  C   UNL     1     -24.848 -39.992  18.317  1.00  0.00     0.047 A 
ATOM     14  O   UNL     1     -20.804 -42.365  19.985  1.00  0.00    -0.287 OA
ATOM     15  O   UNL     1     -21.781 -37.207  19.041  1.00  0.00    -0.289 OA
BRANCH  12  16
ATOM     16  O   UNL     1     -24.210 -37.735  18.268  1.00  0.00    -0.507 OA
ATOM     17  H   UNL     1     -23.440 -37.155  18.466  1.00  0.00     0.293 HD
ENDBRANCH  12  16
ENDBRANCH   2   4
ENDBRANCH   1   2
BRANCH   1  18
ATOM     18  C   UNL     1     -17.058 -41.286  22.202  1.00  0.00     0.134 C 
BRANCH  18  19
ATOM     19  N   UNL     1     -17.702 -42.468  22.821  1.00  0.00    -0.382 N 
ATOM     20  H   UNL     1     -18.680 -42.462  22.531  1.00  0.00     0.160 HD
BRANCH  19  21
ATOM     21  C   UNL     1     -17.623 -42.424  24.244  1.00  0.00     0.049 A 
ATOM     22  C   UNL     1     -18.765 -42.025  24.966  1.00  0.00    -0.003 A 
ATOM     23  C   UNL     1     -16.457 -42.848  24.941  1.00  0.00     0.024 A 
ATOM     24  C   UNL     1     -18.700 -42.067  26.360  1.00  0.00     0.046 A 
ATOM     25  C   UNL     1     -20.029 -41.602  24.258  1.00  0.00     0.039 C 
ATOM     26  C   UNL     1     -15.260 -43.287  24.316  1.00  0.00     0.014 A 
ATOM     27  C   UNL     1     -16.507 -42.832  26.351  1.00  0.00     0.074 A 
ATOM     28  N   UNL     1     -17.592 -42.450  27.036  1.00  0.00    -0.252 NA
ATOM     29  C   UNL     1     -19.855 -41.622  27.220  1.00  0.00     0.056 C 
ATOM     30  C   UNL     1     -21.021 -40.859  25.153  1.00  0.00     0.005 C 
ATOM     31  C   UNL     1     -14.155 -43.685  25.065  1.00  0.00     0.021 A 
ATOM     32  C   UNL     1     -15.397 -43.229  27.080  1.00  0.00     0.049 A 
ATOM     33  C   UNL     1     -21.186 -41.588  26.479  1.00  0.00     0.007 C 
ATOM     34  C   UNL     1     -14.230 -43.652  26.450  1.00  0.00     0.043 A 
ATOM     35  Cl  UNL     1     -12.874 -44.141  27.390  1.00  0.00    -0.084 Cl
ENDBRANCH  19  21
ENDBRANCH  18  19
ENDBRANCH   1  18
TORSDOF 6
ENDMDL
MODEL 9
REMARK VINA RESULT:   -10.599      3.453      9.169
REMARK INTER + INTRA:         -14.576
REMARK INTER:                 -14.654
REMARK INTRA:                   0.078
REMARK UNBOUND:                -0.569
REMARK SMILES O=C1C(NCCNc2c3c(nc4cc(Cl)ccc24)CCCC3)=CC(=O)c2c(O)cccc21
REMARK SMILES IDX 5 1 4 2 3 4 2 5 32 6 23 7 31 8 26 9 24 10 30 11 27 12 29 13
REMARK SMILES IDX 1 14 25 15 28 16 6 18 7 19 8 21 9 22 18 23 10 24 22 25 17 26
REMARK SMILES IDX 12 27 11 28 19 29 21 30 16 31 13 32 20 33 14 34 15 35
REMARK H PARENT 4 3 28 17 7 20
ROOT
ATOM      1  C   UNL     1     -16.418 -42.767  30.251  1.00  0.00     0.134 C 
ENDROOT
BRANCH   1   2
ATOM      2  N   UNL     1     -15.478 -43.885  30.119  1.00  0.00    -0.380 N 
ATOM      3  H   UNL     1     -15.920 -44.759  29.844  1.00  0.00     0.160 HD
BRANCH   2   4
ATOM      4  C   UNL     1     -14.188 -43.991  30.630  1.00  0.00     0.087 C 
ATOM      5  C   UNL     1     -13.252 -45.082  30.156  1.00  0.00     0.209 C 
ATOM      6  C   UNL     1     -11.892 -45.150  30.734  1.00  0.00     0.039 A 
ATOM      7  C   UNL     1     -13.747 -43.142  31.569  1.00  0.00     0.082 C 
ATOM      8  C   UNL     1     -11.012 -46.153  30.298  1.00  0.00     0.013 A 
ATOM      9  C   UNL     1     -11.478 -44.241  31.703  1.00  0.00     0.075 A 
ATOM     10  C   UNL     1     -12.402 -43.197  32.160  1.00  0.00     0.192 C 
ATOM     11  C   UNL     1      -9.725 -46.240  30.831  1.00  0.00     0.005 A 
ATOM     12  C   UNL     1     -10.185 -44.333  32.235  1.00  0.00     0.127 A 
ATOM     13  C   UNL     1      -9.312 -45.328  31.800  1.00  0.00     0.047 A 
ATOM     14  O   UNL     1     -13.585 -45.914  29.318  1.00  0.00    -0.287 OA
ATOM     15  O   UNL     1     -12.061 -42.388  33.017  1.00  0.00    -0.289 OA
BRANCH  12  16
ATOM     16  O   UNL     1      -9.703 -43.479  33.190  1.00  0.00    -0.507 OA
ATOM     17  H   UNL     1     -10.382 -43.380  33.894  1.00  0.00     0.293 HD
ENDBRANCH  12  16
ENDBRANCH   2   4
ENDBRANCH   1   2
BRANCH   1  18
ATOM     18  C   UNL     1     -16.701 -42.099  28.892  1.00  0.00     0.134 C 
BRANCH  18  19
ATOM     19  N   UNL     1     -17.848 -42.773  28.241  1.00  0.00    -0.382 N 
ATOM     20  H   UNL     1     -17.721 -43.776  28.372  1.00  0.00     0.160 HD
BRANCH  19  21
ATOM     21  C   UNL     1     -17.910 -42.475  26.847  1.00  0.00     0.049 A 
ATOM     22  C   UNL     1     -16.811 -42.825  26.038  1.00  0.00    -0.003 A 
ATOM     23  C   UNL     1     -19.077 -41.916  26.253  1.00  0.00     0.024 A 
ATOM     24  C   UNL     1     -16.919 -42.604  24.665  1.00  0.00     0.046 A 
ATOM     25  C   UNL     1     -15.572 -43.450  26.632  1.00  0.00     0.039 C 
ATOM     26  C   UNL     1     -20.246 -41.546  26.969  1.00  0.00     0.014 A 
ATOM     27  C   UNL     1     -19.061 -41.725  24.855  1.00  0.00     0.074 A 
ATOM     28  N   UNL     1     -18.014 -42.056  24.088  1.00  0.00    -0.252 NA
ATOM     29  C   UNL     1     -15.783 -42.907  23.722  1.00  0.00     0.056 C 
ATOM     30  C   UNL     1     -14.359 -43.422  25.703  1.00  0.00     0.005 C 
ATOM     31  C   UNL     1     -21.351 -41.000  26.319  1.00  0.00     0.021 A 
ATOM     32  C   UNL     1     -20.168 -41.179  24.227  1.00  0.00     0.049 A 
ATOM     33  C   UNL     1     -14.753 -43.869  24.303  1.00  0.00     0.007 C 
ATOM     34  C   UNL     1     -21.304 -40.817  24.945  1.00  0.00     0.043 A 
ATOM     35  Cl  UNL     1     -22.660 -40.145  24.127  1.00  0.00    -0.084 Cl
ENDBRANCH  19  21
ENDBRANCH  18  19
ENDBRANCH   1  18
TORSDOF 6
ENDMDL
