MODEL 1
REMARK VINA RESULT:   -13.266      0.000      0.000
REMARK INTER + INTRA:         -16.163
REMARK INTER:                 -16.368
REMARK INTRA:                   0.205
REMARK UNBOUND:                 0.205
REMARK SMILES O=C(Nc1ccc2c(c1)CN(C(=O)c1ccccc1)C(=O)C2)c1ccccc1
REMARK SMILES IDX 4 1 5 2 6 3 7 4 8 5 9 6 10 7 11 8 20 9 21 10 22 11 3 12 2 13
REMARK SMILES IDX 1 14 23 16 24 17 28 18 25 19 27 20 26 21 12 22 13 23 14 24
REMARK SMILES IDX 15 25 19 26 16 27 18 28 17 29
REMARK H PARENT 3 15
ROOT
ATOM      1  C   UNL     1     -13.357 -45.091  27.872  1.00  0.00     0.041 A 
ATOM      2  C   UNL     1     -12.696 -46.142  27.235  1.00  0.00     0.026 A 
ATOM      3  C   UNL     1     -11.521 -46.675  27.773  1.00  0.00     0.007 A 
ATOM      4  C   UNL     1     -10.983 -46.152  28.952  1.00  0.00    -0.033 A 
ATOM      5  C   UNL     1     -11.636 -45.099  29.599  1.00  0.00    -0.022 A 
ATOM      6  C   UNL     1     -12.820 -44.576  29.059  1.00  0.00     0.032 A 
ATOM      7  C   UNL     1     -11.071 -44.600  30.898  1.00  0.00     0.164 C 
ATOM      8  N   UNL     1      -9.616 -44.657  30.910  1.00  0.00    -0.274 N 
ATOM      9  C   UNL     1      -8.967 -45.803  30.483  1.00  0.00     0.234 C 
ATOM     10  O   UNL     1      -7.845 -46.136  30.875  1.00  0.00    -0.274 OA
ATOM     11  C   UNL     1      -9.742 -46.741  29.569  1.00  0.00     0.136 C 
ENDROOT
BRANCH   1  12
ATOM     12  N   UNL     1     -14.542 -44.498  27.387  1.00  0.00    -0.322 N 
ATOM     13  C   UNL     1     -14.681 -43.240  26.828  1.00  0.00     0.255 C 
ATOM     14  O   UNL     1     -13.784 -42.445  26.573  1.00  0.00    -0.269 OA
ATOM     15  H   UNL     1     -15.364 -45.087  27.391  1.00  0.00     0.170 HD
BRANCH  13  16
ATOM     16  C   UNL     1     -16.078 -42.870  26.468  1.00  0.00     0.040 A 
ATOM     17  C   UNL     1     -16.512 -42.840  25.135  1.00  0.00     0.014 A 
ATOM     18  C   UNL     1     -16.979 -42.575  27.499  1.00  0.00     0.014 A 
ATOM     19  C   UNL     1     -17.831 -42.489  24.840  1.00  0.00     0.001 A 
ATOM     20  C   UNL     1     -18.296 -42.223  27.198  1.00  0.00     0.001 A 
ATOM     21  C   UNL     1     -18.718 -42.176  25.870  1.00  0.00     0.000 A 
ENDBRANCH  13  16
ENDBRANCH   1  12
BRANCH   8  22
ATOM     22  C   UNL     1      -8.859 -43.635  31.463  1.00  0.00     0.260 C 
ATOM     23  O   UNL     1      -7.896 -43.118  30.904  1.00  0.00    -0.269 OA
BRANCH  22  24
ATOM     24  C   UNL     1      -9.332 -43.037  32.739  1.00  0.00     0.040 A 
ATOM     25  C   UNL     1     -10.690 -42.734  32.885  1.00  0.00     0.014 A 
ATOM     26  C   UNL     1      -8.431 -42.742  33.770  1.00  0.00     0.014 A 
ATOM     27  C   UNL     1     -11.152 -42.173  34.076  1.00  0.00     0.001 A 
ATOM     28  C   UNL     1      -8.898 -42.180  34.959  1.00  0.00     0.001 A 
ATOM     29  C   UNL     1     -10.258 -41.902  35.112  1.00  0.00     0.000 A 
ENDBRANCH  22  24
ENDBRANCH   8  22
TORSDOF 4
ENDMDL
MODEL 2
REMARK VINA RESULT:   -12.838      1.197      1.929
REMARK INTER + INTRA:         -15.636
REMARK INTER:                 -15.132
REMARK INTRA:                  -0.503
REMARK UNBOUND:                 0.205
REMARK SMILES O=C(Nc1ccc2c(c1)CN(C(=O)c1ccccc1)C(=O)C2)c1ccccc1
REMARK SMILES IDX 4 1 5 2 6 3 7 4 8 5 9 6 10 7 11 8 20 9 21 10 22 11 3 12 2 13
REMARK SMILES IDX 1 14 23 16 24 17 28 18 25 19 27 20 26 21 12 22 13 23 14 24
REMARK SMILES IDX 15 25 19 26 16 27 18 28 17 29
REMARK H PARENT 3 15
ROOT
ATOM      1  C   UNL     1     -13.907 -44.862  26.780  1.00  0.00     0.041 A 
ATOM      2  C   UNL     1     -13.347 -46.068  26.359  1.00  0.00     0.026 A 
ATOM      3  C   UNL     1     -12.299 -46.656  27.074  1.00  0.00     0.007 A 
ATOM      4  C   UNL     1     -11.786 -46.033  28.215  1.00  0.00    -0.033 A 
ATOM      5  C   UNL     1     -12.338 -44.824  28.647  1.00  0.00    -0.022 A 
ATOM      6  C   UNL     1     -13.397 -44.245  27.931  1.00  0.00     0.032 A 
ATOM      7  C   UNL     1     -11.811 -44.211  29.913  1.00  0.00     0.164 C 
ATOM      8  N   UNL     1     -10.382 -44.444  30.070  1.00  0.00    -0.274 N 
ATOM      9  C   UNL     1      -9.863 -45.711  29.867  1.00  0.00     0.234 C 
ATOM     10  O   UNL     1      -8.830 -46.117  30.406  1.00  0.00    -0.274 OA
ATOM     11  C   UNL     1     -10.687 -46.672  29.021  1.00  0.00     0.136 C 
ENDROOT
BRANCH   1  12
ATOM     12  N   UNL     1     -14.960 -44.206  26.109  1.00  0.00    -0.322 N 
ATOM     13  C   UNL     1     -14.865 -43.390  24.995  1.00  0.00     0.255 C 
ATOM     14  O   UNL     1     -13.859 -43.158  24.337  1.00  0.00    -0.269 OA
ATOM     15  H   UNL     1     -15.892 -44.411  26.444  1.00  0.00     0.170 HD
BRANCH  13  16
ATOM     16  C   UNL     1     -16.154 -42.788  24.553  1.00  0.00     0.040 A 
ATOM     17  C   UNL     1     -17.257 -42.694  25.414  1.00  0.00     0.014 A 
ATOM     18  C   UNL     1     -16.244 -42.282  23.250  1.00  0.00     0.014 A 
ATOM     19  C   UNL     1     -18.447 -42.121  24.960  1.00  0.00     0.001 A 
ATOM     20  C   UNL     1     -17.437 -41.713  22.802  1.00  0.00     0.001 A 
ATOM     21  C   UNL     1     -18.537 -41.638  23.655  1.00  0.00     0.000 A 
ENDBRANCH  13  16
ENDBRANCH   1  12
BRANCH   8  22
ATOM     22  C   UNL     1      -9.539 -43.451  30.546  1.00  0.00     0.260 C 
ATOM     23  O   UNL     1      -8.789 -42.790  29.832  1.00  0.00    -0.269 OA
BRANCH  22  24
ATOM     24  C   UNL     1      -9.657 -43.072  31.978  1.00  0.00     0.040 A 
ATOM     25  C   UNL     1      -8.524 -43.146  32.797  1.00  0.00     0.014 A 
ATOM     26  C   UNL     1     -10.889 -42.681  32.518  1.00  0.00     0.014 A 
ATOM     27  C   UNL     1      -8.615 -42.793  34.143  1.00  0.00     0.001 A 
ATOM     28  C   UNL     1     -10.975 -42.330  33.865  1.00  0.00     0.001 A 
ATOM     29  C   UNL     1      -9.838 -42.380  34.674  1.00  0.00     0.000 A 
ENDBRANCH  22  24
ENDBRANCH   8  22
TORSDOF 4
ENDMDL
MODEL 3
REMARK VINA RESULT:   -12.369      3.449      9.818
REMARK INTER + INTRA:         -15.056
REMARK INTER:                 -14.509
REMARK INTRA:                  -0.548
REMARK UNBOUND:                 0.205
REMARK SMILES O=C(Nc1ccc2c(c1)CN(C(=O)c1ccccc1)C(=O)C2)c1ccccc1
REMARK SMILES IDX 4 1 5 2 6 3 7 4 8 5 9 6 10 7 11 8 20 9 21 10 22 11 3 12 2 13
REMARK SMILES IDX 1 14 23 16 24 17 28 18 25 19 27 20 26 21 12 22 13 23 14 24
REMARK SMILES IDX 15 25 19 26 16 27 18 28 17 29
REMARK H PARENT 3 15
ROOT
ATOM      1  C   UNL     1     -14.192 -44.335  26.222  1.00  0.00     0.041 A 
ATOM      2  C   UNL     1     -14.054 -44.787  24.910  1.00  0.00     0.026 A 
ATOM      3  C   UNL     1     -14.926 -44.348  23.908  1.00  0.00     0.007 A 
ATOM      4  C   UNL     1     -15.958 -43.457  24.211  1.00  0.00    -0.033 A 
ATOM      5  C   UNL     1     -16.107 -42.996  25.523  1.00  0.00    -0.022 A 
ATOM      6  C   UNL     1     -15.223 -43.434  26.521  1.00  0.00     0.032 A 
ATOM      7  C   UNL     1     -17.185 -41.989  25.807  1.00  0.00     0.164 C 
ATOM      8  N   UNL     1     -18.368 -42.221  24.989  1.00  0.00    -0.274 N 
ATOM      9  C   UNL     1     -18.233 -42.448  23.631  1.00  0.00     0.234 C 
ATOM     10  O   UNL     1     -19.115 -42.188  22.807  1.00  0.00    -0.274 OA
ATOM     11  C   UNL     1     -16.879 -42.939  23.139  1.00  0.00     0.136 C 
ENDROOT
BRANCH   1  12
ATOM     12  N   UNL     1     -13.358 -44.737  27.285  1.00  0.00    -0.322 N 
ATOM     13  C   UNL     1     -12.764 -45.975  27.463  1.00  0.00     0.255 C 
ATOM     14  O   UNL     1     -12.785 -46.919  26.683  1.00  0.00    -0.269 OA
ATOM     15  H   UNL     1     -13.118 -44.018  27.954  1.00  0.00     0.170 HD
BRANCH  13  16
ATOM     16  C   UNL     1     -11.985 -46.116  28.725  1.00  0.00     0.040 A 
ATOM     17  C   UNL     1     -10.609 -46.379  28.715  1.00  0.00     0.014 A 
ATOM     18  C   UNL     1     -12.654 -45.950  29.945  1.00  0.00     0.014 A 
ATOM     19  C   UNL     1      -9.916 -46.503  29.922  1.00  0.00     0.001 A 
ATOM     20  C   UNL     1     -11.956 -46.077  31.147  1.00  0.00     0.001 A 
ATOM     21  C   UNL     1     -10.590 -46.358  31.134  1.00  0.00     0.000 A 
ENDBRANCH  13  16
ENDBRANCH   1  12
BRANCH   8  22
ATOM     22  C   UNL     1     -19.644 -42.091  25.516  1.00  0.00     0.260 C 
ATOM     23  O   UNL     1     -20.315 -41.065  25.437  1.00  0.00    -0.269 OA
BRANCH  22  24
ATOM     24  C   UNL     1     -20.287 -43.306  26.078  1.00  0.00     0.040 A 
ATOM     25  C   UNL     1     -20.380 -43.445  27.468  1.00  0.00     0.014 A 
ATOM     26  C   UNL     1     -20.762 -44.322  25.238  1.00  0.00     0.014 A 
ATOM     27  C   UNL     1     -20.982 -44.579  28.014  1.00  0.00     0.001 A 
ATOM     28  C   UNL     1     -21.361 -45.454  25.789  1.00  0.00     0.001 A 
ATOM     29  C   UNL     1     -21.476 -45.579  27.175  1.00  0.00     0.000 A 
ENDBRANCH  22  24
ENDBRANCH   8  22
TORSDOF 4
ENDMDL
MODEL 4
REMARK VINA RESULT:   -12.313      1.925      8.414
REMARK INTER + INTRA:         -14.987
REMARK INTER:                 -13.970
REMARK INTRA:                  -1.017
REMARK UNBOUND:                 0.205
REMARK SMILES O=C(Nc1ccc2c(c1)CN(C(=O)c1ccccc1)C(=O)C2)c1ccccc1
REMARK SMILES IDX 4 1 5 2 6 3 7 4 8 5 9 6 10 7 11 8 20 9 21 10 22 11 3 12 2 13
REMARK SMILES IDX 1 14 23 16 24 17 28 18 25 19 27 20 26 21 12 22 13 23 14 24
REMARK SMILES IDX 15 25 19 26 16 27 18 28 17 29
REMARK H PARENT 3 15
ROOT
ATOM      1  C   UNL     1     -11.625 -44.544  29.701  1.00  0.00     0.041 A 
ATOM      2  C   UNL     1     -11.892 -45.893  29.471  1.00  0.00     0.026 A 
ATOM      3  C   UNL     1     -12.503 -46.308  28.284  1.00  0.00     0.007 A 
ATOM      4  C   UNL     1     -12.867 -45.371  27.313  1.00  0.00    -0.033 A 
ATOM      5  C   UNL     1     -12.605 -44.016  27.532  1.00  0.00    -0.022 A 
ATOM      6  C   UNL     1     -11.984 -43.608  28.722  1.00  0.00     0.032 A 
ATOM      7  C   UNL     1     -12.949 -43.038  26.444  1.00  0.00     0.164 C 
ATOM      8  N   UNL     1     -14.157 -43.429  25.730  1.00  0.00    -0.274 N 
ATOM      9  C   UNL     1     -14.313 -44.737  25.304  1.00  0.00     0.234 C 
ATOM     10  O   UNL     1     -15.008 -45.058  24.336  1.00  0.00    -0.274 OA
ATOM     11  C   UNL     1     -13.487 -45.802  26.010  1.00  0.00     0.136 C 
ENDROOT
BRANCH   1  12
ATOM     12  N   UNL     1     -11.019 -44.050  30.875  1.00  0.00    -0.322 N 
ATOM     13  C   UNL     1     -11.605 -43.270  31.857  1.00  0.00     0.255 C 
ATOM     14  O   UNL     1     -12.783 -42.939  31.928  1.00  0.00    -0.269 OA
ATOM     15  H   UNL     1     -10.071 -44.358  31.045  1.00  0.00     0.170 HD
BRANCH  13  16
ATOM     16  C   UNL     1     -10.685 -42.851  32.951  1.00  0.00     0.040 A 
ATOM     17  C   UNL     1     -11.152 -42.182  34.090  1.00  0.00     0.014 A 
ATOM     18  C   UNL     1      -9.324 -43.166  32.837  1.00  0.00     0.014 A 
ATOM     19  C   UNL     1     -10.255 -41.807  35.093  1.00  0.00     0.001 A 
ATOM     20  C   UNL     1      -8.434 -42.786  33.843  1.00  0.00     0.001 A 
ATOM     21  C   UNL     1      -8.899 -42.104  34.966  1.00  0.00     0.000 A 
ENDBRANCH  13  16
ENDBRANCH   1  12
BRANCH   8  22
ATOM     22  C   UNL     1     -15.105 -42.491  25.351  1.00  0.00     0.260 C 
ATOM     23  O   UNL     1     -14.980 -41.747  24.381  1.00  0.00    -0.269 OA
BRANCH  22  24
ATOM     24  C   UNL     1     -16.404 -42.489  26.071  1.00  0.00     0.040 A 
ATOM     25  C   UNL     1     -17.592 -42.417  25.333  1.00  0.00     0.014 A 
ATOM     26  C   UNL     1     -16.449 -42.520  27.471  1.00  0.00     0.014 A 
ATOM     27  C   UNL     1     -18.821 -42.415  25.992  1.00  0.00     0.001 A 
ATOM     28  C   UNL     1     -17.681 -42.516  28.126  1.00  0.00     0.001 A 
ATOM     29  C   UNL     1     -18.864 -42.470  27.386  1.00  0.00     0.000 A 
ENDBRANCH  22  24
ENDBRANCH   8  22
TORSDOF 4
ENDMDL
MODEL 5
REMARK VINA RESULT:   -11.994      3.383     10.283
REMARK INTER + INTRA:         -14.593
REMARK INTER:                 -14.072
REMARK INTRA:                  -0.522
REMARK UNBOUND:                 0.205
REMARK SMILES O=C(Nc1ccc2c(c1)CN(C(=O)c1ccccc1)C(=O)C2)c1ccccc1
REMARK SMILES IDX 4 1 5 2 6 3 7 4 8 5 9 6 10 7 11 8 20 9 21 10 22 11 3 12 2 13
REMARK SMILES IDX 1 14 23 16 24 17 28 18 25 19 27 20 26 21 12 22 13 23 14 24
REMARK SMILES IDX 15 25 19 26 16 27 18 28 17 29
REMARK H PARENT 3 15
ROOT
ATOM      1  C   UNL     1     -14.283 -43.654  26.461  1.00  0.00     0.041 A 
ATOM      2  C   UNL     1     -13.823 -43.502  25.153  1.00  0.00     0.026 A 
ATOM      3  C   UNL     1     -14.655 -42.974  24.160  1.00  0.00     0.007 A 
ATOM      4  C   UNL     1     -15.967 -42.603  24.463  1.00  0.00    -0.033 A 
ATOM      5  C   UNL     1     -16.440 -42.750  25.770  1.00  0.00    -0.022 A 
ATOM      6  C   UNL     1     -15.597 -43.272  26.763  1.00  0.00     0.032 A 
ATOM      7  C   UNL     1     -17.834 -42.283  26.081  1.00  0.00     0.164 C 
ATOM      8  N   UNL     1     -18.739 -42.504  24.961  1.00  0.00    -0.274 N 
ATOM      9  C   UNL     1     -18.356 -42.137  23.682  1.00  0.00     0.234 C 
ATOM     10  O   UNL     1     -19.156 -41.839  22.792  1.00  0.00    -0.274 OA
ATOM     11  C   UNL     1     -16.863 -41.993  23.418  1.00  0.00     0.136 C 
ENDROOT
BRANCH   1  12
ATOM     12  N   UNL     1     -13.507 -44.184  27.512  1.00  0.00    -0.322 N 
ATOM     13  C   UNL     1     -12.985 -45.462  27.607  1.00  0.00     0.255 C 
ATOM     14  O   UNL     1     -13.029 -46.340  26.754  1.00  0.00    -0.269 OA
ATOM     15  H   UNL     1     -13.251 -43.533  28.243  1.00  0.00     0.170 HD
BRANCH  13  16
ATOM     16  C   UNL     1     -12.257 -45.744  28.876  1.00  0.00     0.040 A 
ATOM     17  C   UNL     1     -12.899 -45.691  30.121  1.00  0.00     0.014 A 
ATOM     18  C   UNL     1     -10.903 -46.099  28.806  1.00  0.00     0.014 A 
ATOM     19  C   UNL     1     -12.180 -45.964  31.286  1.00  0.00     0.001 A 
ATOM     20  C   UNL     1     -10.190 -46.369  29.975  1.00  0.00     0.001 A 
ATOM     21  C   UNL     1     -10.828 -46.296  31.213  1.00  0.00     0.000 A 
ENDBRANCH  13  16
ENDBRANCH   1  12
BRANCH   8  22
ATOM     22  C   UNL     1     -20.034 -42.955  25.160  1.00  0.00     0.260 C 
ATOM     23  O   UNL     1     -20.345 -44.143  25.206  1.00  0.00    -0.269 OA
BRANCH  22  24
ATOM     24  C   UNL     1     -21.077 -41.947  25.480  1.00  0.00     0.040 A 
ATOM     25  C   UNL     1     -21.110 -41.385  26.761  1.00  0.00     0.014 A 
ATOM     26  C   UNL     1     -22.042 -41.586  24.531  1.00  0.00     0.014 A 
ATOM     27  C   UNL     1     -22.081 -40.435  27.079  1.00  0.00     0.001 A 
ATOM     28  C   UNL     1     -23.013 -40.638  24.854  1.00  0.00     0.001 A 
ATOM     29  C   UNL     1     -23.027 -40.059  26.125  1.00  0.00     0.000 A 
ENDBRANCH  22  24
ENDBRANCH   8  22
TORSDOF 4
ENDMDL
MODEL 6
REMARK VINA RESULT:   -11.782      2.217      3.500
REMARK INTER + INTRA:         -14.333
REMARK INTER:                 -13.571
REMARK INTRA:                  -0.762
REMARK UNBOUND:                 0.205
REMARK SMILES O=C(Nc1ccc2c(c1)CN(C(=O)c1ccccc1)C(=O)C2)c1ccccc1
REMARK SMILES IDX 4 1 5 2 6 3 7 4 8 5 9 6 10 7 11 8 20 9 21 10 22 11 3 12 2 13
REMARK SMILES IDX 1 14 23 16 24 17 28 18 25 19 27 20 26 21 12 22 13 23 14 24
REMARK SMILES IDX 15 25 19 26 16 27 18 28 17 29
REMARK H PARENT 3 15
ROOT
ATOM      1  C   UNL     1     -15.350 -42.920  26.812  1.00  0.00     0.041 A 
ATOM      2  C   UNL     1     -14.252 -42.405  26.122  1.00  0.00     0.026 A 
ATOM      3  C   UNL     1     -12.959 -42.859  26.398  1.00  0.00     0.007 A 
ATOM      4  C   UNL     1     -12.746 -43.829  27.381  1.00  0.00    -0.033 A 
ATOM      5  C   UNL     1     -13.837 -44.353  28.079  1.00  0.00    -0.022 A 
ATOM      6  C   UNL     1     -15.133 -43.899  27.791  1.00  0.00     0.032 A 
ATOM      7  C   UNL     1     -13.586 -45.440  29.085  1.00  0.00     0.164 C 
ATOM      8  N   UNL     1     -12.316 -45.254  29.773  1.00  0.00    -0.274 N 
ATOM      9  C   UNL     1     -11.174 -44.962  29.048  1.00  0.00     0.234 C 
ATOM     10  O   UNL     1     -10.035 -45.245  29.428  1.00  0.00    -0.274 OA
ATOM     11  C   UNL     1     -11.366 -44.362  27.662  1.00  0.00     0.136 C 
ENDROOT
BRANCH   1  12
ATOM     12  N   UNL     1     -16.681 -42.507  26.595  1.00  0.00    -0.322 N 
ATOM     13  C   UNL     1     -17.397 -42.576  25.412  1.00  0.00     0.255 C 
ATOM     14  O   UNL     1     -17.034 -43.088  24.360  1.00  0.00    -0.269 OA
ATOM     15  H   UNL     1     -17.183 -42.188  27.413  1.00  0.00     0.170 HD
BRANCH  13  16
ATOM     16  C   UNL     1     -18.769 -42.000  25.482  1.00  0.00     0.040 A 
ATOM     17  C   UNL     1     -19.419 -41.791  26.707  1.00  0.00     0.014 A 
ATOM     18  C   UNL     1     -19.403 -41.635  24.287  1.00  0.00     0.014 A 
ATOM     19  C   UNL     1     -20.705 -41.247  26.728  1.00  0.00     0.001 A 
ATOM     20  C   UNL     1     -20.689 -41.094  24.315  1.00  0.00     0.001 A 
ATOM     21  C   UNL     1     -21.340 -40.905  25.534  1.00  0.00     0.000 A 
ENDBRANCH  13  16
ENDBRANCH   1  12
BRANCH   8  22
ATOM     22  C   UNL     1     -12.193 -45.490  31.134  1.00  0.00     0.260 C 
ATOM     23  O   UNL     1     -11.677 -46.499  31.609  1.00  0.00    -0.269 OA
BRANCH  22  24
ATOM     24  C   UNL     1     -12.576 -44.396  32.064  1.00  0.00     0.040 A 
ATOM     25  C   UNL     1     -13.912 -44.280  32.465  1.00  0.00     0.014 A 
ATOM     26  C   UNL     1     -11.627 -43.465  32.507  1.00  0.00     0.014 A 
ATOM     27  C   UNL     1     -14.290 -43.260  33.338  1.00  0.00     0.001 A 
ATOM     28  C   UNL     1     -12.010 -42.446  33.378  1.00  0.00     0.001 A 
ATOM     29  C   UNL     1     -13.338 -42.348  33.797  1.00  0.00     0.000 A 
ENDBRANCH  22  24
ENDBRANCH   8  22
TORSDOF 4
ENDMDL
MODEL 7
REMARK VINA RESULT:   -11.761      3.895     11.464
REMARK INTER + INTRA:         -14.306
REMARK INTER:                 -14.530
REMARK INTRA:                   0.224
REMARK UNBOUND:                 0.205
REMARK SMILES O=C(Nc1ccc2c(c1)CN(C(=O)c1ccccc1)C(=O)C2)c1ccccc1
REMARK SMILES IDX 4 1 5 2 6 3 7 4 8 5 9 6 10 7 11 8 20 9 21 10 22 11 3 12 2 13
REMARK SMILES IDX 1 14 23 16 24 17 28 18 25 19 27 20 26 21 12 22 13 23 14 24
REMARK SMILES IDX 15 25 19 26 16 27 18 28 17 29
REMARK H PARENT 3 15
ROOT
ATOM      1  C   UNL     1     -16.136 -43.018  27.205  1.00  0.00     0.041 A 
ATOM      2  C   UNL     1     -17.053 -42.503  28.120  1.00  0.00     0.026 A 
ATOM      3  C   UNL     1     -18.301 -42.036  27.694  1.00  0.00     0.007 A 
ATOM      4  C   UNL     1     -18.641 -42.067  26.339  1.00  0.00    -0.033 A 
ATOM      5  C   UNL     1     -17.730 -42.582  25.412  1.00  0.00    -0.022 A 
ATOM      6  C   UNL     1     -16.484 -43.057  25.848  1.00  0.00     0.032 A 
ATOM      7  C   UNL     1     -18.147 -42.663  23.971  1.00  0.00     0.164 C 
ATOM      8  N   UNL     1     -19.001 -41.545  23.594  1.00  0.00    -0.274 N 
ATOM      9  C   UNL     1     -20.060 -41.180  24.407  1.00  0.00     0.234 C 
ATOM     10  O   UNL     1     -21.074 -40.615  23.991  1.00  0.00    -0.274 OA
ATOM     11  C   UNL     1     -19.995 -41.610  25.866  1.00  0.00     0.136 C 
ENDROOT
BRANCH   1  12
ATOM     12  N   UNL     1     -14.858 -43.500  27.558  1.00  0.00    -0.322 N 
ATOM     13  C   UNL     1     -14.075 -44.396  26.850  1.00  0.00     0.255 C 
ATOM     14  O   UNL     1     -14.313 -44.867  25.744  1.00  0.00    -0.269 OA
ATOM     15  H   UNL     1     -14.446 -43.093  28.386  1.00  0.00     0.170 HD
BRANCH  13  16
ATOM     16  C   UNL     1     -12.793 -44.762  27.515  1.00  0.00     0.040 A 
ATOM     17  C   UNL     1     -11.936 -43.790  28.049  1.00  0.00     0.014 A 
ATOM     18  C   UNL     1     -12.463 -46.119  27.628  1.00  0.00     0.014 A 
ATOM     19  C   UNL     1     -10.744 -44.177  28.665  1.00  0.00     0.001 A 
ATOM     20  C   UNL     1     -11.269 -46.498  28.243  1.00  0.00     0.001 A 
ATOM     21  C   UNL     1     -10.410 -45.528  28.756  1.00  0.00     0.000 A 
ENDBRANCH  13  16
ENDBRANCH   1  12
BRANCH   8  22
ATOM     22  C   UNL     1     -18.860 -40.913  22.367  1.00  0.00     0.260 C 
ATOM     23  O   UNL     1     -17.868 -40.266  22.042  1.00  0.00    -0.269 OA
BRANCH  22  24
ATOM     24  C   UNL     1     -19.905 -41.156  21.340  1.00  0.00     0.040 A 
ATOM     25  C   UNL     1     -20.311 -40.096  20.520  1.00  0.00     0.014 A 
ATOM     26  C   UNL     1     -20.509 -42.413  21.212  1.00  0.00     0.014 A 
ATOM     27  C   UNL     1     -21.291 -40.305  19.549  1.00  0.00     0.001 A 
ATOM     28  C   UNL     1     -21.489 -42.617  20.241  1.00  0.00     0.001 A 
ATOM     29  C   UNL     1     -21.874 -41.565  19.407  1.00  0.00     0.000 A 
ENDBRANCH  22  24
ENDBRANCH   8  22
TORSDOF 4
ENDMDL
MODEL 8
REMARK VINA RESULT:   -11.713      3.881     10.678
REMARK INTER + INTRA:         -14.247
REMARK INTER:                 -13.965
REMARK INTRA:                  -0.282
REMARK UNBOUND:                 0.205
REMARK SMILES O=C(Nc1ccc2c(c1)CN(C(=O)c1ccccc1)C(=O)C2)c1ccccc1
REMARK SMILES IDX 4 1 5 2 6 3 7 4 8 5 9 6 10 7 11 8 20 9 21 10 22 11 3 12 2 13
REMARK SMILES IDX 1 14 23 16 24 17 28 18 25 19 27 20 26 21 12 22 13 23 14 24
REMARK SMILES IDX 15 25 19 26 16 27 18 28 17 29
REMARK H PARENT 3 15
ROOT
ATOM      1  C   UNL     1     -15.480 -43.522  25.282  1.00  0.00     0.041 A 
ATOM      2  C   UNL     1     -15.562 -43.353  23.900  1.00  0.00     0.026 A 
ATOM      3  C   UNL     1     -16.674 -42.732  23.322  1.00  0.00     0.007 A 
ATOM      4  C   UNL     1     -17.728 -42.284  24.122  1.00  0.00    -0.033 A 
ATOM      5  C   UNL     1     -17.658 -42.448  25.508  1.00  0.00    -0.022 A 
ATOM      6  C   UNL     1     -16.535 -43.063  26.083  1.00  0.00     0.032 A 
ATOM      7  C   UNL     1     -18.775 -41.898  26.349  1.00  0.00     0.164 C 
ATOM      8  N   UNL     1     -20.062 -42.014  25.677  1.00  0.00    -0.274 N 
ATOM      9  C   UNL     1     -20.186 -41.626  24.354  1.00  0.00     0.234 C 
ATOM     10  O   UNL     1     -21.247 -41.241  23.855  1.00  0.00    -0.274 OA
ATOM     11  C   UNL     1     -18.913 -41.575  23.522  1.00  0.00     0.136 C 
ENDROOT
BRANCH   1  12
ATOM     12  N   UNL     1     -14.397 -44.144  25.937  1.00  0.00    -0.322 N 
ATOM     13  C   UNL     1     -14.190 -44.248  27.301  1.00  0.00     0.255 C 
ATOM     14  O   UNL     1     -14.955 -43.895  28.191  1.00  0.00    -0.269 OA
ATOM     15  H   UNL     1     -13.735 -44.621  25.339  1.00  0.00     0.170 HD
BRANCH  13  16
ATOM     16  C   UNL     1     -12.912 -44.910  27.688  1.00  0.00     0.040 A 
ATOM     17  C   UNL     1     -12.641 -46.243  27.348  1.00  0.00     0.014 A 
ATOM     18  C   UNL     1     -11.955 -44.161  28.384  1.00  0.00     0.014 A 
ATOM     19  C   UNL     1     -11.430 -46.825  27.729  1.00  0.00     0.001 A 
ATOM     20  C   UNL     1     -10.747 -44.750  28.763  1.00  0.00     0.001 A 
ATOM     21  C   UNL     1     -10.489 -46.081  28.440  1.00  0.00     0.000 A 
ENDBRANCH  13  16
ENDBRANCH   1  12
BRANCH   8  22
ATOM     22  C   UNL     1     -21.205 -42.383  26.369  1.00  0.00     0.260 C 
ATOM     23  O   UNL     1     -21.834 -41.626  27.105  1.00  0.00    -0.269 OA
BRANCH  22  24
ATOM     24  C   UNL     1     -21.780 -43.724  26.090  1.00  0.00     0.040 A 
ATOM     25  C   UNL     1     -20.973 -44.699  25.492  1.00  0.00     0.014 A 
ATOM     26  C   UNL     1     -23.122 -44.005  26.380  1.00  0.00     0.014 A 
ATOM     27  C   UNL     1     -21.495 -45.964  25.223  1.00  0.00     0.001 A 
ATOM     28  C   UNL     1     -23.639 -45.271  26.108  1.00  0.00     0.001 A 
ATOM     29  C   UNL     1     -22.825 -46.250  25.536  1.00  0.00     0.000 A 
ENDBRANCH  22  24
ENDBRANCH   8  22
TORSDOF 4
ENDMDL
MODEL 9
REMARK VINA RESULT:   -10.362      4.818     12.545
REMARK INTER + INTRA:         -12.580
REMARK INTER:                 -13.076
REMARK INTRA:                   0.497
REMARK UNBOUND:                 0.205
REMARK SMILES O=C(Nc1ccc2c(c1)CN(C(=O)c1ccccc1)C(=O)C2)c1ccccc1
REMARK SMILES IDX 4 1 5 2 6 3 7 4 8 5 9 6 10 7 11 8 20 9 21 10 22 11 3 12 2 13
REMARK SMILES IDX 1 14 23 16 24 17 28 18 25 19 27 20 26 21 12 22 13 23 14 24
REMARK SMILES IDX 15 25 19 26 16 27 18 28 17 29
REMARK H PARENT 3 15
ROOT
ATOM      1  C   UNL     1     -17.514 -42.541  26.106  1.00  0.00     0.041 A 
ATOM      2  C   UNL     1     -18.495 -42.029  26.956  1.00  0.00     0.026 A 
ATOM      3  C   UNL     1     -19.695 -41.530  26.440  1.00  0.00     0.007 A 
ATOM      4  C   UNL     1     -19.924 -41.526  25.062  1.00  0.00    -0.033 A 
ATOM      5  C   UNL     1     -18.949 -42.036  24.201  1.00  0.00    -0.022 A 
ATOM      6  C   UNL     1     -17.751 -42.544  24.725  1.00  0.00     0.032 A 
ATOM      7  C   UNL     1     -19.249 -42.079  22.729  1.00  0.00     0.164 C 
ATOM      8  N   UNL     1     -20.051 -40.937  22.310  1.00  0.00    -0.274 N 
ATOM      9  C   UNL     1     -21.166 -40.571  23.043  1.00  0.00     0.234 C 
ATOM     10  O   UNL     1     -22.134 -39.978  22.559  1.00  0.00    -0.274 OA
ATOM     11  C   UNL     1     -21.228 -41.033  24.492  1.00  0.00     0.136 C 
ENDROOT
BRANCH   1  12
ATOM     12  N   UNL     1     -16.278 -43.054  26.550  1.00  0.00    -0.322 N 
ATOM     13  C   UNL     1     -15.026 -42.803  26.017  1.00  0.00     0.255 C 
ATOM     14  O   UNL     1     -14.754 -42.021  25.114  1.00  0.00    -0.269 OA
ATOM     15  H   UNL     1     -16.309 -43.613  27.393  1.00  0.00     0.170 HD
BRANCH  13  16
ATOM     16  C   UNL     1     -13.911 -43.545  26.669  1.00  0.00     0.040 A 
ATOM     17  C   UNL     1     -12.749 -42.894  27.107  1.00  0.00     0.014 A 
ATOM     18  C   UNL     1     -14.053 -44.925  26.869  1.00  0.00     0.014 A 
ATOM     19  C   UNL     1     -11.728 -43.628  27.715  1.00  0.00     0.001 A 
ATOM     20  C   UNL     1     -13.028 -45.652  27.475  1.00  0.00     0.001 A 
ATOM     21  C   UNL     1     -11.866 -45.004  27.893  1.00  0.00     0.000 A 
ENDBRANCH  13  16
ENDBRANCH   1  12
BRANCH   8  22
ATOM     22  C   UNL     1     -19.800 -40.281  21.114  1.00  0.00     0.260 C 
ATOM     23  O   UNL     1     -18.687 -39.890  20.769  1.00  0.00    -0.269 OA
BRANCH  22  24
ATOM     24  C   UNL     1     -20.912 -40.177  20.135  1.00  0.00     0.040 A 
ATOM     25  C   UNL     1     -21.227 -38.925  19.594  1.00  0.00     0.014 A 
ATOM     26  C   UNL     1     -21.667 -41.303  19.783  1.00  0.00     0.014 A 
ATOM     27  C   UNL     1     -22.268 -38.808  18.672  1.00  0.00     0.001 A 
ATOM     28  C   UNL     1     -22.708 -41.181  18.862  1.00  0.00     0.001 A 
ATOM     29  C   UNL     1     -23.003 -39.936  18.304  1.00  0.00     0.000 A 
ENDBRANCH  22  24
ENDBRANCH   8  22
TORSDOF 4
ENDMDL
