MODEL 1
REMARK VINA RESULT:   -10.572      0.000      0.000
REMARK INTER + INTRA:         -17.664
REMARK INTER:                 -16.443
REMARK INTRA:                  -1.221
REMARK UNBOUND:                -1.221
REMARK SMILES COc1cc2c(cc1OC)S[C@H](C(O)=CCc1cc[n+](Cc3coc([N+](=O)[O-])c3)cc1)C2
REMARK SMILES IDX 16 1 15 2 13 3 14 4 12 6 32 7 11 8 5 9 6 10 4 11 7 12 3 13
REMARK SMILES IDX 8 14 2 15 1 16 9 17 10 18 17 19 18 20 31 21 19 22 30 23
REMARK SMILES IDX 20 24 21 25 22 26 23 27 29 28 24 29 25 30 26 31 27 32 28 33
REMARK H PARENT 14 5
ROOT
ATOM      1  C   UNL     1      -8.709 -42.788  28.570  1.00  0.00     0.067 C 
ENDROOT
BRANCH   1   2
ATOM      2  C   UNL     1      -8.461 -42.798  30.053  1.00  0.00     0.020 C 
BRANCH   2   3
ATOM      3  C   UNL     1      -7.873 -43.806  30.719  1.00  0.00     0.102 C 
BRANCH   3   4
ATOM      4  O   UNL     1      -6.657 -44.288  30.244  1.00  0.00    -0.511 OA
ATOM      5  H   UNL     1      -5.973 -44.015  30.893  1.00  0.00     0.293 HD
ENDBRANCH   3   4
BRANCH   3   6
ATOM      6  C   UNL     1      -8.396 -44.504  31.976  1.00  0.00     0.121 C 
ATOM      7  C   UNL     1      -9.655 -45.392  31.854  1.00  0.00     0.059 C 
ATOM      8  S   UNL     1      -8.856 -43.192  33.179  1.00  0.00    -0.114 SA
ATOM      9  C   UNL     1     -10.850 -44.502  32.060  1.00  0.00    -0.029 A 
ATOM     10  C   UNL     1     -10.572 -43.336  32.774  1.00  0.00     0.015 A 
ATOM     11  C   UNL     1     -12.152 -44.791  31.655  1.00  0.00     0.055 A 
ATOM     12  C   UNL     1     -11.575 -42.436  33.084  1.00  0.00     0.065 A 
ATOM     13  C   UNL     1     -13.185 -43.889  31.952  1.00  0.00     0.161 A 
ATOM     14  C   UNL     1     -12.887 -42.717  32.687  1.00  0.00     0.161 A 
BRANCH  13  15
ATOM     15  O   UNL     1     -14.481 -44.054  31.544  1.00  0.00    -0.493 OA
ATOM     16  C   UNL     1     -14.721 -44.336  30.172  1.00  0.00     0.278 C 
ENDBRANCH  13  15
BRANCH  14  17
ATOM     17  O   UNL     1     -13.794 -41.743  33.020  1.00  0.00    -0.493 OA
ATOM     18  C   UNL     1     -14.310 -41.839  34.346  1.00  0.00     0.278 C 
ENDBRANCH  14  17
ENDBRANCH   3   6
ENDBRANCH   2   3
ENDBRANCH   1   2
BRANCH   1  19
ATOM     19  C   UNL     1     -10.045 -43.393  28.204  1.00  0.00    -0.032 A 
ATOM     20  C   UNL     1     -11.041 -42.598  27.634  1.00  0.00     0.075 A 
ATOM     21  C   UNL     1     -10.308 -44.746  28.406  1.00  0.00     0.075 A 
ATOM     22  C   UNL     1     -12.264 -43.160  27.294  1.00  0.00     0.308 A 
ATOM     23  C   UNL     1     -11.549 -45.267  28.052  1.00  0.00     0.308 A 
ATOM     24  N   UNL     1     -12.502 -44.475  27.507  1.00  0.00    -0.201 N 
BRANCH  24  25
ATOM     25  C   UNL     1     -13.814 -45.056  27.132  1.00  0.00     0.397 C 
BRANCH  25  26
ATOM     26  C   UNL     1     -14.592 -44.082  26.315  1.00  0.00     0.063 A 
ATOM     27  C   UNL     1     -15.530 -43.172  26.775  1.00  0.00     0.213 A 
ATOM     28  C   UNL     1     -14.547 -43.896  24.897  1.00  0.00     0.143 A 
ATOM     29  O   UNL     1     -16.044 -42.440  25.752  1.00  0.00    -0.409 OA
ATOM     30  C   UNL     1     -15.445 -42.890  24.620  1.00  0.00     0.433 A 
BRANCH  30  31
ATOM     31  N   UNL     1     -15.830 -42.268  23.390  1.00  0.00     0.102 N 
ATOM     32  O   UNL     1     -15.032 -41.436  22.939  1.00  0.00    -0.256 OA
ATOM     33  O   UNL     1     -16.909 -42.598  22.890  1.00  0.00    -0.256 OA
ENDBRANCH  30  31
ENDBRANCH  25  26
ENDBRANCH  24  25
ENDBRANCH   1  19
TORSDOF 10
ENDMDL
MODEL 2
REMARK VINA RESULT:   -10.193      3.703      5.442
REMARK INTER + INTRA:         -17.074
REMARK INTER:                 -16.067
REMARK INTRA:                  -1.007
REMARK UNBOUND:                -1.221
REMARK SMILES COc1cc2c(cc1OC)S[C@H](C(O)=CCc1cc[n+](Cc3coc([N+](=O)[O-])c3)cc1)C2
REMARK SMILES IDX 16 1 15 2 13 3 14 4 12 6 32 7 11 8 5 9 6 10 4 11 7 12 3 13
REMARK SMILES IDX 8 14 2 15 1 16 9 17 10 18 17 19 18 20 31 21 19 22 30 23
REMARK SMILES IDX 20 24 21 25 22 26 23 27 29 28 24 29 25 30 26 31 27 32 28 33
REMARK H PARENT 14 5
ROOT
ATOM      1  C   UNL     1     -13.675 -43.499  26.560  1.00  0.00     0.067 C 
ENDROOT
BRANCH   1   2
ATOM      2  C   UNL     1     -13.552 -44.694  27.465  1.00  0.00     0.020 C 
BRANCH   2   3
ATOM      3  C   UNL     1     -12.546 -44.888  28.335  1.00  0.00     0.102 C 
BRANCH   3   4
ATOM      4  O   UNL     1     -11.324 -44.274  28.076  1.00  0.00    -0.511 OA
ATOM      5  H   UNL     1     -10.861 -44.837  27.419  1.00  0.00     0.293 HD
ENDBRANCH   3   4
BRANCH   3   6
ATOM      6  C   UNL     1     -12.589 -45.725  29.615  1.00  0.00     0.121 C 
ATOM      7  C   UNL     1     -13.698 -45.431  30.649  1.00  0.00     0.059 C 
ATOM      8  S   UNL     1     -11.012 -45.431  30.514  1.00  0.00    -0.114 SA
ATOM      9  C   UNL     1     -13.177 -44.363  31.571  1.00  0.00    -0.029 A 
ATOM     10  C   UNL     1     -11.785 -44.286  31.619  1.00  0.00     0.015 A 
ATOM     11  C   UNL     1     -13.960 -43.539  32.377  1.00  0.00     0.055 A 
ATOM     12  C   UNL     1     -11.151 -43.384  32.454  1.00  0.00     0.065 A 
ATOM     13  C   UNL     1     -13.340 -42.610  33.226  1.00  0.00     0.161 A 
ATOM     14  C   UNL     1     -11.927 -42.554  33.271  1.00  0.00     0.161 A 
BRANCH  13  15
ATOM     15  O   UNL     1     -14.022 -41.717  34.007  1.00  0.00    -0.493 OA
ATOM     16  C   UNL     1     -15.348 -41.372  33.628  1.00  0.00     0.278 C 
ENDBRANCH  13  15
BRANCH  14  17
ATOM     17  O   UNL     1     -11.196 -41.679  34.035  1.00  0.00    -0.493 OA
ATOM     18  C   UNL     1      -9.846 -42.074  34.265  1.00  0.00     0.278 C 
ENDBRANCH  14  17
ENDBRANCH   3   6
ENDBRANCH   2   3
ENDBRANCH   1   2
BRANCH   1  19
ATOM     19  C   UNL     1     -15.114 -43.156  26.250  1.00  0.00    -0.032 A 
ATOM     20  C   UNL     1     -15.989 -42.811  27.282  1.00  0.00     0.075 A 
ATOM     21  C   UNL     1     -15.594 -43.155  24.942  1.00  0.00     0.075 A 
ATOM     22  C   UNL     1     -17.308 -42.490  26.992  1.00  0.00     0.308 A 
ATOM     23  C   UNL     1     -16.924 -42.828  24.697  1.00  0.00     0.308 A 
ATOM     24  N   UNL     1     -17.756 -42.504  25.715  1.00  0.00    -0.201 N 
BRANCH  24  25
ATOM     25  C   UNL     1     -19.168 -42.154  25.426  1.00  0.00     0.397 C 
BRANCH  25  26
ATOM     26  C   UNL     1     -20.081 -43.159  26.039  1.00  0.00     0.063 A 
ATOM     27  C   UNL     1     -20.563 -44.316  25.448  1.00  0.00     0.213 A 
ATOM     28  C   UNL     1     -20.661 -43.131  27.347  1.00  0.00     0.143 A 
ATOM     29  O   UNL     1     -21.374 -44.998  26.299  1.00  0.00    -0.409 OA
ATOM     30  C   UNL     1     -21.431 -44.269  27.443  1.00  0.00     0.433 A 
BRANCH  30  31
ATOM     31  N   UNL     1     -22.239 -44.787  28.504  1.00  0.00     0.102 N 
ATOM     32  O   UNL     1     -23.166 -45.530  28.155  1.00  0.00    -0.256 OA
ATOM     33  O   UNL     1     -21.960 -44.454  29.659  1.00  0.00    -0.256 OA
ENDBRANCH  30  31
ENDBRANCH  25  26
ENDBRANCH  24  25
ENDBRANCH   1  19
TORSDOF 10
ENDMDL
MODEL 3
REMARK VINA RESULT:   -10.152      3.775      9.403
REMARK INTER + INTRA:         -17.011
REMARK INTER:                 -16.067
REMARK INTRA:                  -0.943
REMARK UNBOUND:                -1.221
REMARK SMILES COc1cc2c(cc1OC)S[C@H](C(O)=CCc1cc[n+](Cc3coc([N+](=O)[O-])c3)cc1)C2
REMARK SMILES IDX 16 1 15 2 13 3 14 4 12 6 32 7 11 8 5 9 6 10 4 11 7 12 3 13
REMARK SMILES IDX 8 14 2 15 1 16 9 17 10 18 17 19 18 20 31 21 19 22 30 23
REMARK SMILES IDX 20 24 21 25 22 26 23 27 29 28 24 29 25 30 26 31 27 32 28 33
REMARK H PARENT 14 5
ROOT
ATOM      1  C   UNL     1     -14.161 -44.604  27.642  1.00  0.00     0.067 C 
ENDROOT
BRANCH   1   2
ATOM      2  C   UNL     1     -14.051 -44.821  26.158  1.00  0.00     0.020 C 
BRANCH   2   3
ATOM      3  C   UNL     1     -14.539 -43.982  25.228  1.00  0.00     0.102 C 
BRANCH   3   4
ATOM      4  O   UNL     1     -14.554 -44.404  23.902  1.00  0.00    -0.511 OA
ATOM      5  H   UNL     1     -15.174 -45.164  23.857  1.00  0.00     0.293 HD
ENDBRANCH   3   4
BRANCH   3   6
ATOM      6  C   UNL     1     -15.098 -42.577  25.464  1.00  0.00     0.121 C 
ATOM      7  C   UNL     1     -16.461 -42.437  26.177  1.00  0.00     0.059 C 
ATOM      8  S   UNL     1     -15.343 -41.802  23.815  1.00  0.00    -0.114 SA
ATOM      9  C   UNL     1     -17.527 -42.496  25.116  1.00  0.00    -0.029 A 
ATOM     10  C   UNL     1     -17.078 -42.148  23.842  1.00  0.00     0.015 A 
ATOM     11  C   UNL     1     -18.869 -42.800  25.336  1.00  0.00     0.055 A 
ATOM     12  C   UNL     1     -17.947 -42.110  22.768  1.00  0.00     0.065 A 
ATOM     13  C   UNL     1     -19.768 -42.776  24.260  1.00  0.00     0.161 A 
ATOM     14  C   UNL     1     -19.298 -42.409  22.977  1.00  0.00     0.161 A 
BRANCH  13  15
ATOM     15  O   UNL     1     -21.090 -43.119  24.363  1.00  0.00    -0.493 OA
ATOM     16  C   UNL     1     -21.689 -43.096  25.652  1.00  0.00     0.278 C 
ENDBRANCH  13  15
BRANCH  14  17
ATOM     17  O   UNL     1     -20.063 -42.370  21.838  1.00  0.00    -0.493 OA
ATOM     18  C   UNL     1     -20.143 -41.089  21.219  1.00  0.00     0.278 C 
ENDBRANCH  14  17
ENDBRANCH   3   6
ENDBRANCH   2   3
ENDBRANCH   1   2
BRANCH   1  19
ATOM     19  C   UNL     1     -12.863 -44.883  28.363  1.00  0.00    -0.032 A 
ATOM     20  C   UNL     1     -11.780 -44.013  28.217  1.00  0.00     0.075 A 
ATOM     21  C   UNL     1     -12.719 -45.989  29.198  1.00  0.00     0.075 A 
ATOM     22  C   UNL     1     -10.592 -44.269  28.887  1.00  0.00     0.308 A 
ATOM     23  C   UNL     1     -11.509 -46.208  29.849  1.00  0.00     0.308 A 
ATOM     24  N   UNL     1     -10.471 -45.355  29.686  1.00  0.00    -0.201 N 
BRANCH  24  25
ATOM     25  C   UNL     1      -9.194 -45.608  30.396  1.00  0.00     0.397 C 
BRANCH  25  26
ATOM     26  C   UNL     1      -8.943 -44.534  31.399  1.00  0.00     0.063 A 
ATOM     27  C   UNL     1      -7.755 -43.853  31.609  1.00  0.00     0.213 A 
ATOM     28  C   UNL     1      -9.862 -43.999  32.357  1.00  0.00     0.143 A 
ATOM     29  O   UNL     1      -7.886 -42.938  32.606  1.00  0.00    -0.409 OA
ATOM     30  C   UNL     1      -9.164 -43.039  33.054  1.00  0.00     0.433 A 
BRANCH  30  31
ATOM     31  N   UNL     1      -9.548 -42.169  34.122  1.00  0.00     0.102 N 
ATOM     32  O   UNL     1      -8.727 -42.059  35.044  1.00  0.00    -0.256 OA
ATOM     33  O   UNL     1     -10.647 -41.612  34.048  1.00  0.00    -0.256 OA
ENDBRANCH  30  31
ENDBRANCH  25  26
ENDBRANCH  24  25
ENDBRANCH   1  19
TORSDOF 10
ENDMDL
MODEL 4
REMARK VINA RESULT:   -10.111      2.872      4.760
REMARK INTER + INTRA:         -16.948
REMARK INTER:                 -16.771
REMARK INTRA:                  -0.177
REMARK UNBOUND:                -1.221
REMARK SMILES COc1cc2c(cc1OC)S[C@H](C(O)=CCc1cc[n+](Cc3coc([N+](=O)[O-])c3)cc1)C2
REMARK SMILES IDX 16 1 15 2 13 3 14 4 12 6 32 7 11 8 5 9 6 10 4 11 7 12 3 13
REMARK SMILES IDX 8 14 2 15 1 16 9 17 10 18 17 19 18 20 31 21 19 22 30 23
REMARK SMILES IDX 20 24 21 25 22 26 23 27 29 28 24 29 25 30 26 31 27 32 28 33
REMARK H PARENT 14 5
ROOT
ATOM      1  C   UNL     1     -13.425 -43.589  26.563  1.00  0.00     0.067 C 
ENDROOT
BRANCH   1   2
ATOM      2  C   UNL     1     -13.402 -44.782  27.478  1.00  0.00     0.020 C 
BRANCH   2   3
ATOM      3  C   UNL     1     -12.432 -45.035  28.374  1.00  0.00     0.102 C 
BRANCH   3   4
ATOM      4  O   UNL     1     -11.160 -44.527  28.128  1.00  0.00    -0.511 OA
ATOM      5  H   UNL     1     -11.165 -43.596  28.437  1.00  0.00     0.293 HD
ENDBRANCH   3   4
BRANCH   3   6
ATOM      6  C   UNL     1     -12.568 -45.836  29.671  1.00  0.00     0.121 C 
ATOM      7  C   UNL     1     -13.740 -45.505  30.621  1.00  0.00     0.059 C 
ATOM      8  S   UNL     1     -11.051 -45.529  30.664  1.00  0.00    -0.114 SA
ATOM      9  C   UNL     1     -13.271 -44.415  31.546  1.00  0.00    -0.029 A 
ATOM     10  C   UNL     1     -11.884 -44.348  31.684  1.00  0.00     0.015 A 
ATOM     11  C   UNL     1     -14.098 -43.563  32.275  1.00  0.00     0.055 A 
ATOM     12  C   UNL     1     -11.298 -43.428  32.534  1.00  0.00     0.065 A 
ATOM     13  C   UNL     1     -13.526 -42.616  33.138  1.00  0.00     0.161 A 
ATOM     14  C   UNL     1     -12.118 -42.569  33.275  1.00  0.00     0.161 A 
BRANCH  13  15
ATOM     15  O   UNL     1     -14.250 -41.696  33.847  1.00  0.00    -0.493 OA
ATOM     16  C   UNL     1     -15.521 -41.311  33.342  1.00  0.00     0.278 C 
ENDBRANCH  13  15
BRANCH  14  17
ATOM     17  O   UNL     1     -11.431 -41.679  34.061  1.00  0.00    -0.493 OA
ATOM     18  C   UNL     1     -10.169 -42.148  34.528  1.00  0.00     0.278 C 
ENDBRANCH  14  17
ENDBRANCH   3   6
ENDBRANCH   2   3
ENDBRANCH   1   2
BRANCH   1  19
ATOM     19  C   UNL     1     -14.809 -43.295  26.034  1.00  0.00    -0.032 A 
ATOM     20  C   UNL     1     -15.109 -43.529  24.690  1.00  0.00     0.075 A 
ATOM     21  C   UNL     1     -15.815 -42.806  26.864  1.00  0.00     0.075 A 
ATOM     22  C   UNL     1     -16.384 -43.264  24.210  1.00  0.00     0.308 A 
ATOM     23  C   UNL     1     -17.079 -42.553  26.340  1.00  0.00     0.308 A 
ATOM     24  N   UNL     1     -17.344 -42.781  25.033  1.00  0.00    -0.201 N 
BRANCH  24  25
ATOM     25  C   UNL     1     -18.701 -42.509  24.500  1.00  0.00     0.397 C 
BRANCH  25  26
ATOM     26  C   UNL     1     -18.613 -41.640  23.293  1.00  0.00     0.063 A 
ATOM     27  C   UNL     1     -17.460 -41.245  22.634  1.00  0.00     0.213 A 
ATOM     28  C   UNL     1     -19.688 -41.022  22.579  1.00  0.00     0.143 A 
ATOM     29  O   UNL     1     -17.752 -40.452  21.569  1.00  0.00    -0.409 OA
ATOM     30  C   UNL     1     -19.103 -40.320  21.549  1.00  0.00     0.433 A 
BRANCH  30  31
ATOM     31  N   UNL     1     -19.661 -39.514  20.507  1.00  0.00     0.102 N 
ATOM     32  O   UNL     1     -20.444 -38.629  20.877  1.00  0.00    -0.256 OA
ATOM     33  O   UNL     1     -19.330 -39.762  19.344  1.00  0.00    -0.256 OA
ENDBRANCH  30  31
ENDBRANCH  25  26
ENDBRANCH  24  25
ENDBRANCH   1  19
TORSDOF 10
ENDMDL
MODEL 5
REMARK VINA RESULT:    -9.840      2.454      4.148
REMARK INTER + INTRA:         -16.526
REMARK INTER:                 -15.727
REMARK INTRA:                  -0.799
REMARK UNBOUND:                -1.221
REMARK SMILES COc1cc2c(cc1OC)S[C@H](C(O)=CCc1cc[n+](Cc3coc([N+](=O)[O-])c3)cc1)C2
REMARK SMILES IDX 16 1 15 2 13 3 14 4 12 6 32 7 11 8 5 9 6 10 4 11 7 12 3 13
REMARK SMILES IDX 8 14 2 15 1 16 9 17 10 18 17 19 18 20 31 21 19 22 30 23
REMARK SMILES IDX 20 24 21 25 22 26 23 27 29 28 24 29 25 30 26 31 27 32 28 33
REMARK H PARENT 14 5
ROOT
ATOM      1  C   UNL     1     -13.422 -45.485  27.124  1.00  0.00     0.067 C 
ENDROOT
BRANCH   1   2
ATOM      2  C   UNL     1     -12.427 -44.841  28.050  1.00  0.00     0.020 C 
BRANCH   2   3
ATOM      3  C   UNL     1     -11.519 -45.514  28.777  1.00  0.00     0.102 C 
BRANCH   3   4
ATOM      4  O   UNL     1     -10.230 -45.641  28.268  1.00  0.00    -0.511 OA
ATOM      5  H   UNL     1      -9.873 -44.732  28.177  1.00  0.00     0.293 HD
ENDBRANCH   3   4
BRANCH   3   6
ATOM      6  C   UNL     1     -11.742 -46.174  30.139  1.00  0.00     0.121 C 
ATOM      7  C   UNL     1     -12.996 -45.781  30.951  1.00  0.00     0.059 C 
ATOM      8  S   UNL     1     -10.321 -45.713  31.210  1.00  0.00    -0.114 SA
ATOM      9  C   UNL     1     -12.631 -44.583  31.784  1.00  0.00    -0.029 A 
ATOM     10  C   UNL     1     -11.262 -44.456  32.024  1.00  0.00     0.015 A 
ATOM     11  C   UNL     1     -13.535 -43.684  32.347  1.00  0.00     0.055 A 
ATOM     12  C   UNL     1     -10.770 -43.431  32.811  1.00  0.00     0.065 A 
ATOM     13  C   UNL     1     -13.059 -42.632  33.143  1.00  0.00     0.161 A 
ATOM     14  C   UNL     1     -11.669 -42.525  33.385  1.00  0.00     0.161 A 
BRANCH  13  15
ATOM     15  O   UNL     1     -13.860 -41.664  33.686  1.00  0.00    -0.493 OA
ATOM     16  C   UNL     1     -15.221 -41.615  33.279  1.00  0.00     0.278 C 
ENDBRANCH  13  15
BRANCH  14  17
ATOM     17  O   UNL     1     -11.070 -41.532  34.121  1.00  0.00    -0.493 OA
ATOM     18  C   UNL     1      -9.764 -41.849  34.595  1.00  0.00     0.278 C 
ENDBRANCH  14  17
ENDBRANCH   3   6
ENDBRANCH   2   3
ENDBRANCH   1   2
BRANCH   1  19
ATOM     19  C   UNL     1     -14.034 -44.497  26.158  1.00  0.00    -0.032 A 
ATOM     20  C   UNL     1     -14.295 -44.876  24.840  1.00  0.00     0.075 A 
ATOM     21  C   UNL     1     -14.368 -43.204  26.557  1.00  0.00     0.075 A 
ATOM     22  C   UNL     1     -14.864 -43.968  23.959  1.00  0.00     0.308 A 
ATOM     23  C   UNL     1     -14.935 -42.326  25.639  1.00  0.00     0.308 A 
ATOM     24  N   UNL     1     -15.172 -42.714  24.364  1.00  0.00    -0.201 N 
BRANCH  24  25
ATOM     25  C   UNL     1     -15.784 -41.760  23.407  1.00  0.00     0.397 C 
BRANCH  25  26
ATOM     26  C   UNL     1     -17.263 -41.932  23.385  1.00  0.00     0.063 A 
ATOM     27  C   UNL     1     -18.020 -42.739  24.220  1.00  0.00     0.213 A 
ATOM     28  C   UNL     1     -18.203 -41.322  22.496  1.00  0.00     0.143 A 
ATOM     29  O   UNL     1     -19.342 -42.653  23.918  1.00  0.00    -0.409 OA
ATOM     30  C   UNL     1     -19.440 -41.796  22.869  1.00  0.00     0.433 A 
BRANCH  30  31
ATOM     31  N   UNL     1     -20.752 -41.543  22.358  1.00  0.00     0.102 N 
ATOM     32  O   UNL     1     -20.870 -41.615  21.127  1.00  0.00    -0.256 OA
ATOM     33  O   UNL     1     -21.645 -41.272  23.167  1.00  0.00    -0.256 OA
ENDBRANCH  30  31
ENDBRANCH  25  26
ENDBRANCH  24  25
ENDBRANCH   1  19
TORSDOF 10
ENDMDL
MODEL 6
REMARK VINA RESULT:    -9.375      3.547      6.057
REMARK INTER + INTRA:         -15.802
REMARK INTER:                 -15.461
REMARK INTRA:                  -0.341
REMARK UNBOUND:                -1.221
REMARK SMILES COc1cc2c(cc1OC)S[C@H](C(O)=CCc1cc[n+](Cc3coc([N+](=O)[O-])c3)cc1)C2
REMARK SMILES IDX 16 1 15 2 13 3 14 4 12 6 32 7 11 8 5 9 6 10 4 11 7 12 3 13
REMARK SMILES IDX 8 14 2 15 1 16 9 17 10 18 17 19 18 20 31 21 19 22 30 23
REMARK SMILES IDX 20 24 21 25 22 26 23 27 29 28 24 29 25 30 26 31 27 32 28 33
REMARK H PARENT 14 5
ROOT
ATOM      1  C   UNL     1     -14.570 -43.074  25.894  1.00  0.00     0.067 C 
ENDROOT
BRANCH   1   2
ATOM      2  C   UNL     1     -14.417 -44.228  26.847  1.00  0.00     0.020 C 
BRANCH   2   3
ATOM      3  C   UNL     1     -13.407 -44.362  27.723  1.00  0.00     0.102 C 
BRANCH   3   4
ATOM      4  O   UNL     1     -12.381 -43.421  27.694  1.00  0.00    -0.511 OA
ATOM      5  H   UNL     1     -12.766 -42.597  27.327  1.00  0.00     0.293 HD
ENDBRANCH   3   4
BRANCH   3   6
ATOM      6  C   UNL     1     -13.250 -45.455  28.781  1.00  0.00     0.121 C 
ATOM      7  C   UNL     1     -13.276 -45.047  30.271  1.00  0.00     0.059 C 
ATOM      8  S   UNL     1     -11.599 -46.226  28.530  1.00  0.00    -0.114 SA
ATOM      9  C   UNL     1     -11.866 -44.703  30.665  1.00  0.00    -0.029 A 
ATOM     10  C   UNL     1     -10.893 -45.290  29.855  1.00  0.00     0.015 A 
ATOM     11  C   UNL     1     -11.500 -43.929  31.765  1.00  0.00     0.055 A 
ATOM     12  C   UNL     1      -9.547 -45.107  30.115  1.00  0.00     0.065 A 
ATOM     13  C   UNL     1     -10.141 -43.723  32.043  1.00  0.00     0.161 A 
ATOM     14  C   UNL     1      -9.168 -44.335  31.219  1.00  0.00     0.161 A 
BRANCH  13  15
ATOM     15  O   UNL     1      -9.684 -42.930  33.061  1.00  0.00    -0.493 OA
ATOM     16  C   UNL     1     -10.630 -42.423  33.992  1.00  0.00     0.278 C 
ENDBRANCH  13  15
BRANCH  14  17
ATOM     17  O   UNL     1      -7.810 -44.195  31.364  1.00  0.00    -0.493 OA
ATOM     18  C   UNL     1      -7.126 -45.386  31.742  1.00  0.00     0.278 C 
ENDBRANCH  14  17
ENDBRANCH   3   6
ENDBRANCH   2   3
ENDBRANCH   1   2
BRANCH   1  19
ATOM     19  C   UNL     1     -16.017 -42.763  25.592  1.00  0.00    -0.032 A 
ATOM     20  C   UNL     1     -16.448 -42.651  24.268  1.00  0.00     0.075 A 
ATOM     21  C   UNL     1     -16.953 -42.601  26.611  1.00  0.00     0.075 A 
ATOM     22  C   UNL     1     -17.779 -42.372  23.996  1.00  0.00     0.308 A 
ATOM     23  C   UNL     1     -18.278 -42.321  26.292  1.00  0.00     0.308 A 
ATOM     24  N   UNL     1     -18.670 -42.210  25.001  1.00  0.00    -0.201 N 
BRANCH  24  25
ATOM     25  C   UNL     1     -20.090 -41.917  24.688  1.00  0.00     0.397 C 
BRANCH  25  26
ATOM     26  C   UNL     1     -20.225 -41.497  23.264  1.00  0.00     0.063 A 
ATOM     27  C   UNL     1     -20.703 -42.263  22.213  1.00  0.00     0.213 A 
ATOM     28  C   UNL     1     -19.875 -40.236  22.687  1.00  0.00     0.143 A 
ATOM     29  O   UNL     1     -20.686 -41.560  21.049  1.00  0.00    -0.409 OA
ATOM     30  C   UNL     1     -20.178 -40.337  21.347  1.00  0.00     0.433 A 
BRANCH  30  31
ATOM     31  N   UNL     1     -20.055 -39.405  20.269  1.00  0.00     0.102 N 
ATOM     32  O   UNL     1     -19.234 -39.708  19.392  1.00  0.00    -0.256 OA
ATOM     33  O   UNL     1     -20.756 -38.390  20.299  1.00  0.00    -0.256 OA
ENDBRANCH  30  31
ENDBRANCH  25  26
ENDBRANCH  24  25
ENDBRANCH   1  19
TORSDOF 10
ENDMDL
MODEL 7
REMARK VINA RESULT:    -9.309      4.179      7.242
REMARK INTER + INTRA:         -15.699
REMARK INTER:                 -14.687
REMARK INTRA:                  -1.011
REMARK UNBOUND:                -1.221
REMARK SMILES COc1cc2c(cc1OC)S[C@H](C(O)=CCc1cc[n+](Cc3coc([N+](=O)[O-])c3)cc1)C2
REMARK SMILES IDX 16 1 15 2 13 3 14 4 12 6 32 7 11 8 5 9 6 10 4 11 7 12 3 13
REMARK SMILES IDX 8 14 2 15 1 16 9 17 10 18 17 19 18 20 31 21 19 22 30 23
REMARK SMILES IDX 20 24 21 25 22 26 23 27 29 28 24 29 25 30 26 31 27 32 28 33
REMARK H PARENT 14 5
ROOT
ATOM      1  C   UNL     1     -17.586 -42.322  28.078  1.00  0.00     0.067 C 
ENDROOT
BRANCH   1   2
ATOM      2  C   UNL     1     -16.145 -42.503  27.687  1.00  0.00     0.020 C 
BRANCH   2   3
ATOM      3  C   UNL     1     -15.379 -43.540  28.068  1.00  0.00     0.102 C 
BRANCH   3   4
ATOM      4  O   UNL     1     -15.433 -43.945  29.399  1.00  0.00    -0.511 OA
ATOM      5  H   UNL     1     -14.963 -44.804  29.450  1.00  0.00     0.293 HD
ENDBRANCH   3   4
BRANCH   3   6
ATOM      6  C   UNL     1     -14.430 -44.353  27.185  1.00  0.00     0.121 C 
ATOM      7  C   UNL     1     -13.431 -45.314  27.867  1.00  0.00     0.059 C 
ATOM      8  S   UNL     1     -13.381 -43.157  26.263  1.00  0.00    -0.114 SA
ATOM      9  C   UNL     1     -12.190 -44.523  28.175  1.00  0.00    -0.029 A 
ATOM     10  C   UNL     1     -12.028 -43.390  27.378  1.00  0.00     0.015 A 
ATOM     11  C   UNL     1     -11.221 -44.873  29.114  1.00  0.00     0.055 A 
ATOM     12  C   UNL     1     -10.913 -42.582  27.507  1.00  0.00     0.065 A 
ATOM     13  C   UNL     1     -10.085 -44.064  29.269  1.00  0.00     0.161 A 
ATOM     14  C   UNL     1      -9.931 -42.926  28.444  1.00  0.00     0.161 A 
BRANCH  13  15
ATOM     15  O   UNL     1      -9.112 -44.290  30.205  1.00  0.00    -0.493 OA
ATOM     16  C   UNL     1      -9.362 -43.885  31.544  1.00  0.00     0.278 C 
ENDBRANCH  13  15
BRANCH  14  17
ATOM     17  O   UNL     1      -8.885 -42.039  28.509  1.00  0.00    -0.493 OA
ATOM     18  C   UNL     1      -8.179 -41.860  27.284  1.00  0.00     0.278 C 
ENDBRANCH  14  17
ENDBRANCH   3   6
ENDBRANCH   2   3
ENDBRANCH   1   2
BRANCH   1  19
ATOM     19  C   UNL     1     -18.518 -42.393  26.891  1.00  0.00    -0.032 A 
ATOM     20  C   UNL     1     -18.001 -42.459  25.596  1.00  0.00     0.075 A 
ATOM     21  C   UNL     1     -19.902 -42.415  27.056  1.00  0.00     0.075 A 
ATOM     22  C   UNL     1     -18.861 -42.532  24.510  1.00  0.00     0.308 A 
ATOM     23  C   UNL     1     -20.727 -42.487  25.939  1.00  0.00     0.308 A 
ATOM     24  N   UNL     1     -20.202 -42.543  24.692  1.00  0.00    -0.201 N 
BRANCH  24  25
ATOM     25  C   UNL     1     -21.104 -42.625  23.518  1.00  0.00     0.397 C 
BRANCH  25  26
ATOM     26  C   UNL     1     -21.007 -41.378  22.708  1.00  0.00     0.063 A 
ATOM     27  C   UNL     1     -21.466 -40.119  23.060  1.00  0.00     0.213 A 
ATOM     28  C   UNL     1     -20.441 -41.224  21.403  1.00  0.00     0.143 A 
ATOM     29  O   UNL     1     -21.208 -39.213  22.080  1.00  0.00    -0.409 OA
ATOM     30  C   UNL     1     -20.593 -39.894  21.080  1.00  0.00     0.433 A 
BRANCH  30  31
ATOM     31  N   UNL     1     -20.222 -39.147  19.918  1.00  0.00     0.102 N 
ATOM     32  O   UNL     1     -19.140 -39.460  19.404  1.00  0.00    -0.256 OA
ATOM     33  O   UNL     1     -20.990 -38.261  19.531  1.00  0.00    -0.256 OA
ENDBRANCH  30  31
ENDBRANCH  25  26
ENDBRANCH  24  25
ENDBRANCH   1  19
TORSDOF 10
ENDMDL
MODEL 8
REMARK VINA RESULT:    -8.947      4.491     10.257
REMARK INTER + INTRA:         -15.137
REMARK INTER:                 -14.176
REMARK INTRA:                  -0.961
REMARK UNBOUND:                -1.221
REMARK SMILES COc1cc2c(cc1OC)S[C@H](C(O)=CCc1cc[n+](Cc3coc([N+](=O)[O-])c3)cc1)C2
REMARK SMILES IDX 16 1 15 2 13 3 14 4 12 6 32 7 11 8 5 9 6 10 4 11 7 12 3 13
REMARK SMILES IDX 8 14 2 15 1 16 9 17 10 18 17 19 18 20 31 21 19 22 30 23
REMARK SMILES IDX 20 24 21 25 22 26 23 27 29 28 24 29 25 30 26 31 27 32 28 33
REMARK H PARENT 14 5
ROOT
ATOM      1  C   UNL     1     -14.769 -43.901  25.706  1.00  0.00     0.067 C 
ENDROOT
BRANCH   1   2
ATOM      2  C   UNL     1     -15.671 -42.726  25.966  1.00  0.00     0.020 C 
BRANCH   2   3
ATOM      3  C   UNL     1     -16.988 -42.704  25.699  1.00  0.00     0.102 C 
BRANCH   3   4
ATOM      4  O   UNL     1     -17.823 -41.999  26.561  1.00  0.00    -0.511 OA
ATOM      5  H   UNL     1     -17.246 -41.401  27.085  1.00  0.00     0.293 HD
ENDBRANCH   3   4
BRANCH   3   6
ATOM      6  C   UNL     1     -17.697 -43.379  24.524  1.00  0.00     0.121 C 
ATOM      7  C   UNL     1     -17.573 -42.739  23.123  1.00  0.00     0.059 C 
ATOM      8  S   UNL     1     -19.498 -43.368  24.892  1.00  0.00    -0.114 SA
ATOM      9  C   UNL     1     -18.684 -41.734  22.992  1.00  0.00    -0.029 A 
ATOM     10  C   UNL     1     -19.767 -41.974  23.837  1.00  0.00     0.015 A 
ATOM     11  C   UNL     1     -18.714 -40.677  22.084  1.00  0.00     0.055 A 
ATOM     12  C   UNL     1     -20.888 -41.165  23.804  1.00  0.00     0.065 A 
ATOM     13  C   UNL     1     -19.836 -39.838  22.037  1.00  0.00     0.161 A 
ATOM     14  C   UNL     1     -20.931 -40.102  22.893  1.00  0.00     0.161 A 
BRANCH  13  15
ATOM     15  O   UNL     1     -19.933 -38.739  21.226  1.00  0.00    -0.493 OA
ATOM     16  C   UNL     1     -20.079 -38.950  19.828  1.00  0.00     0.278 C 
ENDBRANCH  13  15
BRANCH  14  17
ATOM     17  O   UNL     1     -22.076 -39.348  22.967  1.00  0.00    -0.493 OA
ATOM     18  C   UNL     1     -23.097 -39.723  22.046  1.00  0.00     0.278 C 
ENDBRANCH  14  17
ENDBRANCH   3   6
ENDBRANCH   2   3
ENDBRANCH   1   2
BRANCH   1  19
ATOM     19  C   UNL     1     -14.217 -44.498  26.979  1.00  0.00    -0.032 A 
ATOM     20  C   UNL     1     -13.202 -45.455  26.921  1.00  0.00     0.075 A 
ATOM     21  C   UNL     1     -14.686 -44.101  28.230  1.00  0.00     0.075 A 
ATOM     22  C   UNL     1     -12.693 -45.995  28.094  1.00  0.00     0.308 A 
ATOM     23  C   UNL     1     -14.148 -44.670  29.379  1.00  0.00     0.308 A 
ATOM     24  N   UNL     1     -13.169 -45.602  29.298  1.00  0.00    -0.201 N 
BRANCH  24  25
ATOM     25  C   UNL     1     -12.608 -46.189  30.539  1.00  0.00     0.397 C 
BRANCH  25  26
ATOM     26  C   UNL     1     -11.429 -45.398  30.993  1.00  0.00     0.063 A 
ATOM     27  C   UNL     1     -11.440 -44.290  31.824  1.00  0.00     0.213 A 
ATOM     28  C   UNL     1     -10.054 -45.605  30.655  1.00  0.00     0.143 A 
ATOM     29  O   UNL     1     -10.181 -43.820  32.029  1.00  0.00    -0.409 OA
ATOM     30  C   UNL     1      -9.351 -44.620  31.312  1.00  0.00     0.433 A 
BRANCH  30  31
ATOM     31  N   UNL     1      -7.954 -44.319  31.363  1.00  0.00     0.102 N 
ATOM     32  O   UNL     1      -7.230 -45.216  31.814  1.00  0.00    -0.256 OA
ATOM     33  O   UNL     1      -7.587 -43.208  30.969  1.00  0.00    -0.256 OA
ENDBRANCH  30  31
ENDBRANCH  25  26
ENDBRANCH  24  25
ENDBRANCH   1  19
TORSDOF 10
ENDMDL
MODEL 9
REMARK VINA RESULT:    -8.931      5.074      9.891
REMARK INTER + INTRA:         -15.112
REMARK INTER:                 -13.970
REMARK INTRA:                  -1.141
REMARK UNBOUND:                -1.221
REMARK SMILES COc1cc2c(cc1OC)S[C@H](C(O)=CCc1cc[n+](Cc3coc([N+](=O)[O-])c3)cc1)C2
REMARK SMILES IDX 16 1 15 2 13 3 14 4 12 6 32 7 11 8 5 9 6 10 4 11 7 12 3 13
REMARK SMILES IDX 8 14 2 15 1 16 9 17 10 18 17 19 18 20 31 21 19 22 30 23
REMARK SMILES IDX 20 24 21 25 22 26 23 27 29 28 24 29 25 30 26 31 27 32 28 33
REMARK H PARENT 14 5
ROOT
ATOM      1  C   UNL     1     -16.037 -42.676  23.178  1.00  0.00     0.067 C 
ENDROOT
BRANCH   1   2
ATOM      2  C   UNL     1     -17.413 -42.077  23.282  1.00  0.00     0.020 C 
BRANCH   2   3
ATOM      3  C   UNL     1     -17.919 -41.183  22.416  1.00  0.00     0.102 C 
BRANCH   3   4
ATOM      4  O   UNL     1     -17.035 -40.346  21.741  1.00  0.00    -0.511 OA
ATOM      5  H   UNL     1     -16.478 -40.923  21.176  1.00  0.00     0.293 HD
ENDBRANCH   3   4
BRANCH   3   6
ATOM      6  C   UNL     1     -19.395 -40.972  22.073  1.00  0.00     0.121 C 
ATOM      7  C   UNL     1     -20.266 -40.146  23.046  1.00  0.00     0.059 C 
ATOM      8  S   UNL     1     -20.187 -42.630  22.021  1.00  0.00    -0.114 SA
ATOM      9  C   UNL     1     -20.818 -41.099  24.070  1.00  0.00    -0.029 A 
ATOM     10  C   UNL     1     -20.866 -42.425  23.642  1.00  0.00     0.015 A 
ATOM     11  C   UNL     1     -21.312 -40.740  25.323  1.00  0.00     0.055 A 
ATOM     12  C   UNL     1     -21.389 -43.416  24.452  1.00  0.00     0.065 A 
ATOM     13  C   UNL     1     -21.841 -41.729  26.166  1.00  0.00     0.161 A 
ATOM     14  C   UNL     1     -21.892 -43.068  25.711  1.00  0.00     0.161 A 
BRANCH  13  15
ATOM     15  O   UNL     1     -22.291 -41.487  27.436  1.00  0.00    -0.493 OA
ATOM     16  C   UNL     1     -23.588 -40.926  27.591  1.00  0.00     0.278 C 
ENDBRANCH  13  15
BRANCH  14  17
ATOM     17  O   UNL     1     -22.359 -44.132  26.442  1.00  0.00    -0.493 OA
ATOM     18  C   UNL     1     -21.343 -44.963  26.998  1.00  0.00     0.278 C 
ENDBRANCH  14  17
ENDBRANCH   3   6
ENDBRANCH   2   3
ENDBRANCH   1   2
BRANCH   1  19
ATOM     19  C   UNL     1     -15.532 -43.195  24.505  1.00  0.00    -0.032 A 
ATOM     20  C   UNL     1     -16.011 -42.650  25.698  1.00  0.00     0.075 A 
ATOM     21  C   UNL     1     -14.602 -44.230  24.572  1.00  0.00     0.075 A 
ATOM     22  C   UNL     1     -15.550 -43.135  26.913  1.00  0.00     0.308 A 
ATOM     23  C   UNL     1     -14.166 -44.684  25.813  1.00  0.00     0.308 A 
ATOM     24  N   UNL     1     -14.640 -44.135  26.957  1.00  0.00    -0.201 N 
BRANCH  24  25
ATOM     25  C   UNL     1     -14.163 -44.641  28.267  1.00  0.00     0.397 C 
BRANCH  25  26
ATOM     26  C   UNL     1     -12.676 -44.573  28.332  1.00  0.00     0.063 A 
ATOM     27  C   UNL     1     -11.798 -45.640  28.436  1.00  0.00     0.213 A 
ATOM     28  C   UNL     1     -11.852 -43.404  28.321  1.00  0.00     0.143 A 
ATOM     29  O   UNL     1     -10.509 -45.211  28.471  1.00  0.00    -0.409 OA
ATOM     30  C   UNL     1     -10.554 -43.855  28.406  1.00  0.00     0.433 A 
BRANCH  30  31
ATOM     31  N   UNL     1      -9.303 -43.162  28.432  1.00  0.00     0.102 N 
ATOM     32  O   UNL     1      -8.825 -42.965  29.558  1.00  0.00    -0.256 OA
ATOM     33  O   UNL     1      -8.811 -42.816  27.354  1.00  0.00    -0.256 OA
ENDBRANCH  30  31
ENDBRANCH  25  26
ENDBRANCH  24  25
ENDBRANCH   1  19
TORSDOF 10
ENDMDL
