MODEL 1
REMARK VINA RESULT:   -13.509      0.000      0.000
REMARK INTER + INTRA:         -19.984
REMARK INTER:                 -19.036
REMARK INTRA:                  -0.947
REMARK UNBOUND:                -0.947
REMARK SMILES Cc1cc(=O)[nH]c2c1C(=O)C(=NCCCCNc1c3c(nc4cc(Cl)ccc14)CCCC3)CC2=O
REMARK SMILES IDX 14 1 13 2 12 3 11 4 33 5 34 6 7 7 9 8 6 9 8 10 4 11 2 12
REMARK SMILES IDX 3 13 35 14 10 15 5 17 1 18 15 19 16 20 17 21 18 23 19 24
REMARK SMILES IDX 28 25 20 26 32 27 27 28 22 29 21 30 29 31 31 32 26 33 23 34
REMARK SMILES IDX 30 35 24 36 25 37
REMARK H PARENT 6 16 17 22
ROOT
ATOM      1  C   UNL     1     -12.865 -46.104  27.575  1.00  0.00     0.025 C 
ENDROOT
BRANCH   1   2
ATOM      2  C   UNL     1     -13.097 -44.594  27.646  1.00  0.00     0.142 C 
BRANCH   2   3
ATOM      3  N   UNL     1     -14.541 -44.362  27.678  1.00  0.00    -0.285 NA
BRANCH   3   4
ATOM      4  C   UNL     1     -15.024 -43.369  27.009  1.00  0.00     0.091 C 
ATOM      5  C   UNL     1     -14.263 -42.801  25.855  1.00  0.00     0.142 C 
ATOM      6  C   UNL     1     -15.141 -42.522  24.670  1.00  0.00     0.185 C 
ATOM      7  C   UNL     1     -16.621 -42.421  24.871  1.00  0.00     0.097 A 
ATOM      8  C   UNL     1     -16.352 -42.698  27.273  1.00  0.00     0.209 C 
ATOM      9  N   UNL     1     -17.371 -42.213  23.734  1.00  0.00    -0.319 N 
ATOM     10  C   UNL     1     -17.215 -42.492  26.077  1.00  0.00     0.054 A 
ATOM     11  C   UNL     1     -18.730 -42.064  23.719  1.00  0.00     0.248 A 
ATOM     12  C   UNL     1     -18.674 -42.346  26.166  1.00  0.00    -0.032 A 
ATOM     13  C   UNL     1     -19.392 -42.146  25.044  1.00  0.00     0.075 A 
ATOM     14  O   UNL     1     -14.671 -42.339  23.547  1.00  0.00    -0.292 OA
ATOM     15  O   UNL     1     -16.645 -42.351  28.405  1.00  0.00    -0.287 OA
ATOM     16  H   UNL     1     -16.887 -42.147  22.841  1.00  0.00     0.170 HD
ATOM     17  O   UNL     1     -19.375 -41.874  22.698  1.00  0.00    -0.270 OA
ATOM     18  C   UNL     1     -19.362 -42.445  27.498  1.00  0.00     0.045 C 
ENDBRANCH   3   4
ENDBRANCH   2   3
ENDBRANCH   1   2
BRANCH   1  19
ATOM     19  C   UNL     1     -11.473 -46.528  28.048  1.00  0.00     0.023 C 
BRANCH  19  20
ATOM     20  C   UNL     1     -10.834 -45.531  29.016  1.00  0.00     0.113 C 
BRANCH  20  21
ATOM     21  N   UNL     1     -11.072 -45.919  30.420  1.00  0.00    -0.384 N 
ATOM     22  H   UNL     1     -12.040 -46.226  30.517  1.00  0.00     0.160 HD
BRANCH  21  23
ATOM     23  C   UNL     1     -10.862 -44.842  31.336  1.00  0.00     0.049 A 
ATOM     24  C   UNL     1      -9.569 -44.526  31.804  1.00  0.00    -0.003 A 
ATOM     25  C   UNL     1     -11.982 -44.117  31.825  1.00  0.00     0.024 A 
ATOM     26  C   UNL     1      -9.458 -43.503  32.750  1.00  0.00     0.046 A 
ATOM     27  C   UNL     1      -8.330 -45.186  31.242  1.00  0.00     0.039 C 
ATOM     28  C   UNL     1     -13.306 -44.321  31.369  1.00  0.00     0.014 A 
ATOM     29  C   UNL     1     -11.749 -43.123  32.795  1.00  0.00     0.074 A 
ATOM     30  N   UNL     1     -10.524 -42.834  33.252  1.00  0.00    -0.252 NA
ATOM     31  C   UNL     1      -8.128 -43.099  33.334  1.00  0.00     0.056 C 
ATOM     32  C   UNL     1      -7.068 -44.963  32.073  1.00  0.00     0.005 C 
ATOM     33  C   UNL     1     -14.371 -43.584  31.884  1.00  0.00     0.021 A 
ATOM     34  C   UNL     1     -12.819 -42.402  33.300  1.00  0.00     0.049 A 
ATOM     35  C   UNL     1      -6.942 -43.500  32.467  1.00  0.00     0.007 C 
ATOM     36  C   UNL     1     -14.120 -42.628  32.856  1.00  0.00     0.043 A 
ATOM     37  Cl  UNL     1     -15.420 -41.709  33.507  1.00  0.00    -0.084 Cl
ENDBRANCH  21  23
ENDBRANCH  20  21
ENDBRANCH  19  20
ENDBRANCH   1  19
TORSDOF 7
ENDMDL
MODEL 2
REMARK VINA RESULT:   -13.170      1.688      3.517
REMARK INTER + INTRA:         -19.506
REMARK INTER:                 -18.435
REMARK INTRA:                  -1.071
REMARK UNBOUND:                -0.947
REMARK SMILES Cc1cc(=O)[nH]c2c1C(=O)C(=NCCCCNc1c3c(nc4cc(Cl)ccc14)CCCC3)CC2=O
REMARK SMILES IDX 14 1 13 2 12 3 11 4 33 5 34 6 7 7 9 8 6 9 8 10 4 11 2 12
REMARK SMILES IDX 3 13 35 14 10 15 5 17 1 18 15 19 16 20 17 21 18 23 19 24
REMARK SMILES IDX 28 25 20 26 32 27 27 28 22 29 21 30 29 31 31 32 26 33 23 34
REMARK SMILES IDX 30 35 24 36 25 37
REMARK H PARENT 6 16 17 22
ROOT
ATOM      1  C   UNL     1     -12.855 -46.117  27.822  1.00  0.00     0.025 C 
ENDROOT
BRANCH   1   2
ATOM      2  C   UNL     1     -13.032 -44.650  27.431  1.00  0.00     0.142 C 
BRANCH   2   3
ATOM      3  N   UNL     1     -14.424 -44.279  27.689  1.00  0.00    -0.285 NA
BRANCH   3   4
ATOM      4  C   UNL     1     -14.944 -43.311  27.013  1.00  0.00     0.091 C 
ATOM      5  C   UNL     1     -14.207 -42.727  25.852  1.00  0.00     0.142 C 
ATOM      6  C   UNL     1     -15.096 -42.491  24.667  1.00  0.00     0.185 C 
ATOM      7  C   UNL     1     -16.578 -42.442  24.869  1.00  0.00     0.097 A 
ATOM      8  C   UNL     1     -16.296 -42.687  27.274  1.00  0.00     0.209 C 
ATOM      9  N   UNL     1     -17.337 -42.271  23.733  1.00  0.00    -0.319 N 
ATOM     10  C   UNL     1     -17.168 -42.524  26.078  1.00  0.00     0.054 A 
ATOM     11  C   UNL     1     -18.701 -42.173  23.719  1.00  0.00     0.248 A 
ATOM     12  C   UNL     1     -18.630 -42.431  26.168  1.00  0.00    -0.032 A 
ATOM     13  C   UNL     1     -19.357 -42.267  25.045  1.00  0.00     0.075 A 
ATOM     14  O   UNL     1     -14.635 -42.300  23.541  1.00  0.00    -0.292 OA
ATOM     15  O   UNL     1     -16.598 -42.341  28.403  1.00  0.00    -0.287 OA
ATOM     16  H   UNL     1     -16.857 -42.196  22.838  1.00  0.00     0.170 HD
ATOM     17  O   UNL     1     -19.354 -42.016  22.697  1.00  0.00    -0.270 OA
ATOM     18  C   UNL     1     -19.312 -42.543  27.502  1.00  0.00     0.045 C 
ENDBRANCH   3   4
ENDBRANCH   2   3
ENDBRANCH   1   2
BRANCH   1  19
ATOM     19  C   UNL     1     -11.391 -46.561  27.871  1.00  0.00     0.023 C 
BRANCH  19  20
ATOM     20  C   UNL     1     -10.565 -45.805  28.912  1.00  0.00     0.113 C 
BRANCH  20  21
ATOM     21  N   UNL     1     -10.920 -46.220  30.283  1.00  0.00    -0.384 N 
ATOM     22  H   UNL     1     -11.872 -46.588  30.279  1.00  0.00     0.160 HD
BRANCH  21  23
ATOM     23  C   UNL     1     -10.875 -45.140  31.219  1.00  0.00     0.049 A 
ATOM     24  C   UNL     1     -12.053 -44.474  31.620  1.00  0.00    -0.003 A 
ATOM     25  C   UNL     1      -9.617 -44.698  31.710  1.00  0.00     0.024 A 
ATOM     26  C   UNL     1     -11.915 -43.386  32.486  1.00  0.00     0.046 A 
ATOM     27  C   UNL     1     -13.426 -44.965  31.219  1.00  0.00     0.039 C 
ATOM     28  C   UNL     1      -8.392 -45.340  31.415  1.00  0.00     0.014 A 
ATOM     29  C   UNL     1      -9.602 -43.575  32.560  1.00  0.00     0.074 A 
ATOM     30  N   UNL     1     -10.718 -42.932  32.926  1.00  0.00    -0.252 NA
ATOM     31  C   UNL     1     -13.105 -42.589  32.959  1.00  0.00     0.056 C 
ATOM     32  C   UNL     1     -14.549 -43.959  31.466  1.00  0.00     0.005 C 
ATOM     33  C   UNL     1      -7.184 -44.863  31.919  1.00  0.00     0.021 A 
ATOM     34  C   UNL     1      -8.392 -43.110  33.050  1.00  0.00     0.049 A 
ATOM     35  C   UNL     1     -14.421 -43.349  32.853  1.00  0.00     0.007 C 
ATOM     36  C   UNL     1      -7.191 -43.741  32.734  1.00  0.00     0.043 A 
ATOM     37  Cl  UNL     1      -5.711 -43.135  33.366  1.00  0.00    -0.084 Cl
ENDBRANCH  21  23
ENDBRANCH  20  21
ENDBRANCH  19  20
ENDBRANCH   1  19
TORSDOF 7
ENDMDL
MODEL 3
REMARK VINA RESULT:   -12.151      1.103      2.092
REMARK INTER + INTRA:         -18.070
REMARK INTER:                 -17.456
REMARK INTRA:                  -0.615
REMARK UNBOUND:                -0.947
REMARK SMILES Cc1cc(=O)[nH]c2c1C(=O)C(=NCCCCNc1c3c(nc4cc(Cl)ccc14)CCCC3)CC2=O
REMARK SMILES IDX 14 1 13 2 12 3 11 4 33 5 34 6 7 7 9 8 6 9 8 10 4 11 2 12
REMARK SMILES IDX 3 13 35 14 10 15 5 17 1 18 15 19 16 20 17 21 18 23 19 24
REMARK SMILES IDX 28 25 20 26 32 27 27 28 22 29 21 30 29 31 31 32 26 33 23 34
REMARK SMILES IDX 30 35 24 36 25 37
REMARK H PARENT 6 16 17 22
ROOT
ATOM      1  C   UNL     1     -13.293 -45.109  27.519  1.00  0.00     0.025 C 
ENDROOT
BRANCH   1   2
ATOM      2  C   UNL     1     -12.593 -43.757  27.376  1.00  0.00     0.142 C 
BRANCH   2   3
ATOM      3  N   UNL     1     -13.579 -42.788  26.897  1.00  0.00    -0.285 NA
BRANCH   3   4
ATOM      4  C   UNL     1     -14.811 -43.156  26.792  1.00  0.00     0.091 C 
ATOM      5  C   UNL     1     -15.642 -43.353  28.019  1.00  0.00     0.142 C 
ATOM      6  C   UNL     1     -17.017 -42.767  27.881  1.00  0.00     0.185 C 
ATOM      7  C   UNL     1     -17.543 -42.466  26.513  1.00  0.00     0.097 A 
ATOM      8  C   UNL     1     -15.544 -43.406  25.494  1.00  0.00     0.209 C 
ATOM      9  N   UNL     1     -18.791 -41.885  26.462  1.00  0.00    -0.319 N 
ATOM     10  C   UNL     1     -16.880 -42.760  25.378  1.00  0.00     0.054 A 
ATOM     11  C   UNL     1     -19.450 -41.564  25.307  1.00  0.00     0.248 A 
ATOM     12  C   UNL     1     -17.503 -42.451  24.085  1.00  0.00    -0.032 A 
ATOM     13  C   UNL     1     -18.723 -41.880  24.054  1.00  0.00     0.075 A 
ATOM     14  O   UNL     1     -17.734 -42.564  28.861  1.00  0.00    -0.292 OA
ATOM     15  O   UNL     1     -15.040 -44.112  24.637  1.00  0.00    -0.287 OA
ATOM     16  H   UNL     1     -19.271 -41.692  27.339  1.00  0.00     0.170 HD
ATOM     17  O   UNL     1     -20.561 -41.053  25.286  1.00  0.00    -0.270 OA
ATOM     18  C   UNL     1     -16.773 -42.749  22.806  1.00  0.00     0.045 C 
ENDBRANCH   3   4
ENDBRANCH   2   3
ENDBRANCH   1   2
BRANCH   1  19
ATOM     19  C   UNL     1     -12.414 -46.183  28.164  1.00  0.00     0.023 C 
BRANCH  19  20
ATOM     20  C   UNL     1     -11.278 -45.607  29.009  1.00  0.00     0.113 C 
BRANCH  20  21
ATOM     21  N   UNL     1     -11.437 -45.961  30.433  1.00  0.00    -0.384 N 
ATOM     22  H   UNL     1     -12.403 -46.245  30.596  1.00  0.00     0.160 HD
BRANCH  21  23
ATOM     23  C   UNL     1     -11.151 -44.870  31.311  1.00  0.00     0.049 A 
ATOM     24  C   UNL     1      -9.830 -44.598  31.728  1.00  0.00    -0.003 A 
ATOM     25  C   UNL     1     -12.221 -44.083  31.815  1.00  0.00     0.024 A 
ATOM     26  C   UNL     1      -9.644 -43.555  32.640  1.00  0.00     0.046 A 
ATOM     27  C   UNL     1      -8.640 -45.327  31.145  1.00  0.00     0.039 C 
ATOM     28  C   UNL     1     -13.567 -44.240  31.408  1.00  0.00     0.014 A 
ATOM     29  C   UNL     1     -11.913 -43.074  32.748  1.00  0.00     0.074 A 
ATOM     30  N   UNL     1     -10.662 -42.827  33.156  1.00  0.00    -0.252 NA
ATOM     31  C   UNL     1      -8.278 -43.195  33.169  1.00  0.00     0.056 C 
ATOM     32  C   UNL     1      -7.343 -45.138  31.928  1.00  0.00     0.005 C 
ATOM     33  C   UNL     1     -14.582 -43.443  31.936  1.00  0.00     0.021 A 
ATOM     34  C   UNL     1     -12.933 -42.293  33.267  1.00  0.00     0.049 A 
ATOM     35  C   UNL     1      -7.140 -43.672  32.276  1.00  0.00     0.007 C 
ATOM     36  C   UNL     1     -14.257 -42.473  32.872  1.00  0.00     0.043 A 
ATOM     37  Cl  UNL     1     -15.493 -41.480  33.537  1.00  0.00    -0.084 Cl
ENDBRANCH  21  23
ENDBRANCH  20  21
ENDBRANCH  19  20
ENDBRANCH   1  19
TORSDOF 7
ENDMDL
MODEL 4
REMARK VINA RESULT:   -12.062      3.979     10.852
REMARK INTER + INTRA:         -17.945
REMARK INTER:                 -17.270
REMARK INTRA:                  -0.676
REMARK UNBOUND:                -0.947
REMARK SMILES Cc1cc(=O)[nH]c2c1C(=O)C(=NCCCCNc1c3c(nc4cc(Cl)ccc14)CCCC3)CC2=O
REMARK SMILES IDX 14 1 13 2 12 3 11 4 33 5 34 6 7 7 9 8 6 9 8 10 4 11 2 12
REMARK SMILES IDX 3 13 35 14 10 15 5 17 1 18 15 19 16 20 17 21 18 23 19 24
REMARK SMILES IDX 28 25 20 26 32 27 27 28 22 29 21 30 29 31 31 32 26 33 23 34
REMARK SMILES IDX 30 35 24 36 25 37
REMARK H PARENT 6 16 17 22
ROOT
ATOM      1  C   UNL     1     -15.161 -42.344  24.851  1.00  0.00     0.025 C 
ENDROOT
BRANCH   1   2
ATOM      2  C   UNL     1     -15.448 -43.324  25.990  1.00  0.00     0.142 C 
BRANCH   2   3
ATOM      3  N   UNL     1     -14.316 -43.283  26.916  1.00  0.00    -0.285 NA
BRANCH   3   4
ATOM      4  C   UNL     1     -14.027 -44.345  27.590  1.00  0.00     0.091 C 
ATOM      5  C   UNL     1     -13.482 -45.549  26.894  1.00  0.00     0.142 C 
ATOM      6  C   UNL     1     -12.336 -46.172  27.636  1.00  0.00     0.185 C 
ATOM      7  C   UNL     1     -12.145 -45.842  29.084  1.00  0.00     0.097 A 
ATOM      8  C   UNL     1     -14.174 -44.500  29.086  1.00  0.00     0.209 C 
ATOM      9  N   UNL     1     -11.046 -46.409  29.692  1.00  0.00    -0.319 N 
ATOM     10  C   UNL     1     -12.992 -45.069  29.790  1.00  0.00     0.054 A 
ATOM     11  C   UNL     1     -10.722 -46.251  31.010  1.00  0.00     0.248 A 
ATOM     12  C   UNL     1     -12.728 -44.836  31.216  1.00  0.00    -0.032 A 
ATOM     13  C   UNL     1     -11.648 -45.396  31.793  1.00  0.00     0.075 A 
ATOM     14  O   UNL     1     -11.574 -46.973  27.095  1.00  0.00    -0.292 OA
ATOM     15  O   UNL     1     -15.217 -44.182  29.631  1.00  0.00    -0.287 OA
ATOM     16  H   UNL     1     -10.436 -47.002  29.132  1.00  0.00     0.170 HD
ATOM     17  O   UNL     1      -9.744 -46.769  31.530  1.00  0.00    -0.270 OA
ATOM     18  C   UNL     1     -13.647 -43.959  32.018  1.00  0.00     0.045 C 
ENDBRANCH   3   4
ENDBRANCH   2   3
ENDBRANCH   1   2
BRANCH   1  19
ATOM     19  C   UNL     1     -15.767 -42.773  23.513  1.00  0.00     0.023 C 
BRANCH  19  20
ATOM     20  C   UNL     1     -16.624 -41.687  22.861  1.00  0.00     0.113 C 
BRANCH  20  21
ATOM     21  N   UNL     1     -17.928 -42.223  22.425  1.00  0.00    -0.384 N 
ATOM     22  H   UNL     1     -17.952 -42.240  21.406  1.00  0.00     0.160 HD
BRANCH  21  23
ATOM     23  C   UNL     1     -19.031 -41.433  22.875  1.00  0.00     0.049 A 
ATOM     24  C   UNL     1     -19.557 -41.590  24.175  1.00  0.00    -0.003 A 
ATOM     25  C   UNL     1     -19.641 -40.516  21.977  1.00  0.00     0.024 A 
ATOM     26  C   UNL     1     -20.678 -40.827  24.513  1.00  0.00     0.046 A 
ATOM     27  C   UNL     1     -18.887 -42.466  25.209  1.00  0.00     0.039 C 
ATOM     28  C   UNL     1     -19.149 -40.247  20.678  1.00  0.00     0.014 A 
ATOM     29  C   UNL     1     -20.782 -39.821  22.423  1.00  0.00     0.074 A 
ATOM     30  N   UNL     1     -21.291 -39.982  23.651  1.00  0.00    -0.252 NA
ATOM     31  C   UNL     1     -21.335 -40.933  25.867  1.00  0.00     0.056 C 
ATOM     32  C   UNL     1     -19.752 -42.767  26.432  1.00  0.00     0.005 C 
ATOM     33  C   UNL     1     -19.788 -39.340  19.834  1.00  0.00     0.021 A 
ATOM     34  C   UNL     1     -21.408 -38.925  21.570  1.00  0.00     0.049 A 
ATOM     35  C   UNL     1     -20.414 -41.496  26.941  1.00  0.00     0.007 C 
ATOM     36  C   UNL     1     -20.923 -38.686  20.287  1.00  0.00     0.043 A 
ATOM     37  Cl  UNL     1     -21.728 -37.564  19.261  1.00  0.00    -0.084 Cl
ENDBRANCH  21  23
ENDBRANCH  20  21
ENDBRANCH  19  20
ENDBRANCH   1  19
TORSDOF 7
ENDMDL
MODEL 5
REMARK VINA RESULT:   -10.973      4.169     10.843
REMARK INTER + INTRA:         -16.411
REMARK INTER:                 -16.014
REMARK INTRA:                  -0.397
REMARK UNBOUND:                -0.947
REMARK SMILES Cc1cc(=O)[nH]c2c1C(=O)C(=NCCCCNc1c3c(nc4cc(Cl)ccc14)CCCC3)CC2=O
REMARK SMILES IDX 14 1 13 2 12 3 11 4 33 5 34 6 7 7 9 8 6 9 8 10 4 11 2 12
REMARK SMILES IDX 3 13 35 14 10 15 5 17 1 18 15 19 16 20 17 21 18 23 19 24
REMARK SMILES IDX 28 25 20 26 32 27 27 28 22 29 21 30 29 31 31 32 26 33 23 34
REMARK SMILES IDX 30 35 24 36 25 37
REMARK H PARENT 6 16 17 22
ROOT
ATOM      1  C   UNL     1     -14.779 -43.805  26.322  1.00  0.00     0.025 C 
ENDROOT
BRANCH   1   2
ATOM      2  C   UNL     1     -13.417 -43.139  26.523  1.00  0.00     0.142 C 
BRANCH   2   3
ATOM      3  N   UNL     1     -12.922 -43.516  27.846  1.00  0.00    -0.285 NA
BRANCH   3   4
ATOM      4  C   UNL     1     -11.663 -43.759  27.992  1.00  0.00     0.091 C 
ATOM      5  C   UNL     1     -10.651 -42.910  27.295  1.00  0.00     0.142 C 
ATOM      6  C   UNL     1      -9.497 -42.545  28.183  1.00  0.00     0.185 C 
ATOM      7  C   UNL     1      -9.254 -43.347  29.423  1.00  0.00     0.097 A 
ATOM      8  C   UNL     1     -11.075 -44.856  28.850  1.00  0.00     0.209 C 
ATOM      9  N   UNL     1      -8.210 -42.928  30.217  1.00  0.00    -0.319 N 
ATOM     10  C   UNL     1      -9.971 -44.437  29.757  1.00  0.00     0.054 A 
ATOM     11  C   UNL     1      -7.816 -43.548  31.370  1.00  0.00     0.248 A 
ATOM     12  C   UNL     1      -9.627 -45.172  30.981  1.00  0.00    -0.032 A 
ATOM     13  C   UNL     1      -8.604 -44.746  31.747  1.00  0.00     0.075 A 
ATOM     14  O   UNL     1      -8.727 -41.627  27.898  1.00  0.00    -0.292 OA
ATOM     15  O   UNL     1     -11.499 -45.995  28.756  1.00  0.00    -0.287 OA
ATOM     16  H   UNL     1      -7.678 -42.110  29.926  1.00  0.00     0.170 HD
ATOM     17  O   UNL     1      -6.881 -43.161  32.057  1.00  0.00    -0.270 OA
ATOM     18  C   UNL     1     -10.427 -46.378  31.386  1.00  0.00     0.045 C 
ENDBRANCH   3   4
ENDBRANCH   2   3
ENDBRANCH   1   2
BRANCH   1  19
ATOM     19  C   UNL     1     -15.957 -42.909  26.713  1.00  0.00     0.023 C 
BRANCH  19  20
ATOM     20  C   UNL     1     -17.016 -42.791  25.616  1.00  0.00     0.113 C 
BRANCH  20  21
ATOM     21  N   UNL     1     -18.195 -42.040  26.089  1.00  0.00    -0.384 N 
ATOM     22  H   UNL     1     -18.256 -42.127  27.103  1.00  0.00     0.160 HD
BRANCH  21  23
ATOM     23  C   UNL     1     -19.421 -42.525  25.536  1.00  0.00     0.049 A 
ATOM     24  C   UNL     1     -20.296 -43.328  26.297  1.00  0.00    -0.003 A 
ATOM     25  C   UNL     1     -19.734 -42.237  24.180  1.00  0.00     0.024 A 
ATOM     26  C   UNL     1     -21.441 -43.817  25.661  1.00  0.00     0.046 A 
ATOM     27  C   UNL     1     -20.074 -43.578  27.772  1.00  0.00     0.039 C 
ATOM     28  C   UNL     1     -18.951 -41.392  23.358  1.00  0.00     0.014 A 
ATOM     29  C   UNL     1     -20.905 -42.806  23.641  1.00  0.00     0.074 A 
ATOM     30  N   UNL     1     -21.726 -43.583  24.359  1.00  0.00    -0.252 NA
ATOM     31  C   UNL     1     -22.431 -44.703  26.375  1.00  0.00     0.056 C 
ATOM     32  C   UNL     1     -20.920 -44.709  28.352  1.00  0.00     0.005 C 
ATOM     33  C   UNL     1     -19.301 -41.146  22.031  1.00  0.00     0.021 A 
ATOM     34  C   UNL     1     -21.236 -42.555  22.319  1.00  0.00     0.049 A 
ATOM     35  C   UNL     1     -22.364 -44.584  27.892  1.00  0.00     0.007 C 
ATOM     36  C   UNL     1     -20.444 -41.737  21.516  1.00  0.00     0.043 A 
ATOM     37  Cl  UNL     1     -20.893 -41.447  19.881  1.00  0.00    -0.084 Cl
ENDBRANCH  21  23
ENDBRANCH  20  21
ENDBRANCH  19  20
ENDBRANCH   1  19
TORSDOF 7
ENDMDL
