MODEL 1
REMARK VINA RESULT:    -9.306      0.000      0.000
REMARK INTER + INTRA:         -15.330
REMARK INTER:                 -14.746
REMARK INTRA:                  -0.584
REMARK UNBOUND:                -0.584
REMARK SMILES C[NH+](C)CC(C)(C)c1cccc(OC(=O)NCCCC[NH+]2CCOCC2)c1
REMARK SMILES IDX 16 1 14 2 15 3 17 5 18 6 19 7 20 8 21 9 22 10 26 11 23 12
REMARK SMILES IDX 25 13 24 14 13 16 12 17 27 18 11 19 8 20 10 21 9 22 5 23
REMARK SMILES IDX 6 24 7 25 4 26 2 27 1 28 3 29
REMARK H PARENT 16 4 21 15 2 30
ROOT
ATOM      1  N   UNL     1     -13.990 -44.606  26.376  1.00  0.00    -0.321 N 
ATOM      2  C   UNL     1     -14.421 -43.354  26.019  1.00  0.00     0.412 C 
ATOM      3  O   UNL     1     -14.379 -42.379  26.756  1.00  0.00    -0.224 OA
ATOM      4  H   UNL     1     -13.999 -45.301  25.641  1.00  0.00     0.167 HD
ENDROOT
BRANCH   1   5
ATOM      5  C   UNL     1     -13.284 -44.845  27.612  1.00  0.00     0.119 C 
BRANCH   5   6
ATOM      6  C   UNL     1     -12.671 -46.245  27.663  1.00  0.00     0.027 C 
BRANCH   6   7
ATOM      7  C   UNL     1     -11.199 -46.255  28.098  1.00  0.00     0.063 C 
BRANCH   7   8
ATOM      8  C   UNL     1     -11.009 -45.955  29.584  1.00  0.00     0.262 C 
BRANCH   8   9
ATOM      9  N   UNL     1     -10.193 -44.713  29.847  1.00  0.00    -0.331 N 
ATOM     10  C   UNL     1      -9.046 -44.896  30.840  1.00  0.00     0.291 C 
ATOM     11  C   UNL     1      -9.688 -43.998  28.594  1.00  0.00     0.291 C 
ATOM     12  C   UNL     1      -8.415 -43.530  31.137  1.00  0.00     0.221 C 
ATOM     13  C   UNL     1      -9.026 -42.676  29.005  1.00  0.00     0.221 C 
ATOM     14  O   UNL     1      -7.958 -42.905  29.932  1.00  0.00    -0.370 OA
ATOM     15  H   UNL     1     -10.845 -44.054  30.295  1.00  0.00     0.348 HD
ENDBRANCH   8   9
ENDBRANCH   7   8
ENDBRANCH   6   7
ENDBRANCH   5   6
ENDBRANCH   1   5
BRANCH   2  16
ATOM     16  O   UNL     1     -14.886 -43.381  24.713  1.00  0.00    -0.410 OA
BRANCH  16  17
ATOM     17  C   UNL     1     -16.135 -42.795  24.426  1.00  0.00     0.133 A 
ATOM     18  C   UNL     1     -17.092 -42.816  25.449  1.00  0.00     0.051 A 
ATOM     19  C   UNL     1     -16.451 -42.324  23.156  1.00  0.00     0.047 A 
ATOM     20  C   UNL     1     -18.396 -42.339  25.225  1.00  0.00    -0.033 A 
ATOM     21  C   UNL     1     -17.731 -41.843  22.913  1.00  0.00     0.004 A 
ATOM     22  C   UNL     1     -18.690 -41.850  23.932  1.00  0.00     0.005 A 
BRANCH  20  23
ATOM     23  C   UNL     1     -19.495 -42.338  26.320  1.00  0.00     0.039 C 
ATOM     24  C   UNL     1     -18.787 -42.184  27.687  1.00  0.00     0.022 C 
ATOM     25  C   UNL     1     -20.478 -41.156  26.177  1.00  0.00     0.022 C 
BRANCH  23  26
ATOM     26  C   UNL     1     -20.254 -43.701  26.189  1.00  0.00     0.272 C 
BRANCH  26  27
ATOM     27  N   UNL     1     -21.506 -43.889  27.036  1.00  0.00    -0.339 N 
ATOM     28  C   UNL     1     -22.678 -44.278  26.158  1.00  0.00     0.332 C 
ATOM     29  C   UNL     1     -21.366 -44.868  28.169  1.00  0.00     0.332 C 
ATOM     30  H   UNL     1     -21.767 -42.981  27.444  1.00  0.00     0.347 HD
ENDBRANCH  26  27
ENDBRANCH  23  26
ENDBRANCH  20  23
ENDBRANCH  16  17
ENDBRANCH   2  16
TORSDOF 10
ENDMDL
MODEL 2
REMARK VINA RESULT:    -9.226      1.614      2.581
REMARK INTER + INTRA:         -15.204
REMARK INTER:                 -14.310
REMARK INTRA:                  -0.894
REMARK UNBOUND:                -0.584
REMARK SMILES C[NH+](C)CC(C)(C)c1cccc(OC(=O)NCCCC[NH+]2CCOCC2)c1
REMARK SMILES IDX 16 1 14 2 15 3 17 5 18 6 19 7 20 8 21 9 22 10 26 11 23 12
REMARK SMILES IDX 25 13 24 14 13 16 12 17 27 18 11 19 8 20 10 21 9 22 5 23
REMARK SMILES IDX 6 24 7 25 4 26 2 27 1 28 3 29
REMARK H PARENT 16 4 21 15 2 30
ROOT
ATOM      1  N   UNL     1     -13.742 -44.545  27.331  1.00  0.00    -0.321 N 
ATOM      2  C   UNL     1     -14.726 -43.688  27.751  1.00  0.00     0.412 C 
ATOM      3  O   UNL     1     -15.413 -43.867  28.748  1.00  0.00    -0.224 OA
ATOM      4  H   UNL     1     -13.192 -44.231  26.543  1.00  0.00     0.167 HD
ENDROOT
BRANCH   1   5
ATOM      5  C   UNL     1     -13.312 -45.663  28.136  1.00  0.00     0.119 C 
BRANCH   5   6
ATOM      6  C   UNL     1     -12.283 -46.532  27.411  1.00  0.00     0.027 C 
BRANCH   6   7
ATOM      7  C   UNL     1     -10.901 -46.533  28.081  1.00  0.00     0.063 C 
BRANCH   7   8
ATOM      8  C   UNL     1     -10.938 -46.063  29.534  1.00  0.00     0.262 C 
BRANCH   8   9
ATOM      9  N   UNL     1     -10.167 -44.788  29.772  1.00  0.00    -0.331 N 
ATOM     10  C   UNL     1      -8.938 -44.938  30.668  1.00  0.00     0.291 C 
ATOM     11  C   UNL     1      -9.798 -44.013  28.508  1.00  0.00     0.291 C 
ATOM     12  C   UNL     1      -8.354 -43.550  30.959  1.00  0.00     0.221 C 
ATOM     13  C   UNL     1      -9.173 -42.670  28.908  1.00  0.00     0.221 C 
ATOM     14  O   UNL     1      -8.025 -42.869  29.742  1.00  0.00    -0.370 OA
ATOM     15  H   UNL     1     -10.814 -44.177  30.290  1.00  0.00     0.348 HD
ENDBRANCH   8   9
ENDBRANCH   7   8
ENDBRANCH   6   7
ENDBRANCH   5   6
ENDBRANCH   1   5
BRANCH   2  16
ATOM     16  O   UNL     1     -14.798 -42.607  26.884  1.00  0.00    -0.410 OA
BRANCH  16  17
ATOM     17  C   UNL     1     -15.590 -42.721  25.724  1.00  0.00     0.133 A 
ATOM     18  C   UNL     1     -16.971 -42.549  25.882  1.00  0.00     0.051 A 
ATOM     19  C   UNL     1     -15.049 -43.103  24.500  1.00  0.00     0.047 A 
ATOM     20  C   UNL     1     -17.849 -42.738  24.799  1.00  0.00    -0.033 A 
ATOM     21  C   UNL     1     -15.897 -43.288  23.416  1.00  0.00     0.004 A 
ATOM     22  C   UNL     1     -17.277 -43.109  23.562  1.00  0.00     0.005 A 
BRANCH  20  23
ATOM     23  C   UNL     1     -19.386 -42.561  24.919  1.00  0.00     0.039 C 
ATOM     24  C   UNL     1     -19.972 -43.906  25.410  1.00  0.00     0.022 C 
ATOM     25  C   UNL     1     -19.783 -41.482  25.951  1.00  0.00     0.022 C 
BRANCH  23  26
ATOM     26  C   UNL     1     -19.900 -42.170  23.492  1.00  0.00     0.272 C 
BRANCH  26  27
ATOM     27  N   UNL     1     -20.001 -40.685  23.168  1.00  0.00    -0.339 N 
ATOM     28  C   UNL     1     -19.097 -40.342  22.001  1.00  0.00     0.332 C 
ATOM     29  C   UNL     1     -21.394 -40.185  22.901  1.00  0.00     0.332 C 
ATOM     30  H   UNL     1     -19.627 -40.148  23.962  1.00  0.00     0.347 HD
ENDBRANCH  26  27
ENDBRANCH  23  26
ENDBRANCH  20  23
ENDBRANCH  16  17
ENDBRANCH   2  16
TORSDOF 10
ENDMDL
MODEL 3
REMARK VINA RESULT:    -9.183      2.150      2.562
REMARK INTER + INTRA:         -15.136
REMARK INTER:                 -13.920
REMARK INTRA:                  -1.216
REMARK UNBOUND:                -0.584
REMARK SMILES C[NH+](C)CC(C)(C)c1cccc(OC(=O)NCCCC[NH+]2CCOCC2)c1
REMARK SMILES IDX 16 1 14 2 15 3 17 5 18 6 19 7 20 8 21 9 22 10 26 11 23 12
REMARK SMILES IDX 25 13 24 14 13 16 12 17 27 18 11 19 8 20 10 21 9 22 5 23
REMARK SMILES IDX 6 24 7 25 4 26 2 27 1 28 3 29
REMARK H PARENT 16 4 21 15 2 30
ROOT
ATOM      1  N   UNL     1     -13.417 -45.047  27.082  1.00  0.00    -0.321 N 
ATOM      2  C   UNL     1     -14.182 -44.097  27.707  1.00  0.00     0.412 C 
ATOM      3  O   UNL     1     -14.737 -44.264  28.785  1.00  0.00    -0.224 OA
ATOM      4  H   UNL     1     -12.943 -44.747  26.240  1.00  0.00     0.167 HD
ENDROOT
BRANCH   1   5
ATOM      5  C   UNL     1     -13.057 -46.284  27.733  1.00  0.00     0.119 C 
BRANCH   5   6
ATOM      6  C   UNL     1     -11.546 -46.410  27.934  1.00  0.00     0.027 C 
BRANCH   6   7
ATOM      7  C   UNL     1     -11.083 -46.043  29.351  1.00  0.00     0.063 C 
BRANCH   7   8
ATOM      8  C   UNL     1     -12.193 -46.158  30.394  1.00  0.00     0.262 C 
BRANCH   8   9
ATOM      9  N   UNL     1     -12.543 -44.842  31.046  1.00  0.00    -0.331 N 
ATOM     10  C   UNL     1     -13.692 -44.909  32.052  1.00  0.00     0.291 C 
ATOM     11  C   UNL     1     -11.361 -44.090  31.655  1.00  0.00     0.291 C 
ATOM     12  C   UNL     1     -14.048 -43.487  32.504  1.00  0.00     0.221 C 
ATOM     13  C   UNL     1     -11.834 -42.709  32.125  1.00  0.00     0.221 C 
ATOM     14  O   UNL     1     -12.907 -42.830  33.067  1.00  0.00    -0.370 OA
ATOM     15  H   UNL     1     -12.882 -44.245  30.278  1.00  0.00     0.348 HD
ENDBRANCH   8   9
ENDBRANCH   7   8
ENDBRANCH   6   7
ENDBRANCH   5   6
ENDBRANCH   1   5
BRANCH   2  16
ATOM     16  O   UNL     1     -14.207 -42.944  26.936  1.00  0.00    -0.410 OA
BRANCH  16  17
ATOM     17  C   UNL     1     -15.188 -42.822  25.932  1.00  0.00     0.133 A 
ATOM     18  C   UNL     1     -16.510 -42.643  26.358  1.00  0.00     0.051 A 
ATOM     19  C   UNL     1     -14.883 -42.989  24.585  1.00  0.00     0.047 A 
ATOM     20  C   UNL     1     -17.567 -42.606  25.430  1.00  0.00    -0.033 A 
ATOM     21  C   UNL     1     -15.910 -42.950  23.651  1.00  0.00     0.004 A 
ATOM     22  C   UNL     1     -17.233 -42.761  24.066  1.00  0.00     0.005 A 
BRANCH  20  23
ATOM     23  C   UNL     1     -19.049 -42.411  25.847  1.00  0.00     0.039 C 
ATOM     24  C   UNL     1     -19.064 -42.023  27.344  1.00  0.00     0.022 C 
ATOM     25  C   UNL     1     -19.740 -41.269  25.070  1.00  0.00     0.022 C 
BRANCH  23  26
ATOM     26  C   UNL     1     -19.770 -43.774  25.574  1.00  0.00     0.272 C 
BRANCH  26  27
ATOM     27  N   UNL     1     -21.180 -43.941  26.126  1.00  0.00    -0.339 N 
ATOM     28  C   UNL     1     -22.100 -44.485  25.052  1.00  0.00     0.332 C 
ATOM     29  C   UNL     1     -21.281 -44.788  27.365  1.00  0.00     0.332 C 
ATOM     30  H   UNL     1     -21.557 -43.012  26.355  1.00  0.00     0.347 HD
ENDBRANCH  26  27
ENDBRANCH  23  26
ENDBRANCH  20  23
ENDBRANCH  16  17
ENDBRANCH   2  16
TORSDOF 10
ENDMDL
MODEL 4
REMARK VINA RESULT:    -9.158      1.697      3.021
REMARK INTER + INTRA:         -15.095
REMARK INTER:                 -14.374
REMARK INTRA:                  -0.722
REMARK UNBOUND:                -0.584
REMARK SMILES C[NH+](C)CC(C)(C)c1cccc(OC(=O)NCCCC[NH+]2CCOCC2)c1
REMARK SMILES IDX 16 1 14 2 15 3 17 5 18 6 19 7 20 8 21 9 22 10 26 11 23 12
REMARK SMILES IDX 25 13 24 14 13 16 12 17 27 18 11 19 8 20 10 21 9 22 5 23
REMARK SMILES IDX 6 24 7 25 4 26 2 27 1 28 3 29
REMARK H PARENT 16 4 21 15 2 30
ROOT
ATOM      1  N   UNL     1     -13.816 -44.964  26.697  1.00  0.00    -0.321 N 
ATOM      2  C   UNL     1     -13.580 -43.614  26.725  1.00  0.00     0.412 C 
ATOM      3  O   UNL     1     -12.653 -43.093  27.331  1.00  0.00    -0.224 OA
ATOM      4  H   UNL     1     -14.562 -45.267  26.084  1.00  0.00     0.167 HD
ENDROOT
BRANCH   1   5
ATOM      5  C   UNL     1     -12.881 -45.913  27.249  1.00  0.00     0.119 C 
BRANCH   5   6
ATOM      6  C   UNL     1     -12.880 -45.897  28.779  1.00  0.00     0.027 C 
BRANCH   6   7
ATOM      7  C   UNL     1     -11.524 -46.268  29.395  1.00  0.00     0.063 C 
BRANCH   7   8
ATOM      8  C   UNL     1     -11.308 -45.662  30.781  1.00  0.00     0.262 C 
BRANCH   8   9
ATOM      9  N   UNL     1     -10.280 -44.555  30.799  1.00  0.00    -0.331 N 
ATOM     10  C   UNL     1      -9.174 -44.723  31.840  1.00  0.00     0.291 C 
ATOM     11  C   UNL     1      -9.670 -44.223  29.438  1.00  0.00     0.291 C 
ATOM     12  C   UNL     1      -8.307 -43.459  31.860  1.00  0.00     0.221 C 
ATOM     13  C   UNL     1      -8.779 -42.982  29.580  1.00  0.00     0.221 C 
ATOM     14  O   UNL     1      -7.759 -43.194  30.564  1.00  0.00    -0.370 OA
ATOM     15  H   UNL     1     -10.800 -43.713  31.080  1.00  0.00     0.348 HD
ENDBRANCH   8   9
ENDBRANCH   7   8
ENDBRANCH   6   7
ENDBRANCH   5   6
ENDBRANCH   1   5
BRANCH   2  16
ATOM     16  O   UNL     1     -14.535 -42.961  25.959  1.00  0.00    -0.410 OA
BRANCH  16  17
ATOM     17  C   UNL     1     -15.840 -42.827  26.474  1.00  0.00     0.133 A 
ATOM     18  C   UNL     1     -16.878 -42.714  25.541  1.00  0.00     0.051 A 
ATOM     19  C   UNL     1     -16.080 -42.692  27.837  1.00  0.00     0.047 A 
ATOM     20  C   UNL     1     -18.200 -42.483  25.960  1.00  0.00    -0.033 A 
ATOM     21  C   UNL     1     -17.380 -42.469  28.274  1.00  0.00     0.004 A 
ATOM     22  C   UNL     1     -18.425 -42.366  27.350  1.00  0.00     0.005 A 
BRANCH  20  23
ATOM     23  C   UNL     1     -19.388 -42.349  24.971  1.00  0.00     0.039 C 
ATOM     24  C   UNL     1     -20.214 -43.655  25.058  1.00  0.00     0.022 C 
ATOM     25  C   UNL     1     -20.335 -41.182  25.330  1.00  0.00     0.022 C 
BRANCH  23  26
ATOM     26  C   UNL     1     -18.763 -42.131  23.552  1.00  0.00     0.272 C 
BRANCH  26  27
ATOM     27  N   UNL     1     -19.474 -41.162  22.616  1.00  0.00    -0.339 N 
ATOM     28  C   UNL     1     -18.461 -40.389  21.796  1.00  0.00     0.332 C 
ATOM     29  C   UNL     1     -20.496 -41.790  21.709  1.00  0.00     0.332 C 
ATOM     30  H   UNL     1     -19.958 -40.453  23.182  1.00  0.00     0.347 HD
ENDBRANCH  26  27
ENDBRANCH  23  26
ENDBRANCH  20  23
ENDBRANCH  16  17
ENDBRANCH   2  16
TORSDOF 10
ENDMDL
MODEL 5
REMARK VINA RESULT:    -9.121      1.067      1.995
REMARK INTER + INTRA:         -15.037
REMARK INTER:                 -14.309
REMARK INTRA:                  -0.728
REMARK UNBOUND:                -0.584
REMARK SMILES C[NH+](C)CC(C)(C)c1cccc(OC(=O)NCCCC[NH+]2CCOCC2)c1
REMARK SMILES IDX 16 1 14 2 15 3 17 5 18 6 19 7 20 8 21 9 22 10 26 11 23 12
REMARK SMILES IDX 25 13 24 14 13 16 12 17 27 18 11 19 8 20 10 21 9 22 5 23
REMARK SMILES IDX 6 24 7 25 4 26 2 27 1 28 3 29
REMARK H PARENT 16 4 21 15 2 30
ROOT
ATOM      1  N   UNL     1     -14.294 -44.544  26.230  1.00  0.00    -0.321 N 
ATOM      2  C   UNL     1     -14.539 -43.244  25.869  1.00  0.00     0.412 C 
ATOM      3  O   UNL     1     -14.351 -42.282  26.601  1.00  0.00    -0.224 OA
ATOM      4  H   UNL     1     -14.408 -45.233  25.498  1.00  0.00     0.167 HD
ENDROOT
BRANCH   1   5
ATOM      5  C   UNL     1     -13.625 -44.879  27.464  1.00  0.00     0.119 C 
BRANCH   5   6
ATOM      6  C   UNL     1     -12.712 -46.097  27.311  1.00  0.00     0.027 C 
BRANCH   6   7
ATOM      7  C   UNL     1     -11.790 -46.327  28.518  1.00  0.00     0.063 C 
BRANCH   7   8
ATOM      8  C   UNL     1     -11.611 -45.080  29.383  1.00  0.00     0.262 C 
BRANCH   8   9
ATOM      9  N   UNL     1     -10.302 -44.367  29.144  1.00  0.00    -0.331 N 
ATOM     10  C   UNL     1     -10.398 -43.132  28.250  1.00  0.00     0.291 C 
ATOM     11  C   UNL     1      -9.511 -44.035  30.408  1.00  0.00     0.291 C 
ATOM     12  C   UNL     1      -8.985 -42.611  27.958  1.00  0.00     0.221 C 
ATOM     13  C   UNL     1      -8.141 -43.470  30.008  1.00  0.00     0.221 C 
ATOM     14  O   UNL     1      -8.289 -42.314  29.174  1.00  0.00    -0.370 OA
ATOM     15  H   UNL     1      -9.721 -45.041  28.626  1.00  0.00     0.348 HD
ENDBRANCH   8   9
ENDBRANCH   7   8
ENDBRANCH   6   7
ENDBRANCH   5   6
ENDBRANCH   1   5
BRANCH   2  16
ATOM     16  O   UNL     1     -15.010 -43.208  24.565  1.00  0.00    -0.410 OA
BRANCH  16  17
ATOM     17  C   UNL     1     -16.280 -42.651  24.318  1.00  0.00     0.133 A 
ATOM     18  C   UNL     1     -17.226 -42.757  25.346  1.00  0.00     0.051 A 
ATOM     19  C   UNL     1     -16.624 -42.128  23.076  1.00  0.00     0.047 A 
ATOM     20  C   UNL     1     -18.548 -42.314  25.156  1.00  0.00    -0.033 A 
ATOM     21  C   UNL     1     -17.922 -41.679  22.868  1.00  0.00     0.004 A 
ATOM     22  C   UNL     1     -18.871 -41.770  23.893  1.00  0.00     0.005 A 
BRANCH  20  23
ATOM     23  C   UNL     1     -19.635 -42.407  26.259  1.00  0.00     0.039 C 
ATOM     24  C   UNL     1     -20.471 -43.679  25.982  1.00  0.00     0.022 C 
ATOM     25  C   UNL     1     -19.037 -42.550  27.676  1.00  0.00     0.022 C 
BRANCH  23  26
ATOM     26  C   UNL     1     -20.487 -41.097  26.154  1.00  0.00     0.272 C 
BRANCH  26  27
ATOM     27  N   UNL     1     -21.992 -41.254  25.974  1.00  0.00    -0.339 N 
ATOM     28  C   UNL     1     -22.728 -40.544  27.092  1.00  0.00     0.332 C 
ATOM     29  C   UNL     1     -22.523 -40.802  24.642  1.00  0.00     0.332 C 
ATOM     30  H   UNL     1     -22.235 -42.248  26.083  1.00  0.00     0.347 HD
ENDBRANCH  26  27
ENDBRANCH  23  26
ENDBRANCH  20  23
ENDBRANCH  16  17
ENDBRANCH   2  16
TORSDOF 10
ENDMDL
MODEL 6
REMARK VINA RESULT:    -9.107      1.347      1.909
REMARK INTER + INTRA:         -15.015
REMARK INTER:                 -14.496
REMARK INTRA:                  -0.518
REMARK UNBOUND:                -0.584
REMARK SMILES C[NH+](C)CC(C)(C)c1cccc(OC(=O)NCCCC[NH+]2CCOCC2)c1
REMARK SMILES IDX 16 1 14 2 15 3 17 5 18 6 19 7 20 8 21 9 22 10 26 11 23 12
REMARK SMILES IDX 25 13 24 14 13 16 12 17 27 18 11 19 8 20 10 21 9 22 5 23
REMARK SMILES IDX 6 24 7 25 4 26 2 27 1 28 3 29
REMARK H PARENT 16 4 21 15 2 30
ROOT
ATOM      1  N   UNL     1     -13.363 -44.315  28.346  1.00  0.00    -0.321 N 
ATOM      2  C   UNL     1     -14.113 -44.226  27.202  1.00  0.00     0.412 C 
ATOM      3  O   UNL     1     -14.100 -45.061  26.308  1.00  0.00    -0.224 OA
ATOM      4  H   UNL     1     -13.537 -43.602  29.043  1.00  0.00     0.167 HD
ENDROOT
BRANCH   1   5
ATOM      5  C   UNL     1     -12.611 -45.502  28.674  1.00  0.00     0.119 C 
BRANCH   5   6
ATOM      6  C   UNL     1     -13.070 -46.129  29.991  1.00  0.00     0.027 C 
BRANCH   6   7
ATOM      7  C   UNL     1     -12.010 -46.069  31.101  1.00  0.00     0.063 C 
BRANCH   7   8
ATOM      8  C   UNL     1     -11.565 -44.645  31.431  1.00  0.00     0.262 C 
BRANCH   8   9
ATOM      9  N   UNL     1     -10.152 -44.342  30.993  1.00  0.00    -0.331 N 
ATOM     10  C   UNL     1     -10.024 -43.203  29.982  1.00  0.00     0.291 C 
ATOM     11  C   UNL     1      -9.155 -44.141  32.133  1.00  0.00     0.291 C 
ATOM     12  C   UNL     1      -8.570 -43.116  29.504  1.00  0.00     0.221 C 
ATOM     13  C   UNL     1      -7.743 -44.009  31.546  1.00  0.00     0.221 C 
ATOM     14  O   UNL     1      -7.679 -42.927  30.609  1.00  0.00    -0.370 OA
ATOM     15  H   UNL     1      -9.838 -45.188  30.499  1.00  0.00     0.348 HD
ENDBRANCH   8   9
ENDBRANCH   7   8
ENDBRANCH   6   7
ENDBRANCH   5   6
ENDBRANCH   1   5
BRANCH   2  16
ATOM     16  O   UNL     1     -14.877 -43.069  27.239  1.00  0.00    -0.410 OA
BRANCH  16  17
ATOM     17  C   UNL     1     -15.705 -42.769  26.139  1.00  0.00     0.133 A 
ATOM     18  C   UNL     1     -17.073 -42.629  26.398  1.00  0.00     0.051 A 
ATOM     19  C   UNL     1     -15.212 -42.730  24.838  1.00  0.00     0.047 A 
ATOM     20  C   UNL     1     -17.988 -42.423  25.349  1.00  0.00    -0.033 A 
ATOM     21  C   UNL     1     -16.096 -42.521  23.788  1.00  0.00     0.004 A 
ATOM     22  C   UNL     1     -17.464 -42.370  24.038  1.00  0.00     0.005 A 
BRANCH  20  23
ATOM     23  C   UNL     1     -19.514 -42.261  25.579  1.00  0.00     0.039 C 
ATOM     24  C   UNL     1     -19.710 -41.659  26.991  1.00  0.00     0.022 C 
ATOM     25  C   UNL     1     -20.169 -41.292  24.571  1.00  0.00     0.022 C 
BRANCH  23  26
ATOM     26  C   UNL     1     -20.137 -43.692  25.447  1.00  0.00     0.272 C 
BRANCH  26  27
ATOM     27  N   UNL     1     -21.493 -43.927  26.101  1.00  0.00    -0.339 N 
ATOM     28  C   UNL     1     -22.517 -44.314  25.053  1.00  0.00     0.332 C 
ATOM     29  C   UNL     1     -21.494 -44.935  27.217  1.00  0.00     0.332 C 
ATOM     30  H   UNL     1     -21.830 -43.036  26.489  1.00  0.00     0.347 HD
ENDBRANCH  26  27
ENDBRANCH  23  26
ENDBRANCH  20  23
ENDBRANCH  16  17
ENDBRANCH   2  16
TORSDOF 10
ENDMDL
MODEL 7
REMARK VINA RESULT:    -9.089      2.191      9.108
REMARK INTER + INTRA:         -14.986
REMARK INTER:                 -13.907
REMARK INTRA:                  -1.079
REMARK UNBOUND:                -0.584
REMARK SMILES C[NH+](C)CC(C)(C)c1cccc(OC(=O)NCCCC[NH+]2CCOCC2)c1
REMARK SMILES IDX 16 1 14 2 15 3 17 5 18 6 19 7 20 8 21 9 22 10 26 11 23 12
REMARK SMILES IDX 25 13 24 14 13 16 12 17 27 18 11 19 8 20 10 21 9 22 5 23
REMARK SMILES IDX 6 24 7 25 4 26 2 27 1 28 3 29
REMARK H PARENT 16 4 21 15 2 30
ROOT
ATOM      1  N   UNL     1     -15.125 -43.056  25.021  1.00  0.00    -0.321 N 
ATOM      2  C   UNL     1     -14.618 -42.981  26.293  1.00  0.00     0.412 C 
ATOM      3  O   UNL     1     -13.987 -42.026  26.724  1.00  0.00    -0.224 OA
ATOM      4  H   UNL     1     -15.703 -43.863  24.825  1.00  0.00     0.167 HD
ENDROOT
BRANCH   1   5
ATOM      5  C   UNL     1     -15.103 -41.926  24.124  1.00  0.00     0.119 C 
BRANCH   5   6
ATOM      6  C   UNL     1     -16.164 -42.039  23.029  1.00  0.00     0.027 C 
BRANCH   6   7
ATOM      7  C   UNL     1     -17.455 -42.728  23.496  1.00  0.00     0.063 C 
BRANCH   7   8
ATOM      8  C   UNL     1     -18.640 -41.769  23.611  1.00  0.00     0.262 C 
BRANCH   8   9
ATOM      9  N   UNL     1     -19.116 -41.572  25.030  1.00  0.00    -0.331 N 
ATOM     10  C   UNL     1     -20.627 -41.691  25.222  1.00  0.00     0.291 C 
ATOM     11  C   UNL     1     -18.389 -42.415  26.076  1.00  0.00     0.291 C 
ATOM     12  C   UNL     1     -20.983 -41.304  26.663  1.00  0.00     0.221 C 
ATOM     13  C   UNL     1     -18.857 -41.990  27.474  1.00  0.00     0.221 C 
ATOM     14  O   UNL     1     -20.277 -42.125  27.601  1.00  0.00    -0.370 OA
ATOM     15  H   UNL     1     -18.884 -40.594  25.256  1.00  0.00     0.348 HD
ENDBRANCH   8   9
ENDBRANCH   7   8
ENDBRANCH   6   7
ENDBRANCH   5   6
ENDBRANCH   1   5
BRANCH   2  16
ATOM     16  O   UNL     1     -14.945 -44.136  26.989  1.00  0.00    -0.410 OA
BRANCH  16  17
ATOM     17  C   UNL     1     -13.905 -44.973  27.440  1.00  0.00     0.133 A 
ATOM     18  C   UNL     1     -13.418 -44.735  28.731  1.00  0.00     0.051 A 
ATOM     19  C   UNL     1     -13.306 -45.912  26.607  1.00  0.00     0.047 A 
ATOM     20  C   UNL     1     -12.319 -45.457  29.231  1.00  0.00    -0.033 A 
ATOM     21  C   UNL     1     -12.223 -46.641  27.082  1.00  0.00     0.004 A 
ATOM     22  C   UNL     1     -11.736 -46.418  28.374  1.00  0.00     0.005 A 
BRANCH  20  23
ATOM     23  C   UNL     1     -11.738 -45.235  30.652  1.00  0.00     0.039 C 
ATOM     24  C   UNL     1     -12.902 -45.388  31.659  1.00  0.00     0.022 C 
ATOM     25  C   UNL     1     -10.665 -46.281  31.028  1.00  0.00     0.022 C 
BRANCH  23  26
ATOM     26  C   UNL     1     -11.125 -43.794  30.661  1.00  0.00     0.272 C 
BRANCH  26  27
ATOM     27  N   UNL     1     -10.202 -43.419  29.509  1.00  0.00    -0.339 N 
ATOM     28  C   UNL     1     -10.706 -42.167  28.821  1.00  0.00     0.332 C 
ATOM     29  C   UNL     1      -8.755 -43.252  29.883  1.00  0.00     0.332 C 
ATOM     30  H   UNL     1     -10.252 -44.157  28.794  1.00  0.00     0.347 HD
ENDBRANCH  26  27
ENDBRANCH  23  26
ENDBRANCH  20  23
ENDBRANCH  16  17
ENDBRANCH   2  16
TORSDOF 10
ENDMDL
MODEL 8
REMARK VINA RESULT:    -8.926      2.533      3.236
REMARK INTER + INTRA:         -14.729
REMARK INTER:                 -13.919
REMARK INTRA:                  -0.810
REMARK UNBOUND:                -0.584
REMARK SMILES C[NH+](C)CC(C)(C)c1cccc(OC(=O)NCCCC[NH+]2CCOCC2)c1
REMARK SMILES IDX 16 1 14 2 15 3 17 5 18 6 19 7 20 8 21 9 22 10 26 11 23 12
REMARK SMILES IDX 25 13 24 14 13 16 12 17 27 18 11 19 8 20 10 21 9 22 5 23
REMARK SMILES IDX 6 24 7 25 4 26 2 27 1 28 3 29
REMARK H PARENT 16 4 21 15 2 30
ROOT
ATOM      1  N   UNL     1     -13.920 -44.977  27.258  1.00  0.00    -0.321 N 
ATOM      2  C   UNL     1     -13.706 -43.626  27.170  1.00  0.00     0.412 C 
ATOM      3  O   UNL     1     -12.604 -43.115  27.021  1.00  0.00    -0.224 OA
ATOM      4  H   UNL     1     -14.889 -45.267  27.290  1.00  0.00     0.167 HD
ENDROOT
BRANCH   1   5
ATOM      5  C   UNL     1     -12.869 -45.933  27.008  1.00  0.00     0.119 C 
BRANCH   5   6
ATOM      6  C   UNL     1     -12.254 -46.464  28.304  1.00  0.00     0.027 C 
BRANCH   6   7
ATOM      7  C   UNL     1     -13.028 -46.052  29.564  1.00  0.00     0.063 C 
BRANCH   7   8
ATOM      8  C   UNL     1     -12.146 -45.958  30.808  1.00  0.00     0.262 C 
BRANCH   8   9
ATOM      9  N   UNL     1     -12.489 -44.789  31.700  1.00  0.00    -0.331 N 
ATOM     10  C   UNL     1     -11.470 -43.650  31.686  1.00  0.00     0.291 C 
ATOM     11  C   UNL     1     -13.898 -44.230  31.514  1.00  0.00     0.291 C 
ATOM     12  C   UNL     1     -11.856 -42.618  32.753  1.00  0.00     0.221 C 
ATOM     13  C   UNL     1     -14.162 -43.169  32.591  1.00  0.00     0.221 C 
ATOM     14  O   UNL     1     -13.182 -42.125  32.531  1.00  0.00    -0.370 OA
ATOM     15  H   UNL     1     -12.468 -45.168  32.657  1.00  0.00     0.348 HD
ENDBRANCH   8   9
ENDBRANCH   7   8
ENDBRANCH   6   7
ENDBRANCH   5   6
ENDBRANCH   1   5
BRANCH   2  16
ATOM     16  O   UNL     1     -14.918 -42.958  27.264  1.00  0.00    -0.410 OA
BRANCH  16  17
ATOM     17  C   UNL     1     -15.700 -42.809  26.101  1.00  0.00     0.133 A 
ATOM     18  C   UNL     1     -17.075 -42.613  26.286  1.00  0.00     0.051 A 
ATOM     19  C   UNL     1     -15.161 -42.965  24.829  1.00  0.00     0.047 A 
ATOM     20  C   UNL     1     -17.947 -42.548  25.184  1.00  0.00    -0.033 A 
ATOM     21  C   UNL     1     -16.003 -42.898  23.726  1.00  0.00     0.004 A 
ATOM     22  C   UNL     1     -17.376 -42.692  23.900  1.00  0.00     0.005 A 
BRANCH  20  23
ATOM     23  C   UNL     1     -19.477 -42.333  25.330  1.00  0.00     0.039 C 
ATOM     24  C   UNL     1     -20.150 -43.724  25.260  1.00  0.00     0.022 C 
ATOM     25  C   UNL     1     -19.863 -41.704  26.687  1.00  0.00     0.022 C 
BRANCH  23  26
ATOM     26  C   UNL     1     -19.909 -41.398  24.151  1.00  0.00     0.272 C 
BRANCH  26  27
ATOM     27  N   UNL     1     -20.893 -41.963  23.135  1.00  0.00    -0.339 N 
ATOM     28  C   UNL     1     -22.197 -41.193  23.185  1.00  0.00     0.332 C 
ATOM     29  C   UNL     1     -20.384 -42.019  21.721  1.00  0.00     0.332 C 
ATOM     30  H   UNL     1     -21.138 -42.923  23.412  1.00  0.00     0.347 HD
ENDBRANCH  26  27
ENDBRANCH  23  26
ENDBRANCH  20  23
ENDBRANCH  16  17
ENDBRANCH   2  16
TORSDOF 10
ENDMDL
MODEL 9
REMARK VINA RESULT:    -8.684      1.528      2.210
REMARK INTER + INTRA:         -14.345
REMARK INTER:                 -13.580
REMARK INTRA:                  -0.765
REMARK UNBOUND:                -0.584
REMARK SMILES C[NH+](C)CC(C)(C)c1cccc(OC(=O)NCCCC[NH+]2CCOCC2)c1
REMARK SMILES IDX 16 1 14 2 15 3 17 5 18 6 19 7 20 8 21 9 22 10 26 11 23 12
REMARK SMILES IDX 25 13 24 14 13 16 12 17 27 18 11 19 8 20 10 21 9 22 5 23
REMARK SMILES IDX 6 24 7 25 4 26 2 27 1 28 3 29
REMARK H PARENT 16 4 21 15 2 30
ROOT
ATOM      1  N   UNL     1     -13.066 -43.026  27.394  1.00  0.00    -0.321 N 
ATOM      2  C   UNL     1     -14.183 -43.798  27.200  1.00  0.00     0.412 C 
ATOM      3  O   UNL     1     -14.154 -44.995  26.950  1.00  0.00    -0.224 OA
ATOM      4  H   UNL     1     -13.236 -42.071  27.682  1.00  0.00     0.167 HD
ENDROOT
BRANCH   1   5
ATOM      5  C   UNL     1     -11.748 -43.605  27.488  1.00  0.00     0.119 C 
BRANCH   5   6
ATOM      6  C   UNL     1     -10.652 -42.539  27.513  1.00  0.00     0.027 C 
BRANCH   6   7
ATOM      7  C   UNL     1      -9.937 -42.426  28.868  1.00  0.00     0.063 C 
BRANCH   7   8
ATOM      8  C   UNL     1     -10.632 -43.209  29.981  1.00  0.00     0.262 C 
BRANCH   8   9
ATOM      9  N   UNL     1      -9.731 -44.209  30.664  1.00  0.00    -0.331 N 
ATOM     10  C   UNL     1      -9.939 -45.660  30.231  1.00  0.00     0.291 C 
ATOM     11  C   UNL     1      -8.244 -43.864  30.631  1.00  0.00     0.291 C 
ATOM     12  C   UNL     1      -9.086 -46.576  31.118  1.00  0.00     0.221 C 
ATOM     13  C   UNL     1      -7.476 -44.870  31.499  1.00  0.00     0.221 C 
ATOM     14  O   UNL     1      -7.703 -46.211  31.049  1.00  0.00    -0.370 OA
ATOM     15  H   UNL     1      -9.999 -44.175  31.657  1.00  0.00     0.348 HD
ENDBRANCH   8   9
ENDBRANCH   7   8
ENDBRANCH   6   7
ENDBRANCH   5   6
ENDBRANCH   1   5
BRANCH   2  16
ATOM     16  O   UNL     1     -15.318 -43.013  27.345  1.00  0.00    -0.410 OA
BRANCH  16  17
ATOM     17  C   UNL     1     -16.131 -42.784  26.218  1.00  0.00     0.133 A 
ATOM     18  C   UNL     1     -17.491 -42.548  26.458  1.00  0.00     0.051 A 
ATOM     19  C   UNL     1     -15.640 -42.903  24.922  1.00  0.00     0.047 A 
ATOM     20  C   UNL     1     -18.396 -42.402  25.391  1.00  0.00    -0.033 A 
ATOM     21  C   UNL     1     -16.515 -42.756  23.853  1.00  0.00     0.004 A 
ATOM     22  C   UNL     1     -17.873 -42.510  24.083  1.00  0.00     0.005 A 
BRANCH  20  23
ATOM     23  C   UNL     1     -19.911 -42.140  25.599  1.00  0.00     0.039 C 
ATOM     24  C   UNL     1     -20.069 -41.354  26.922  1.00  0.00     0.022 C 
ATOM     25  C   UNL     1     -20.525 -41.276  24.476  1.00  0.00     0.022 C 
BRANCH  23  26
ATOM     26  C   UNL     1     -20.602 -43.544  25.651  1.00  0.00     0.272 C 
BRANCH  26  27
ATOM     27  N   UNL     1     -21.576 -43.803  26.794  1.00  0.00    -0.339 N 
ATOM     28  C   UNL     1     -22.998 -43.833  26.272  1.00  0.00     0.332 C 
ATOM     29  C   UNL     1     -21.297 -45.043  27.597  1.00  0.00     0.332 C 
ATOM     30  H   UNL     1     -21.544 -43.003  27.440  1.00  0.00     0.347 HD
ENDBRANCH  26  27
ENDBRANCH  23  26
ENDBRANCH  20  23
ENDBRANCH  16  17
ENDBRANCH   2  16
TORSDOF 10
ENDMDL
