MODEL 1
REMARK VINA RESULT:    -7.593      0.000      0.000
REMARK INTER + INTRA:         -10.177
REMARK INTER:                  -9.591
REMARK INTRA:                  -0.587
REMARK UNBOUND:                -0.587
REMARK SMILES COc1ccccc1[C@@H](C)NS(N)(=O)=O
REMARK SMILES IDX 9 1 10 2 8 3 3 4 4 5 5 6 7 7 6 8 2 9 1 10 11 11 12 13 14 14
REMARK SMILES IDX 15 15 13 16
REMARK H PARENT 11 12 13 17 13 18
ROOT
ATOM      1  C   UNL     1     -10.410 -45.079  30.221  1.00  0.00     0.101 C 
ATOM      2  C   UNL     1     -10.316 -46.374  31.037  1.00  0.00     0.031 C 
ENDROOT
BRANCH   1   3
ATOM      3  C   UNL     1     -11.418 -45.177  29.083  1.00  0.00     0.012 A 
ATOM      4  C   UNL     1     -11.959 -44.016  28.489  1.00  0.00     0.123 A 
ATOM      5  C   UNL     1     -12.875 -44.134  27.437  1.00  0.00     0.047 A 
ATOM      6  C   UNL     1     -13.260 -45.390  26.968  1.00  0.00     0.004 A 
ATOM      7  C   UNL     1     -11.806 -46.434  28.581  1.00  0.00     0.009 A 
ATOM      8  C   UNL     1     -12.725 -46.539  27.537  1.00  0.00     0.001 A 
BRANCH   4   9
ATOM      9  O   UNL     1     -11.497 -42.815  28.968  1.00  0.00    -0.496 OA
ATOM     10  C   UNL     1     -10.795 -41.983  28.048  1.00  0.00     0.278 C 
ENDBRANCH   4   9
ENDBRANCH   1   3
BRANCH   1  11
ATOM     11  N   UNL     1      -9.060 -44.766  29.724  1.00  0.00    -0.195 NA
ATOM     12  H   UNL     1      -8.952 -44.743  28.713  1.00  0.00     0.143 HD
BRANCH  11  13
ATOM     13  S   UNL     1      -8.181 -43.579  30.465  1.00  0.00     0.274 S 
ATOM     14  O   UNL     1      -7.953 -42.489  29.553  1.00  0.00    -0.195 OA
ATOM     15  O   UNL     1      -8.699 -43.396  31.794  1.00  0.00    -0.195 OA
BRANCH  13  16
ATOM     16  N   UNL     1      -6.739 -44.385  30.622  1.00  0.00    -0.216 NA
ATOM     17  H   UNL     1      -6.922 -45.385  30.695  1.00  0.00     0.138 HD
ATOM     18  H   UNL     1      -6.242 -44.046  31.451  1.00  0.00     0.138 HD
ENDBRANCH  13  16
ENDBRANCH  11  13
ENDBRANCH   1  11
TORSDOF 5
ENDMDL
MODEL 2
REMARK VINA RESULT:    -7.428      3.530      4.606
REMARK INTER + INTRA:          -9.968
REMARK INTER:                  -9.043
REMARK INTRA:                  -0.925
REMARK UNBOUND:                -0.587
REMARK SMILES COc1ccccc1[C@@H](C)NS(N)(=O)=O
REMARK SMILES IDX 9 1 10 2 8 3 3 4 4 5 5 6 7 7 6 8 2 9 1 10 11 11 12 13 14 14
REMARK SMILES IDX 15 15 13 16
REMARK H PARENT 11 12 13 17 13 18
ROOT
ATOM      1  C   UNL     1     -13.586 -45.159  28.150  1.00  0.00     0.101 C 
ATOM      2  C   UNL     1     -12.661 -46.153  27.437  1.00  0.00     0.031 C 
ENDROOT
BRANCH   1   3
ATOM      3  C   UNL     1     -14.429 -44.343  27.178  1.00  0.00     0.012 A 
ATOM      4  C   UNL     1     -15.487 -43.531  27.638  1.00  0.00     0.123 A 
ATOM      5  C   UNL     1     -16.239 -42.782  26.725  1.00  0.00     0.047 A 
ATOM      6  C   UNL     1     -15.952 -42.832  25.360  1.00  0.00     0.004 A 
ATOM      7  C   UNL     1     -14.145 -44.364  25.799  1.00  0.00     0.009 A 
ATOM      8  C   UNL     1     -14.905 -43.619  24.897  1.00  0.00     0.001 A 
BRANCH   4   9
ATOM      9  O   UNL     1     -15.680 -43.493  28.997  1.00  0.00    -0.496 OA
ATOM     10  C   UNL     1     -16.853 -42.833  29.462  1.00  0.00     0.278 C 
ENDBRANCH   4   9
ENDBRANCH   1   3
BRANCH   1  11
ATOM     11  N   UNL     1     -12.746 -44.296  28.995  1.00  0.00    -0.195 NA
ATOM     12  H   UNL     1     -12.778 -43.300  28.787  1.00  0.00     0.143 HD
BRANCH  11  13
ATOM     13  S   UNL     1     -12.670 -44.582  30.621  1.00  0.00     0.274 S 
ATOM     14  O   UNL     1     -11.707 -45.614  30.898  1.00  0.00    -0.195 OA
ATOM     15  O   UNL     1     -12.684 -43.316  31.304  1.00  0.00    -0.195 OA
BRANCH  13  16
ATOM     16  N   UNL     1     -14.172 -45.255  30.836  1.00  0.00    -0.216 NA
ATOM     17  H   UNL     1     -14.072 -46.146  31.321  1.00  0.00     0.138 HD
ATOM     18  H   UNL     1     -14.626 -45.385  29.928  1.00  0.00     0.138 HD
ENDBRANCH  13  16
ENDBRANCH  11  13
ENDBRANCH   1  11
TORSDOF 5
ENDMDL
MODEL 3
REMARK VINA RESULT:    -7.348      1.323      1.607
REMARK INTER + INTRA:          -9.867
REMARK INTER:                  -9.485
REMARK INTRA:                  -0.383
REMARK UNBOUND:                -0.587
REMARK SMILES COc1ccccc1[C@@H](C)NS(N)(=O)=O
REMARK SMILES IDX 9 1 10 2 8 3 3 4 4 5 5 6 7 7 6 8 2 9 1 10 11 11 12 13 14 14
REMARK SMILES IDX 15 15 13 16
REMARK H PARENT 11 12 13 17 13 18
ROOT
ATOM      1  C   UNL     1     -10.268 -45.328  30.485  1.00  0.00     0.101 C 
ATOM      2  C   UNL     1      -9.981 -46.626  31.250  1.00  0.00     0.031 C 
ENDROOT
BRANCH   1   3
ATOM      3  C   UNL     1     -11.377 -45.490  29.453  1.00  0.00     0.012 A 
ATOM      4  C   UNL     1     -12.604 -44.807  29.592  1.00  0.00     0.123 A 
ATOM      5  C   UNL     1     -13.603 -44.964  28.624  1.00  0.00     0.047 A 
ATOM      6  C   UNL     1     -13.396 -45.792  27.519  1.00  0.00     0.004 A 
ATOM      7  C   UNL     1     -11.183 -46.305  28.321  1.00  0.00     0.009 A 
ATOM      8  C   UNL     1     -12.187 -46.459  27.366  1.00  0.00     0.001 A 
BRANCH   4   9
ATOM      9  O   UNL     1     -12.718 -43.972  30.677  1.00  0.00    -0.496 OA
ATOM     10  C   UNL     1     -13.848 -44.166  31.522  1.00  0.00     0.278 C 
ENDBRANCH   4   9
ENDBRANCH   1   3
BRANCH   1  11
ATOM     11  N   UNL     1      -9.008 -44.890  29.862  1.00  0.00    -0.195 NA
ATOM     12  H   UNL     1      -8.991 -44.888  28.845  1.00  0.00     0.143 HD
BRANCH  11  13
ATOM     13  S   UNL     1      -8.201 -43.594  30.495  1.00  0.00     0.274 S 
ATOM     14  O   UNL     1      -8.081 -42.555  29.506  1.00  0.00    -0.195 OA
ATOM     15  O   UNL     1      -8.695 -43.360  31.825  1.00  0.00    -0.195 OA
BRANCH  13  16
ATOM     16  N   UNL     1      -6.698 -44.279  30.659  1.00  0.00    -0.216 NA
ATOM     17  H   UNL     1      -6.013 -43.699  30.175  1.00  0.00     0.138 HD
ATOM     18  H   UNL     1      -6.707 -45.228  30.275  1.00  0.00     0.138 HD
ENDBRANCH  13  16
ENDBRANCH  11  13
ENDBRANCH   1  11
TORSDOF 5
ENDMDL
MODEL 4
REMARK VINA RESULT:    -7.200      3.326      4.912
REMARK INTER + INTRA:          -9.680
REMARK INTER:                  -8.966
REMARK INTRA:                  -0.714
REMARK UNBOUND:                -0.587
REMARK SMILES COc1ccccc1[C@@H](C)NS(N)(=O)=O
REMARK SMILES IDX 9 1 10 2 8 3 3 4 4 5 5 6 7 7 6 8 2 9 1 10 11 11 12 13 14 14
REMARK SMILES IDX 15 15 13 16
REMARK H PARENT 11 12 13 17 13 18
ROOT
ATOM      1  C   UNL     1     -12.268 -45.205  28.006  1.00  0.00     0.101 C 
ATOM      2  C   UNL     1     -12.223 -46.620  27.416  1.00  0.00     0.031 C 
ENDROOT
BRANCH   1   3
ATOM      3  C   UNL     1     -11.481 -45.087  29.306  1.00  0.00     0.012 A 
ATOM      4  C   UNL     1     -11.006 -43.838  29.756  1.00  0.00     0.123 A 
ATOM      5  C   UNL     1     -10.295 -43.755  30.960  1.00  0.00     0.047 A 
ATOM      6  C   UNL     1     -10.051 -44.900  31.720  1.00  0.00     0.004 A 
ATOM      7  C   UNL     1     -11.240 -46.226  30.098  1.00  0.00     0.009 A 
ATOM      8  C   UNL     1     -10.525 -46.133  31.291  1.00  0.00     0.001 A 
BRANCH   4   9
ATOM      9  O   UNL     1     -11.326 -42.749  28.983  1.00  0.00    -0.496 OA
ATOM     10  C   UNL     1     -10.261 -42.139  28.258  1.00  0.00     0.278 C 
ENDBRANCH   4   9
ENDBRANCH   1   3
BRANCH   1  11
ATOM     11  N   UNL     1     -13.683 -44.846  28.196  1.00  0.00    -0.195 NA
ATOM     12  H   UNL     1     -13.956 -44.592  29.142  1.00  0.00     0.143 HD
BRANCH  11  13
ATOM     13  S   UNL     1     -14.438 -43.908  27.064  1.00  0.00     0.274 S 
ATOM     14  O   UNL     1     -14.548 -44.623  25.820  1.00  0.00    -0.195 OA
ATOM     15  O   UNL     1     -15.551 -43.249  27.693  1.00  0.00    -0.195 OA
BRANCH  13  16
ATOM     16  N   UNL     1     -13.260 -42.757  26.855  1.00  0.00    -0.216 NA
ATOM     17  H   UNL     1     -12.488 -42.950  27.492  1.00  0.00     0.138 HD
ATOM     18  H   UNL     1     -13.651 -41.827  27.030  1.00  0.00     0.138 HD
ENDBRANCH  13  16
ENDBRANCH  11  13
ENDBRANCH   1  11
TORSDOF 5
ENDMDL
MODEL 5
REMARK VINA RESULT:    -7.131      3.744      5.541
REMARK INTER + INTRA:          -9.593
REMARK INTER:                  -8.894
REMARK INTRA:                  -0.699
REMARK UNBOUND:                -0.587
REMARK SMILES COc1ccccc1[C@@H](C)NS(N)(=O)=O
REMARK SMILES IDX 9 1 10 2 8 3 3 4 4 5 5 6 7 7 6 8 2 9 1 10 11 11 12 13 14 14
REMARK SMILES IDX 15 15 13 16
REMARK H PARENT 11 12 13 17 13 18
ROOT
ATOM      1  C   UNL     1     -12.086 -44.325  31.784  1.00  0.00     0.101 C 
ATOM      2  C   UNL     1     -12.805 -43.247  32.606  1.00  0.00     0.031 C 
ENDROOT
BRANCH   1   3
ATOM      3  C   UNL     1     -10.576 -44.304  31.985  1.00  0.00     0.012 A 
ATOM      4  C   UNL     1      -9.763 -45.344  31.488  1.00  0.00     0.123 A 
ATOM      5  C   UNL     1      -8.376 -45.295  31.676  1.00  0.00     0.047 A 
ATOM      6  C   UNL     1      -7.789 -44.225  32.352  1.00  0.00     0.004 A 
ATOM      7  C   UNL     1      -9.961 -43.224  32.647  1.00  0.00     0.009 A 
ATOM      8  C   UNL     1      -8.580 -43.189  32.835  1.00  0.00     0.001 A 
BRANCH   4   9
ATOM      9  O   UNL     1     -10.403 -46.339  30.790  1.00  0.00    -0.496 OA
ATOM     10  C   UNL     1     -10.038 -46.503  29.423  1.00  0.00     0.278 C 
ENDBRANCH   4   9
ENDBRANCH   1   3
BRANCH   1  11
ATOM     11  N   UNL     1     -12.448 -44.123  30.371  1.00  0.00    -0.195 NA
ATOM     12  H   UNL     1     -11.681 -43.899  29.742  1.00  0.00     0.143 HD
BRANCH  11  13
ATOM     13  S   UNL     1     -13.547 -45.134  29.665  1.00  0.00     0.274 S 
ATOM     14  O   UNL     1     -13.341 -45.174  28.241  1.00  0.00    -0.195 OA
ATOM     15  O   UNL     1     -13.659 -46.317  30.476  1.00  0.00    -0.195 OA
BRANCH  13  16
ATOM     16  N   UNL     1     -14.924 -44.246  29.928  1.00  0.00    -0.216 NA
ATOM     17  H   UNL     1     -14.958 -43.966  30.908  1.00  0.00     0.138 HD
ATOM     18  H   UNL     1     -15.747 -44.802  29.681  1.00  0.00     0.138 HD
ENDBRANCH  13  16
ENDBRANCH  11  13
ENDBRANCH   1  11
TORSDOF 5
ENDMDL
MODEL 6
REMARK VINA RESULT:    -7.109      3.204      4.382
REMARK INTER + INTRA:          -9.566
REMARK INTER:                  -8.736
REMARK INTRA:                  -0.830
REMARK UNBOUND:                -0.587
REMARK SMILES COc1ccccc1[C@@H](C)NS(N)(=O)=O
REMARK SMILES IDX 9 1 10 2 8 3 3 4 4 5 5 6 7 7 6 8 2 9 1 10 11 11 12 13 14 14
REMARK SMILES IDX 15 15 13 16
REMARK H PARENT 11 12 13 17 13 18
ROOT
ATOM      1  C   UNL     1     -11.287 -45.262  30.302  1.00  0.00     0.101 C 
ATOM      2  C   UNL     1     -10.246 -46.091  31.065  1.00  0.00     0.031 C 
ENDROOT
BRANCH   1   3
ATOM      3  C   UNL     1     -10.652 -44.206  29.406  1.00  0.00     0.012 A 
ATOM      4  C   UNL     1     -11.401 -43.559  28.401  1.00  0.00     0.123 A 
ATOM      5  C   UNL     1     -10.797 -42.583  27.599  1.00  0.00     0.047 A 
ATOM      6  C   UNL     1      -9.456 -42.244  27.785  1.00  0.00     0.004 A 
ATOM      7  C   UNL     1      -9.306 -43.834  29.588  1.00  0.00     0.009 A 
ATOM      8  C   UNL     1      -8.712 -42.866  28.779  1.00  0.00     0.001 A 
BRANCH   4   9
ATOM      9  O   UNL     1     -12.727 -43.908  28.309  1.00  0.00    -0.496 OA
ATOM     10  C   UNL     1     -13.322 -43.837  27.017  1.00  0.00     0.278 C 
ENDBRANCH   4   9
ENDBRANCH   1   3
BRANCH   1  11
ATOM     11  N   UNL     1     -12.191 -44.658  31.294  1.00  0.00    -0.195 NA
ATOM     12  H   UNL     1     -12.241 -43.643  31.292  1.00  0.00     0.143 HD
BRANCH  11  13
ATOM     13  S   UNL     1     -13.668 -45.347  31.566  1.00  0.00     0.274 S 
ATOM     14  O   UNL     1     -13.639 -46.741  31.209  1.00  0.00    -0.195 OA
ATOM     15  O   UNL     1     -14.163 -44.870  32.830  1.00  0.00    -0.195 OA
BRANCH  13  16
ATOM     16  N   UNL     1     -14.539 -44.566  30.389  1.00  0.00    -0.216 NA
ATOM     17  H   UNL     1     -13.935 -44.396  29.585  1.00  0.00     0.138 HD
ATOM     18  H   UNL     1     -14.908 -43.685  30.758  1.00  0.00     0.138 HD
ENDBRANCH  13  16
ENDBRANCH  11  13
ENDBRANCH   1  11
TORSDOF 5
ENDMDL
MODEL 7
REMARK VINA RESULT:    -7.057      3.121      4.882
REMARK INTER + INTRA:          -9.500
REMARK INTER:                  -9.133
REMARK INTRA:                  -0.366
REMARK UNBOUND:                -0.587
REMARK SMILES COc1ccccc1[C@@H](C)NS(N)(=O)=O
REMARK SMILES IDX 9 1 10 2 8 3 3 4 4 5 5 6 7 7 6 8 2 9 1 10 11 11 12 13 14 14
REMARK SMILES IDX 15 15 13 16
REMARK H PARENT 11 12 13 17 13 18
ROOT
ATOM      1  C   UNL     1     -11.102 -45.701  29.620  1.00  0.00     0.101 C 
ATOM      2  C   UNL     1     -10.905 -46.510  28.332  1.00  0.00     0.031 C 
ENDROOT
BRANCH   1   3
ATOM      3  C   UNL     1      -9.788 -45.404  30.332  1.00  0.00     0.012 A 
ATOM      4  C   UNL     1      -9.331 -44.079  30.491  1.00  0.00     0.123 A 
ATOM      5  C   UNL     1      -8.125 -43.833  31.159  1.00  0.00     0.047 A 
ATOM      6  C   UNL     1      -7.369 -44.889  31.671  1.00  0.00     0.004 A 
ATOM      7  C   UNL     1      -9.018 -46.453  30.872  1.00  0.00     0.009 A 
ATOM      8  C   UNL     1      -7.816 -46.196  31.530  1.00  0.00     0.001 A 
BRANCH   4   9
ATOM      9  O   UNL     1     -10.151 -43.089  30.007  1.00  0.00    -0.496 OA
ATOM     10  C   UNL     1      -9.790 -42.509  28.757  1.00  0.00     0.278 C 
ENDBRANCH   4   9
ENDBRANCH   1   3
BRANCH   1  11
ATOM     11  N   UNL     1     -12.027 -46.454  30.482  1.00  0.00    -0.195 NA
ATOM     12  H   UNL     1     -11.597 -47.062  31.175  1.00  0.00     0.143 HD
BRANCH  11  13
ATOM     13  S   UNL     1     -13.373 -45.701  31.077  1.00  0.00     0.274 S 
ATOM     14  O   UNL     1     -13.017 -44.849  32.181  1.00  0.00    -0.195 OA
ATOM     15  O   UNL     1     -14.169 -45.254  29.965  1.00  0.00    -0.195 OA
BRANCH  13  16
ATOM     16  N   UNL     1     -14.148 -47.021  31.717  1.00  0.00    -0.216 NA
ATOM     17  H   UNL     1     -15.149 -46.935  31.546  1.00  0.00     0.138 HD
ATOM     18  H   UNL     1     -13.955 -47.082  32.721  1.00  0.00     0.138 HD
ENDBRANCH  13  16
ENDBRANCH  11  13
ENDBRANCH   1  11
TORSDOF 5
ENDMDL
MODEL 8
REMARK VINA RESULT:    -7.010      1.580      2.671
REMARK INTER + INTRA:          -9.441
REMARK INTER:                  -8.433
REMARK INTRA:                  -1.008
REMARK UNBOUND:                -0.587
REMARK SMILES COc1ccccc1[C@@H](C)NS(N)(=O)=O
REMARK SMILES IDX 9 1 10 2 8 3 3 4 4 5 5 6 7 7 6 8 2 9 1 10 11 11 12 13 14 14
REMARK SMILES IDX 15 15 13 16
REMARK H PARENT 11 12 13 17 13 18
ROOT
ATOM      1  C   UNL     1      -9.899 -43.702  28.799  1.00  0.00     0.101 C 
ATOM      2  C   UNL     1      -9.208 -42.672  27.897  1.00  0.00     0.031 C 
ENDROOT
BRANCH   1   3
ATOM      3  C   UNL     1     -11.306 -44.044  28.326  1.00  0.00     0.012 A 
ATOM      4  C   UNL     1     -12.005 -45.147  28.859  1.00  0.00     0.123 A 
ATOM      5  C   UNL     1     -13.302 -45.433  28.415  1.00  0.00     0.047 A 
ATOM      6  C   UNL     1     -13.912 -44.634  27.447  1.00  0.00     0.004 A 
ATOM      7  C   UNL     1     -11.948 -43.241  27.363  1.00  0.00     0.009 A 
ATOM      8  C   UNL     1     -13.238 -43.538  26.923  1.00  0.00     0.001 A 
BRANCH   4   9
ATOM      9  O   UNL     1     -11.362 -45.858  29.844  1.00  0.00    -0.496 OA
ATOM     10  C   UNL     1     -12.060 -46.029  31.073  1.00  0.00     0.278 C 
ENDBRANCH   4   9
ENDBRANCH   1   3
BRANCH   1  11
ATOM     11  N   UNL     1      -9.904 -43.163  30.169  1.00  0.00    -0.195 NA
ATOM     12  H   UNL     1     -10.817 -43.067  30.607  1.00  0.00     0.143 HD
BRANCH  11  13
ATOM     13  S   UNL     1      -8.757 -43.675  31.243  1.00  0.00     0.274 S 
ATOM     14  O   UNL     1      -7.512 -42.996  30.999  1.00  0.00    -0.195 OA
ATOM     15  O   UNL     1      -9.364 -43.760  32.545  1.00  0.00    -0.195 OA
BRANCH  13  16
ATOM     16  N   UNL     1      -8.571 -45.232  30.702  1.00  0.00    -0.216 NA
ATOM     17  H   UNL     1      -7.589 -45.497  30.780  1.00  0.00     0.138 HD
ATOM     18  H   UNL     1      -8.889 -45.302  29.732  1.00  0.00     0.138 HD
ENDBRANCH  13  16
ENDBRANCH  11  13
ENDBRANCH   1  11
TORSDOF 5
ENDMDL
MODEL 9
REMARK VINA RESULT:    -6.767      3.969      5.735
REMARK INTER + INTRA:          -9.133
REMARK INTER:                  -8.581
REMARK INTRA:                  -0.553
REMARK UNBOUND:                -0.587
REMARK SMILES COc1ccccc1[C@@H](C)NS(N)(=O)=O
REMARK SMILES IDX 9 1 10 2 8 3 3 4 4 5 5 6 7 7 6 8 2 9 1 10 11 11 12 13 14 14
REMARK SMILES IDX 15 15 13 16
REMARK H PARENT 11 12 13 17 13 18
ROOT
ATOM      1  C   UNL     1     -11.262 -43.820  30.654  1.00  0.00     0.101 C 
ATOM      2  C   UNL     1     -10.276 -43.898  29.482  1.00  0.00     0.031 C 
ENDROOT
BRANCH   1   3
ATOM      3  C   UNL     1     -10.621 -43.272  31.923  1.00  0.00     0.012 A 
ATOM      4  C   UNL     1     -11.381 -42.554  32.870  1.00  0.00     0.123 A 
ATOM      5  C   UNL     1     -10.770 -42.071  34.034  1.00  0.00     0.047 A 
ATOM      6  C   UNL     1      -9.412 -42.293  34.266  1.00  0.00     0.004 A 
ATOM      7  C   UNL     1      -9.257 -43.501  32.188  1.00  0.00     0.009 A 
ATOM      8  C   UNL     1      -8.657 -43.009  33.346  1.00  0.00     0.001 A 
BRANCH   4   9
ATOM      9  O   UNL     1     -12.721 -42.417  32.599  1.00  0.00    -0.496 OA
ATOM     10  C   UNL     1     -13.610 -42.464  33.711  1.00  0.00     0.278 C 
ENDBRANCH   4   9
ENDBRANCH   1   3
BRANCH   1  11
ATOM     11  N   UNL     1     -11.812 -45.169  30.864  1.00  0.00    -0.195 NA
ATOM     12  H   UNL     1     -11.702 -45.555  31.799  1.00  0.00     0.143 HD
BRANCH  11  13
ATOM     13  S   UNL     1     -13.278 -45.557  30.207  1.00  0.00     0.274 S 
ATOM     14  O   UNL     1     -14.168 -44.428  30.281  1.00  0.00    -0.195 OA
ATOM     15  O   UNL     1     -13.048 -46.298  28.996  1.00  0.00    -0.195 OA
BRANCH  13  16
ATOM     16  N   UNL     1     -13.792 -46.650  31.345  1.00  0.00    -0.216 NA
ATOM     17  H   UNL     1     -14.119 -47.493  30.873  1.00  0.00     0.138 HD
ATOM     18  H   UNL     1     -14.539 -46.237  31.909  1.00  0.00     0.138 HD
ENDBRANCH  13  16
ENDBRANCH  11  13
ENDBRANCH   1  11
TORSDOF 5
ENDMDL
