MODEL 1
REMARK VINA RESULT:   -12.860      0.000      0.000
REMARK INTER + INTRA:         -19.490
REMARK INTER:                 -18.498
REMARK INTRA:                  -0.992
REMARK UNBOUND:                -0.992
REMARK SMILES Cc1cc(O)nc2c1C(=O)C(=NCCCCNc1c3c(nc4cc(Cl)ccc14)CCCC3)CC2=O
REMARK SMILES IDX 14 1 13 2 12 3 11 4 33 5 34 6 7 7 9 8 6 9 8 10 4 11 2 12
REMARK SMILES IDX 3 13 35 14 10 15 1 16 5 17 15 19 16 20 17 21 18 23 19 24
REMARK SMILES IDX 28 25 20 26 32 27 27 28 22 29 21 30 29 31 31 32 26 33 23 34
REMARK SMILES IDX 30 35 24 36 25 37
REMARK H PARENT 5 18 17 22
ROOT
ATOM      1  C   UNL     1     -11.926 -45.212  27.563  1.00  0.00     0.025 C 
ENDROOT
BRANCH   1   2
ATOM      2  C   UNL     1     -11.926 -43.755  28.023  1.00  0.00     0.142 C 
BRANCH   2   3
ATOM      3  N   UNL     1     -12.778 -42.940  27.166  1.00  0.00    -0.285 NA
BRANCH   3   4
ATOM      4  C   UNL     1     -13.853 -43.404  26.634  1.00  0.00     0.091 C 
ATOM      5  C   UNL     1     -14.078 -43.864  25.232  1.00  0.00     0.142 C 
ATOM      6  C   UNL     1     -15.376 -43.381  24.644  1.00  0.00     0.188 C 
ATOM      7  C   UNL     1     -16.444 -42.879  25.565  1.00  0.00     0.122 A 
ATOM      8  C   UNL     1     -15.076 -43.516  27.508  1.00  0.00     0.209 C 
ATOM      9  N   UNL     1     -17.547 -42.387  24.943  1.00  0.00    -0.210 NA
ATOM     10  C   UNL     1     -16.318 -42.962  26.950  1.00  0.00     0.056 A 
ATOM     11  C   UNL     1     -18.543 -41.983  25.737  1.00  0.00     0.211 A 
ATOM     12  C   UNL     1     -17.386 -42.523  27.754  1.00  0.00    -0.032 A 
ATOM     13  C   UNL     1     -18.528 -42.026  27.116  1.00  0.00     0.072 A 
ATOM     14  O   UNL     1     -15.563 -43.436  23.430  1.00  0.00    -0.292 OA
ATOM     15  O   UNL     1     -15.008 -44.069  28.592  1.00  0.00    -0.287 OA
ATOM     16  C   UNL     1     -17.352 -42.572  29.256  1.00  0.00     0.045 C 
BRANCH  11  17
ATOM     17  O   UNL     1     -19.624 -41.507  25.076  1.00  0.00    -0.493 OA
ATOM     18  H   UNL     1     -20.181 -42.306  25.035  1.00  0.00     0.295 HD
ENDBRANCH  11  17
ENDBRANCH   3   4
ENDBRANCH   2   3
ENDBRANCH   1   2
BRANCH   1  19
ATOM     19  C   UNL     1     -12.163 -46.186  28.725  1.00  0.00     0.023 C 
BRANCH  19  20
ATOM     20  C   UNL     1     -10.893 -46.487  29.523  1.00  0.00     0.113 C 
BRANCH  20  21
ATOM     21  N   UNL     1     -11.185 -46.488  30.963  1.00  0.00    -0.384 N 
ATOM     22  H   UNL     1     -12.161 -46.721  31.129  1.00  0.00     0.160 HD
BRANCH  21  23
ATOM     23  C   UNL     1     -10.876 -45.231  31.566  1.00  0.00     0.049 A 
ATOM     24  C   UNL     1      -9.541 -44.870  31.845  1.00  0.00    -0.003 A 
ATOM     25  C   UNL     1     -11.936 -44.380  31.981  1.00  0.00     0.024 A 
ATOM     26  C   UNL     1      -9.330 -43.683  32.555  1.00  0.00     0.046 A 
ATOM     27  C   UNL     1      -8.376 -45.753  31.462  1.00  0.00     0.039 C 
ATOM     28  C   UNL     1     -13.301 -44.647  31.718  1.00  0.00     0.014 A 
ATOM     29  C   UNL     1     -11.599 -43.201  32.674  1.00  0.00     0.074 A 
ATOM     30  N   UNL     1     -10.334 -42.865  32.953  1.00  0.00    -0.252 NA
ATOM     31  C   UNL     1      -7.945 -43.196  32.897  1.00  0.00     0.056 C 
ATOM     32  C   UNL     1      -7.010 -45.075  31.563  1.00  0.00     0.005 C 
ATOM     33  C   UNL     1     -14.303 -43.777  32.143  1.00  0.00     0.021 A 
ATOM     34  C   UNL     1     -12.609 -42.346  33.092  1.00  0.00     0.049 A 
ATOM     35  C   UNL     1      -6.894 -44.298  32.865  1.00  0.00     0.007 C 
ATOM     36  C   UNL     1     -13.948 -42.627  32.833  1.00  0.00     0.043 A 
ATOM     37  Cl  UNL     1     -15.170 -41.540  33.367  1.00  0.00    -0.084 Cl
ENDBRANCH  21  23
ENDBRANCH  20  21
ENDBRANCH  19  20
ENDBRANCH   1  19
TORSDOF 8
ENDMDL
MODEL 2
REMARK VINA RESULT:   -12.200      1.141      2.191
REMARK INTER + INTRA:         -18.540
REMARK INTER:                 -17.438
REMARK INTRA:                  -1.102
REMARK UNBOUND:                -0.992
REMARK SMILES Cc1cc(O)nc2c1C(=O)C(=NCCCCNc1c3c(nc4cc(Cl)ccc14)CCCC3)CC2=O
REMARK SMILES IDX 14 1 13 2 12 3 11 4 33 5 34 6 7 7 9 8 6 9 8 10 4 11 2 12
REMARK SMILES IDX 3 13 35 14 10 15 1 16 5 17 15 19 16 20 17 21 18 23 19 24
REMARK SMILES IDX 28 25 20 26 32 27 27 28 22 29 21 30 29 31 31 32 26 33 23 34
REMARK SMILES IDX 30 35 24 36 25 37
REMARK H PARENT 5 18 17 22
ROOT
ATOM      1  C   UNL     1     -11.556 -46.484  27.301  1.00  0.00     0.025 C 
ENDROOT
BRANCH   1   2
ATOM      2  C   UNL     1     -13.083 -46.509  27.251  1.00  0.00     0.142 C 
BRANCH   2   3
ATOM      3  N   UNL     1     -13.586 -45.547  26.278  1.00  0.00    -0.285 NA
BRANCH   3   4
ATOM      4  C   UNL     1     -14.138 -44.442  26.636  1.00  0.00     0.091 C 
ATOM      5  C   UNL     1     -14.354 -43.909  28.013  1.00  0.00     0.142 C 
ATOM      6  C   UNL     1     -15.722 -43.316  28.218  1.00  0.00     0.188 C 
ATOM      7  C   UNL     1     -16.538 -42.951  27.018  1.00  0.00     0.122 A 
ATOM      8  C   UNL     1     -14.651 -43.531  25.549  1.00  0.00     0.209 C 
ATOM      9  N   UNL     1     -17.790 -42.500  27.297  1.00  0.00    -0.210 NA
ATOM     10  C   UNL     1     -16.022 -43.029  25.726  1.00  0.00     0.056 A 
ATOM     11  C   UNL     1     -18.525 -42.112  26.250  1.00  0.00     0.211 A 
ATOM     12  C   UNL     1     -16.827 -42.615  24.649  1.00  0.00    -0.032 A 
ATOM     13  C   UNL     1     -18.112 -42.140  24.934  1.00  0.00     0.072 A 
ATOM     14  O   UNL     1     -16.139 -43.103  29.355  1.00  0.00    -0.292 OA
ATOM     15  O   UNL     1     -13.933 -43.225  24.615  1.00  0.00    -0.287 OA
ATOM     16  C   UNL     1     -16.363 -42.656  23.220  1.00  0.00     0.045 C 
BRANCH  11  17
ATOM     17  O   UNL     1     -19.761 -41.664  26.574  1.00  0.00    -0.493 OA
ATOM     18  H   UNL     1     -20.297 -42.458  26.391  1.00  0.00     0.295 HD
ENDBRANCH  11  17
ENDBRANCH   3   4
ENDBRANCH   2   3
ENDBRANCH   1   2
BRANCH   1  19
ATOM     19  C   UNL     1     -11.023 -46.526  28.740  1.00  0.00     0.023 C 
BRANCH  19  20
ATOM     20  C   UNL     1     -12.088 -46.185  29.784  1.00  0.00     0.113 C 
BRANCH  20  21
ATOM     21  N   UNL     1     -11.545 -46.359  31.139  1.00  0.00    -0.384 N 
ATOM     22  H   UNL     1     -12.228 -46.812  31.741  1.00  0.00     0.160 HD
BRANCH  21  23
ATOM     23  C   UNL     1     -11.142 -45.115  31.710  1.00  0.00     0.049 A 
ATOM     24  C   UNL     1      -9.776 -44.800  31.871  1.00  0.00    -0.003 A 
ATOM     25  C   UNL     1     -12.132 -44.229  32.217  1.00  0.00     0.024 A 
ATOM     26  C   UNL     1      -9.464 -43.623  32.559  1.00  0.00     0.046 A 
ATOM     27  C   UNL     1      -8.679 -45.721  31.388  1.00  0.00     0.039 C 
ATOM     28  C   UNL     1     -13.523 -44.450  32.075  1.00  0.00     0.014 A 
ATOM     29  C   UNL     1     -11.695 -43.064  32.877  1.00  0.00     0.074 A 
ATOM     30  N   UNL     1     -10.400 -42.772  33.043  1.00  0.00    -0.252 NA
ATOM     31  C   UNL     1      -8.038 -43.183  32.777  1.00  0.00     0.056 C 
ATOM     32  C   UNL     1      -7.288 -45.090  31.368  1.00  0.00     0.005 C 
ATOM     33  C   UNL     1     -14.453 -43.547  32.586  1.00  0.00     0.021 A 
ATOM     34  C   UNL     1     -12.635 -42.176  33.380  1.00  0.00     0.049 A 
ATOM     35  C   UNL     1      -7.032 -44.320  32.654  1.00  0.00     0.007 C 
ATOM     36  C   UNL     1     -14.001 -42.412  33.241  1.00  0.00     0.043 A 
ATOM     37  Cl  UNL     1     -15.134 -41.285  33.879  1.00  0.00    -0.084 Cl
ENDBRANCH  21  23
ENDBRANCH  20  21
ENDBRANCH  19  20
ENDBRANCH   1  19
TORSDOF 8
ENDMDL
MODEL 3
REMARK VINA RESULT:   -11.284      4.115     10.583
REMARK INTER + INTRA:         -17.224
REMARK INTER:                 -16.751
REMARK INTRA:                  -0.473
REMARK UNBOUND:                -0.992
REMARK SMILES Cc1cc(O)nc2c1C(=O)C(=NCCCCNc1c3c(nc4cc(Cl)ccc14)CCCC3)CC2=O
REMARK SMILES IDX 14 1 13 2 12 3 11 4 33 5 34 6 7 7 9 8 6 9 8 10 4 11 2 12
REMARK SMILES IDX 3 13 35 14 10 15 1 16 5 17 15 19 16 20 17 21 18 23 19 24
REMARK SMILES IDX 28 25 20 26 32 27 27 28 22 29 21 30 29 31 31 32 26 33 23 34
REMARK SMILES IDX 30 35 24 36 25 37
REMARK H PARENT 5 18 17 22
ROOT
ATOM      1  C   UNL     1     -15.145 -43.230  25.064  1.00  0.00     0.025 C 
ENDROOT
BRANCH   1   2
ATOM      2  C   UNL     1     -14.183 -44.387  25.325  1.00  0.00     0.142 C 
BRANCH   2   3
ATOM      3  N   UNL     1     -14.183 -44.754  26.736  1.00  0.00    -0.285 NA
BRANCH   3   4
ATOM      4  C   UNL     1     -13.369 -44.223  27.578  1.00  0.00     0.091 C 
ATOM      5  C   UNL     1     -12.279 -43.235  27.327  1.00  0.00     0.142 C 
ATOM      6  C   UNL     1     -11.002 -43.553  28.055  1.00  0.00     0.188 C 
ATOM      7  C   UNL     1     -11.044 -44.511  29.204  1.00  0.00     0.122 A 
ATOM      8  C   UNL     1     -13.496 -44.626  29.026  1.00  0.00     0.209 C 
ATOM      9  N   UNL     1      -9.834 -44.802  29.748  1.00  0.00    -0.210 NA
ATOM     10  C   UNL     1     -12.246 -45.016  29.696  1.00  0.00     0.056 A 
ATOM     11  C   UNL     1      -9.842 -45.610  30.813  1.00  0.00     0.211 A 
ATOM     12  C   UNL     1     -12.216 -45.867  30.816  1.00  0.00    -0.032 A 
ATOM     13  C   UNL     1     -10.971 -46.160  31.385  1.00  0.00     0.072 A 
ATOM     14  O   UNL     1      -9.951 -43.004  27.728  1.00  0.00    -0.292 OA
ATOM     15  O   UNL     1     -14.579 -44.586  29.581  1.00  0.00    -0.287 OA
ATOM     16  C   UNL     1     -13.455 -46.461  31.424  1.00  0.00     0.045 C 
BRANCH  11  17
ATOM     17  O   UNL     1      -8.616 -45.868  31.325  1.00  0.00    -0.493 OA
ATOM     18  H   UNL     1      -8.841 -46.507  32.027  1.00  0.00     0.295 HD
ENDBRANCH  11  17
ENDBRANCH   3   4
ENDBRANCH   2   3
ENDBRANCH   1   2
BRANCH   1  19
ATOM     19  C   UNL     1     -15.722 -43.265  23.643  1.00  0.00     0.023 C 
BRANCH  19  20
ATOM     20  C   UNL     1     -16.520 -42.009  23.289  1.00  0.00     0.113 C 
BRANCH  20  21
ATOM     21  N   UNL     1     -17.797 -42.378  22.661  1.00  0.00    -0.384 N 
ATOM     22  H   UNL     1     -17.730 -42.310  21.649  1.00  0.00     0.160 HD
BRANCH  21  23
ATOM     23  C   UNL     1     -18.872 -41.566  23.133  1.00  0.00     0.049 A 
ATOM     24  C   UNL     1     -19.378 -41.722  24.440  1.00  0.00    -0.003 A 
ATOM     25  C   UNL     1     -19.506 -40.662  22.237  1.00  0.00     0.024 A 
ATOM     26  C   UNL     1     -20.516 -40.983  24.783  1.00  0.00     0.046 A 
ATOM     27  C   UNL     1     -18.770 -42.695  25.424  1.00  0.00     0.039 C 
ATOM     28  C   UNL     1     -19.050 -40.422  20.918  1.00  0.00     0.014 A 
ATOM     29  C   UNL     1     -20.636 -39.960  22.701  1.00  0.00     0.074 A 
ATOM     30  N   UNL     1     -21.125 -40.118  23.936  1.00  0.00    -0.252 NA
ATOM     31  C   UNL     1     -21.133 -41.063  26.156  1.00  0.00     0.056 C 
ATOM     32  C   UNL     1     -19.241 -42.512  26.866  1.00  0.00     0.005 C 
ATOM     33  C   UNL     1     -19.705 -39.521  20.081  1.00  0.00     0.021 A 
ATOM     34  C   UNL     1     -21.276 -39.068  21.853  1.00  0.00     0.049 A 
ATOM     35  C   UNL     1     -20.749 -42.326  26.916  1.00  0.00     0.007 C 
ATOM     36  C   UNL     1     -20.820 -38.849  20.555  1.00  0.00     0.043 A 
ATOM     37  Cl  UNL     1     -21.644 -37.732  19.536  1.00  0.00    -0.084 Cl
ENDBRANCH  21  23
ENDBRANCH  20  21
ENDBRANCH  19  20
ENDBRANCH   1  19
TORSDOF 8
ENDMDL
MODEL 4
REMARK VINA RESULT:   -11.247      2.236      3.412
REMARK INTER + INTRA:         -17.169
REMARK INTER:                 -16.665
REMARK INTRA:                  -0.505
REMARK UNBOUND:                -0.992
REMARK SMILES Cc1cc(O)nc2c1C(=O)C(=NCCCCNc1c3c(nc4cc(Cl)ccc14)CCCC3)CC2=O
REMARK SMILES IDX 14 1 13 2 12 3 11 4 33 5 34 6 7 7 9 8 6 9 8 10 4 11 2 12
REMARK SMILES IDX 3 13 35 14 10 15 1 16 5 17 15 19 16 20 17 21 18 23 19 24
REMARK SMILES IDX 28 25 20 26 32 27 27 28 22 29 21 30 29 31 31 32 26 33 23 34
REMARK SMILES IDX 30 35 24 36 25 37
REMARK H PARENT 5 18 17 22
ROOT
ATOM      1  C   UNL     1     -14.523 -44.082  26.339  1.00  0.00     0.025 C 
ENDROOT
BRANCH   1   2
ATOM      2  C   UNL     1     -14.979 -42.665  25.999  1.00  0.00     0.142 C 
BRANCH   2   3
ATOM      3  N   UNL     1     -16.420 -42.622  25.784  1.00  0.00    -0.285 NA
BRANCH   3   4
ATOM      4  C   UNL     1     -16.932 -42.529  24.608  1.00  0.00     0.091 C 
ATOM      5  C   UNL     1     -16.237 -42.341  23.300  1.00  0.00     0.142 C 
ATOM      6  C   UNL     1     -16.902 -41.329  22.408  1.00  0.00     0.188 C 
ATOM      7  C   UNL     1     -18.318 -40.934  22.693  1.00  0.00     0.122 A 
ATOM      8  C   UNL     1     -18.433 -42.614  24.486  1.00  0.00     0.209 C 
ATOM      9  N   UNL     1     -18.808 -39.955  21.888  1.00  0.00    -0.210 NA
ATOM     10  C   UNL     1     -19.073 -41.565  23.679  1.00  0.00     0.056 A 
ATOM     11  C   UNL     1     -20.088 -39.619  22.079  1.00  0.00     0.211 A 
ATOM     12  C   UNL     1     -20.415 -41.182  23.853  1.00  0.00    -0.032 A 
ATOM     13  C   UNL     1     -20.927 -40.182  23.018  1.00  0.00     0.072 A 
ATOM     14  O   UNL     1     -16.299 -40.866  21.441  1.00  0.00    -0.292 OA
ATOM     15  O   UNL     1     -19.039 -43.530  25.012  1.00  0.00    -0.287 OA
ATOM     16  C   UNL     1     -21.314 -41.803  24.885  1.00  0.00     0.045 C 
BRANCH  11  17
ATOM     17  O   UNL     1     -20.537 -38.646  21.252  1.00  0.00    -0.493 OA
ATOM     18  H   UNL     1     -20.587 -37.891  21.867  1.00  0.00     0.295 HD
ENDBRANCH  11  17
ENDBRANCH   3   4
ENDBRANCH   2   3
ENDBRANCH   1   2
BRANCH   1  19
ATOM     19  C   UNL     1     -14.359 -44.292  27.850  1.00  0.00     0.023 C 
BRANCH  19  20
ATOM     20  C   UNL     1     -13.267 -45.303  28.200  1.00  0.00     0.113 C 
BRANCH  20  21
ATOM     21  N   UNL     1     -13.458 -45.805  29.569  1.00  0.00    -0.384 N 
ATOM     22  H   UNL     1     -14.423 -45.682  29.862  1.00  0.00     0.160 HD
BRANCH  21  23
ATOM     23  C   UNL     1     -12.583 -45.160  30.495  1.00  0.00     0.049 A 
ATOM     24  C   UNL     1     -11.218 -45.509  30.565  1.00  0.00    -0.003 A 
ATOM     25  C   UNL     1     -13.120 -44.230  31.426  1.00  0.00     0.024 A 
ATOM     26  C   UNL     1     -10.457 -44.929  31.585  1.00  0.00     0.046 A 
ATOM     27  C   UNL     1     -10.600 -46.520  29.627  1.00  0.00     0.039 C 
ATOM     28  C   UNL     1     -14.469 -43.801  31.412  1.00  0.00     0.014 A 
ATOM     29  C   UNL     1     -12.251 -43.699  32.399  1.00  0.00     0.074 A 
ATOM     30  N   UNL     1     -10.959 -44.040  32.476  1.00  0.00    -0.252 NA
ATOM     31  C   UNL     1      -8.987 -45.221  31.746  1.00  0.00     0.056 C 
ATOM     32  C   UNL     1      -9.072 -46.545  29.643  1.00  0.00     0.005 C 
ATOM     33  C   UNL     1     -14.945 -42.883  32.345  1.00  0.00     0.021 A 
ATOM     34  C   UNL     1     -12.742 -42.786  33.322  1.00  0.00     0.049 A 
ATOM     35  C   UNL     1      -8.553 -46.516  31.072  1.00  0.00     0.007 C 
ATOM     36  C   UNL     1     -14.074 -42.380  33.300  1.00  0.00     0.043 A 
ATOM     37  Cl  UNL     1     -14.642 -41.245  34.462  1.00  0.00    -0.084 Cl
ENDBRANCH  21  23
ENDBRANCH  20  21
ENDBRANCH  19  20
ENDBRANCH   1  19
TORSDOF 8
ENDMDL
MODEL 5
REMARK VINA RESULT:   -10.918      2.097      4.213
REMARK INTER + INTRA:         -16.696
REMARK INTER:                 -15.980
REMARK INTRA:                  -0.717
REMARK UNBOUND:                -0.992
REMARK SMILES Cc1cc(O)nc2c1C(=O)C(=NCCCCNc1c3c(nc4cc(Cl)ccc14)CCCC3)CC2=O
REMARK SMILES IDX 14 1 13 2 12 3 11 4 33 5 34 6 7 7 9 8 6 9 8 10 4 11 2 12
REMARK SMILES IDX 3 13 35 14 10 15 1 16 5 17 15 19 16 20 17 21 18 23 19 24
REMARK SMILES IDX 28 25 20 26 32 27 27 28 22 29 21 30 29 31 31 32 26 33 23 34
REMARK SMILES IDX 30 35 24 36 25 37
REMARK H PARENT 5 18 17 22
ROOT
ATOM      1  C   UNL     1     -12.630 -44.869  27.250  1.00  0.00     0.025 C 
ENDROOT
BRANCH   1   2
ATOM      2  C   UNL     1     -13.908 -45.267  26.514  1.00  0.00     0.142 C 
BRANCH   2   3
ATOM      3  N   UNL     1     -14.394 -44.168  25.688  1.00  0.00    -0.285 NA
BRANCH   3   4
ATOM      4  C   UNL     1     -15.167 -43.254  26.156  1.00  0.00     0.091 C 
ATOM      5  C   UNL     1     -15.258 -42.733  27.553  1.00  0.00     0.142 C 
ATOM      6  C   UNL     1     -16.672 -42.553  28.034  1.00  0.00     0.188 C 
ATOM      7  C   UNL     1     -17.778 -42.507  27.026  1.00  0.00     0.122 A 
ATOM      8  C   UNL     1     -16.128 -42.591  25.202  1.00  0.00     0.209 C 
ATOM      9  N   UNL     1     -19.027 -42.424  27.555  1.00  0.00    -0.210 NA
ATOM     10  C   UNL     1     -17.524 -42.500  25.656  1.00  0.00     0.056 A 
ATOM     11  C   UNL     1     -20.033 -42.324  26.682  1.00  0.00     0.211 A 
ATOM     12  C   UNL     1     -18.609 -42.397  24.767  1.00  0.00    -0.032 A 
ATOM     13  C   UNL     1     -19.896 -42.301  25.309  1.00  0.00     0.072 A 
ATOM     14  O   UNL     1     -16.903 -42.410  29.233  1.00  0.00    -0.292 OA
ATOM     15  O   UNL     1     -15.729 -42.140  24.144  1.00  0.00    -0.287 OA
ATOM     16  C   UNL     1     -18.442 -42.378  23.273  1.00  0.00     0.045 C 
BRANCH  11  17
ATOM     17  O   UNL     1     -21.258 -42.238  27.252  1.00  0.00    -0.493 OA
ATOM     18  H   UNL     1     -21.187 -41.381  27.712  1.00  0.00     0.295 HD
ENDBRANCH  11  17
ENDBRANCH   3   4
ENDBRANCH   2   3
ENDBRANCH   1   2
BRANCH   1  19
ATOM     19  C   UNL     1     -12.422 -45.684  28.533  1.00  0.00     0.023 C 
BRANCH  19  20
ATOM     20  C   UNL     1     -11.119 -45.343  29.256  1.00  0.00     0.113 C 
BRANCH  20  21
ATOM     21  N   UNL     1     -11.146 -45.868  30.629  1.00  0.00    -0.384 N 
ATOM     22  H   UNL     1     -12.012 -46.371  30.802  1.00  0.00     0.160 HD
BRANCH  21  23
ATOM     23  C   UNL     1     -10.986 -44.829  31.596  1.00  0.00     0.049 A 
ATOM     24  C   UNL     1     -12.100 -44.116  32.084  1.00  0.00    -0.003 A 
ATOM     25  C   UNL     1      -9.676 -44.443  31.991  1.00  0.00     0.024 A 
ATOM     26  C   UNL     1     -11.849 -43.027  32.926  1.00  0.00     0.046 A 
ATOM     27  C   UNL     1     -13.513 -44.455  31.669  1.00  0.00     0.039 C 
ATOM     28  C   UNL     1      -8.504 -45.119  31.575  1.00  0.00     0.014 A 
ATOM     29  C   UNL     1      -9.549 -43.340  32.858  1.00  0.00     0.074 A 
ATOM     30  N   UNL     1     -10.605 -42.654  33.310  1.00  0.00    -0.252 NA
ATOM     31  C   UNL     1     -12.966 -42.203  33.515  1.00  0.00     0.056 C 
ATOM     32  C   UNL     1     -14.598 -43.793  32.518  1.00  0.00     0.005 C 
ATOM     33  C   UNL     1      -7.242 -44.703  31.995  1.00  0.00     0.021 A 
ATOM     34  C   UNL     1      -8.285 -42.939  33.266  1.00  0.00     0.049 A 
ATOM     35  C   UNL     1     -14.275 -42.324  32.745  1.00  0.00     0.007 C 
ATOM     36  C   UNL     1      -7.141 -43.609  32.841  1.00  0.00     0.043 A 
ATOM     37  Cl  UNL     1      -5.592 -43.080  33.371  1.00  0.00    -0.084 Cl
ENDBRANCH  21  23
ENDBRANCH  20  21
ENDBRANCH  19  20
ENDBRANCH   1  19
TORSDOF 8
ENDMDL
MODEL 6
REMARK VINA RESULT:   -10.570      4.303     10.694
REMARK INTER + INTRA:         -16.195
REMARK INTER:                 -15.539
REMARK INTRA:                  -0.656
REMARK UNBOUND:                -0.992
REMARK SMILES Cc1cc(O)nc2c1C(=O)C(=NCCCCNc1c3c(nc4cc(Cl)ccc14)CCCC3)CC2=O
REMARK SMILES IDX 14 1 13 2 12 3 11 4 33 5 34 6 7 7 9 8 6 9 8 10 4 11 2 12
REMARK SMILES IDX 3 13 35 14 10 15 1 16 5 17 15 19 16 20 17 21 18 23 19 24
REMARK SMILES IDX 28 25 20 26 32 27 27 28 22 29 21 30 29 31 31 32 26 33 23 34
REMARK SMILES IDX 30 35 24 36 25 37
REMARK H PARENT 5 18 17 22
ROOT
ATOM      1  C   UNL     1     -15.957 -42.471  23.651  1.00  0.00     0.025 C 
ENDROOT
BRANCH   1   2
ATOM      2  C   UNL     1     -14.600 -43.072  24.015  1.00  0.00     0.142 C 
BRANCH   2   3
ATOM      3  N   UNL     1     -14.262 -42.787  25.404  1.00  0.00    -0.285 NA
BRANCH   3   4
ATOM      4  C   UNL     1     -14.749 -43.473  26.377  1.00  0.00     0.091 C 
ATOM      5  C   UNL     1     -15.927 -43.165  27.240  1.00  0.00     0.142 C 
ATOM      6  C   UNL     1     -15.685 -43.425  28.702  1.00  0.00     0.188 C 
ATOM      7  C   UNL     1     -14.535 -44.296  29.099  1.00  0.00     0.122 A 
ATOM      8  C   UNL     1     -14.067 -44.771  26.731  1.00  0.00     0.209 C 
ATOM      9  N   UNL     1     -14.343 -44.409  30.440  1.00  0.00    -0.210 NA
ATOM     10  C   UNL     1     -13.762 -44.969  28.156  1.00  0.00     0.056 A 
ATOM     11  C   UNL     1     -13.359 -45.225  30.830  1.00  0.00     0.211 A 
ATOM     12  C   UNL     1     -12.732 -45.817  28.604  1.00  0.00    -0.032 A 
ATOM     13  C   UNL     1     -12.539 -45.943  29.984  1.00  0.00     0.072 A 
ATOM     14  O   UNL     1     -16.445 -42.957  29.547  1.00  0.00    -0.292 OA
ATOM     15  O   UNL     1     -13.829 -45.594  25.865  1.00  0.00    -0.287 OA
ATOM     16  C   UNL     1     -11.845 -46.590  27.668  1.00  0.00     0.045 C 
BRANCH  11  17
ATOM     17  O   UNL     1     -13.208 -45.312  32.172  1.00  0.00    -0.493 OA
ATOM     18  H   UNL     1     -14.129 -45.195  32.469  1.00  0.00     0.295 HD
ENDBRANCH  11  17
ENDBRANCH   3   4
ENDBRANCH   2   3
ENDBRANCH   1   2
BRANCH   1  19
ATOM     19  C   UNL     1     -15.824 -41.261  22.717  1.00  0.00     0.023 C 
BRANCH  19  20
ATOM     20  C   UNL     1     -17.138 -40.887  22.030  1.00  0.00     0.113 C 
BRANCH  20  21
ATOM     21  N   UNL     1     -18.190 -41.850  22.386  1.00  0.00    -0.384 N 
ATOM     22  H   UNL     1     -18.427 -42.431  21.587  1.00  0.00     0.160 HD
BRANCH  21  23
ATOM     23  C   UNL     1     -19.361 -41.195  22.875  1.00  0.00     0.049 A 
ATOM     24  C   UNL     1     -19.756 -41.328  24.223  1.00  0.00    -0.003 A 
ATOM     25  C   UNL     1     -20.193 -40.487  21.966  1.00  0.00     0.024 A 
ATOM     26  C   UNL     1     -20.983 -40.767  24.593  1.00  0.00     0.046 A 
ATOM     27  C   UNL     1     -18.932 -42.102  25.227  1.00  0.00     0.039 C 
ATOM     28  C   UNL     1     -19.863 -40.280  20.605  1.00  0.00     0.014 A 
ATOM     29  C   UNL     1     -21.399 -39.950  22.459  1.00  0.00     0.074 A 
ATOM     30  N   UNL     1     -21.781 -40.089  23.734  1.00  0.00    -0.252 NA
ATOM     31  C   UNL     1     -21.496 -40.839  26.009  1.00  0.00     0.056 C 
ATOM     32  C   UNL     1     -19.343 -41.886  26.682  1.00  0.00     0.005 C 
ATOM     33  C   UNL     1     -20.711 -39.573  19.755  1.00  0.00     0.021 A 
ATOM     34  C   UNL     1     -22.232 -39.250  21.599  1.00  0.00     0.049 A 
ATOM     35  C   UNL     1     -20.856 -41.954  26.826  1.00  0.00     0.007 C 
ATOM     36  C   UNL     1     -21.898 -39.062  20.260  1.00  0.00     0.043 A 
ATOM     37  Cl  UNL     1     -22.960 -38.187  19.227  1.00  0.00    -0.084 Cl
ENDBRANCH  21  23
ENDBRANCH  20  21
ENDBRANCH  19  20
ENDBRANCH   1  19
TORSDOF 8
ENDMDL
MODEL 7
REMARK VINA RESULT:    -9.972      1.804      2.796
REMARK INTER + INTRA:         -15.336
REMARK INTER:                 -15.123
REMARK INTRA:                  -0.213
REMARK UNBOUND:                -0.992
REMARK SMILES Cc1cc(O)nc2c1C(=O)C(=NCCCCNc1c3c(nc4cc(Cl)ccc14)CCCC3)CC2=O
REMARK SMILES IDX 14 1 13 2 12 3 11 4 33 5 34 6 7 7 9 8 6 9 8 10 4 11 2 12
REMARK SMILES IDX 3 13 35 14 10 15 1 16 5 17 15 19 16 20 17 21 18 23 19 24
REMARK SMILES IDX 28 25 20 26 32 27 27 28 22 29 21 30 29 31 31 32 26 33 23 34
REMARK SMILES IDX 30 35 24 36 25 37
REMARK H PARENT 5 18 17 22
ROOT
ATOM      1  C   UNL     1     -13.803 -43.007  26.525  1.00  0.00     0.025 C 
ENDROOT
BRANCH   1   2
ATOM      2  C   UNL     1     -14.093 -43.011  25.025  1.00  0.00     0.142 C 
BRANCH   2   3
ATOM      3  N   UNL     1     -15.104 -42.016  24.689  1.00  0.00    -0.285 NA
BRANCH   3   4
ATOM      4  C   UNL     1     -16.291 -42.348  24.322  1.00  0.00     0.091 C 
ATOM      5  C   UNL     1     -16.846 -42.450  22.940  1.00  0.00     0.142 C 
ATOM      6  C   UNL     1     -18.219 -41.852  22.800  1.00  0.00     0.188 C 
ATOM      7  C   UNL     1     -19.029 -41.605  24.034  1.00  0.00     0.122 A 
ATOM      8  C   UNL     1     -17.290 -42.686  25.399  1.00  0.00     0.209 C 
ATOM      9  N   UNL     1     -20.220 -40.988  23.819  1.00  0.00    -0.210 NA
ATOM     10  C   UNL     1     -18.599 -42.025  25.291  1.00  0.00     0.056 A 
ATOM     11  C   UNL     1     -20.993 -40.804  24.895  1.00  0.00     0.211 A 
ATOM     12  C   UNL     1     -19.438 -41.810  26.401  1.00  0.00    -0.032 A 
ATOM     13  C   UNL     1     -20.671 -41.185  26.180  1.00  0.00     0.072 A 
ATOM     14  O   UNL     1     -18.677 -41.608  21.685  1.00  0.00    -0.292 OA
ATOM     15  O   UNL     1     -17.005 -43.487  26.270  1.00  0.00    -0.287 OA
ATOM     16  C   UNL     1     -19.069 -42.228  27.796  1.00  0.00     0.045 C 
BRANCH  11  17
ATOM     17  O   UNL     1     -22.172 -40.192  24.634  1.00  0.00    -0.493 OA
ATOM     18  H   UNL     1     -22.710 -40.502  25.386  1.00  0.00     0.295 HD
ENDBRANCH  11  17
ENDBRANCH   3   4
ENDBRANCH   2   3
ENDBRANCH   1   2
BRANCH   1  19
ATOM     19  C   UNL     1     -14.228 -44.317  27.201  1.00  0.00     0.023 C 
BRANCH  19  20
ATOM     20  C   UNL     1     -13.058 -45.072  27.833  1.00  0.00     0.113 C 
BRANCH  20  21
ATOM     21  N   UNL     1     -13.445 -45.601  29.149  1.00  0.00    -0.384 N 
ATOM     22  H   UNL     1     -14.426 -45.412  29.335  1.00  0.00     0.160 HD
BRANCH  21  23
ATOM     23  C   UNL     1     -12.639 -45.058  30.195  1.00  0.00     0.049 A 
ATOM     24  C   UNL     1     -11.303 -45.476  30.372  1.00  0.00    -0.003 A 
ATOM     25  C   UNL     1     -13.224 -44.162  31.130  1.00  0.00     0.024 A 
ATOM     26  C   UNL     1     -10.622 -44.998  31.496  1.00  0.00     0.046 A 
ATOM     27  C   UNL     1     -10.640 -46.456  29.432  1.00  0.00     0.039 C 
ATOM     28  C   UNL     1     -14.546 -43.667  31.016  1.00  0.00     0.014 A 
ATOM     29  C   UNL     1     -12.433 -43.734  32.215  1.00  0.00     0.074 A 
ATOM     30  N   UNL     1     -11.171 -44.142  32.391  1.00  0.00    -0.252 NA
ATOM     31  C   UNL     1      -9.189 -45.370  31.776  1.00  0.00     0.056 C 
ATOM     32  C   UNL     1      -9.123 -46.557  29.592  1.00  0.00     0.005 C 
ATOM     33  C   UNL     1     -15.072 -42.786  31.958  1.00  0.00     0.021 A 
ATOM     34  C   UNL     1     -12.973 -42.857  33.145  1.00  0.00     0.049 A 
ATOM     35  C   UNL     1      -8.746 -46.641  31.063  1.00  0.00     0.007 C 
ATOM     36  C   UNL     1     -14.278 -42.386  33.023  1.00  0.00     0.043 A 
ATOM     37  Cl  UNL     1     -14.909 -41.299  34.198  1.00  0.00    -0.084 Cl
ENDBRANCH  21  23
ENDBRANCH  20  21
ENDBRANCH  19  20
ENDBRANCH   1  19
TORSDOF 8
ENDMDL
MODEL 8
REMARK VINA RESULT:    -9.967      4.181     10.776
REMARK INTER + INTRA:         -15.329
REMARK INTER:                 -14.784
REMARK INTRA:                  -0.545
REMARK UNBOUND:                -0.992
REMARK SMILES Cc1cc(O)nc2c1C(=O)C(=NCCCCNc1c3c(nc4cc(Cl)ccc14)CCCC3)CC2=O
REMARK SMILES IDX 14 1 13 2 12 3 11 4 33 5 34 6 7 7 9 8 6 9 8 10 4 11 2 12
REMARK SMILES IDX 3 13 35 14 10 15 1 16 5 17 15 19 16 20 17 21 18 23 19 24
REMARK SMILES IDX 28 25 20 26 32 27 27 28 22 29 21 30 29 31 31 32 26 33 23 34
REMARK SMILES IDX 30 35 24 36 25 37
REMARK H PARENT 5 18 17 22
ROOT
ATOM      1  C   UNL     1     -15.508 -42.716  26.645  1.00  0.00     0.025 C 
ENDROOT
BRANCH   1   2
ATOM      2  C   UNL     1     -14.885 -43.836  25.813  1.00  0.00     0.142 C 
BRANCH   2   3
ATOM      3  N   UNL     1     -14.014 -44.669  26.633  1.00  0.00    -0.285 NA
BRANCH   3   4
ATOM      4  C   UNL     1     -13.230 -44.167  27.521  1.00  0.00     0.091 C 
ATOM      5  C   UNL     1     -12.126 -43.179  27.341  1.00  0.00     0.142 C 
ATOM      6  C   UNL     1     -10.880 -43.527  28.109  1.00  0.00     0.188 C 
ATOM      7  C   UNL     1     -10.974 -44.515  29.229  1.00  0.00     0.122 A 
ATOM      8  C   UNL     1     -13.417 -44.608  28.951  1.00  0.00     0.209 C 
ATOM      9  N   UNL     1      -9.787 -44.830  29.812  1.00  0.00    -0.210 NA
ATOM     10  C   UNL     1     -12.197 -45.025  29.659  1.00  0.00     0.056 A 
ATOM     11  C   UNL     1      -9.843 -45.666  30.853  1.00  0.00     0.211 A 
ATOM     12  C   UNL     1     -12.217 -45.906  30.756  1.00  0.00    -0.032 A 
ATOM     13  C   UNL     1     -10.997 -46.224  31.364  1.00  0.00     0.072 A 
ATOM     14  O   UNL     1      -9.814 -42.977  27.839  1.00  0.00    -0.292 OA
ATOM     15  O   UNL     1     -14.521 -44.576  29.464  1.00  0.00    -0.287 OA
ATOM     16  C   UNL     1     -13.483 -46.508  31.298  1.00  0.00     0.045 C 
BRANCH  11  17
ATOM     17  O   UNL     1      -8.640 -45.947  31.406  1.00  0.00    -0.493 OA
ATOM     18  H   UNL     1      -8.039 -45.660  30.694  1.00  0.00     0.295 HD
ENDBRANCH  11  17
ENDBRANCH   3   4
ENDBRANCH   2   3
ENDBRANCH   1   2
BRANCH   1  19
ATOM     19  C   UNL     1     -17.041 -42.768  26.630  1.00  0.00     0.023 C 
BRANCH  19  20
ATOM     20  C   UNL     1     -17.636 -42.521  25.243  1.00  0.00     0.113 C 
BRANCH  20  21
ATOM     21  N   UNL     1     -18.876 -41.739  25.352  1.00  0.00    -0.384 N 
ATOM     22  H   UNL     1     -19.224 -41.754  26.308  1.00  0.00     0.160 HD
BRANCH  21  23
ATOM     23  C   UNL     1     -19.884 -42.218  24.461  1.00  0.00     0.049 A 
ATOM     24  C   UNL     1     -20.624 -43.381  24.762  1.00  0.00    -0.003 A 
ATOM     25  C   UNL     1     -20.069 -41.571  23.209  1.00  0.00     0.024 A 
ATOM     26  C   UNL     1     -21.497 -43.860  23.780  1.00  0.00     0.046 A 
ATOM     27  C   UNL     1     -20.442 -44.133  26.060  1.00  0.00     0.039 C 
ATOM     28  C   UNL     1     -19.392 -40.386  22.836  1.00  0.00     0.014 A 
ATOM     29  C   UNL     1     -20.990 -42.138  22.307  1.00  0.00     0.074 A 
ATOM     30  N   UNL     1     -21.682 -43.249  22.585  1.00  0.00    -0.252 NA
ATOM     31  C   UNL     1     -22.345 -45.087  23.999  1.00  0.00     0.056 C 
ATOM     32  C   UNL     1     -21.526 -45.172  26.345  1.00  0.00     0.005 C 
ATOM     33  C   UNL     1     -19.613 -39.787  21.597  1.00  0.00     0.021 A 
ATOM     34  C   UNL     1     -21.197 -41.530  21.077  1.00  0.00     0.049 A 
ATOM     35  C   UNL     1     -21.816 -45.996  25.100  1.00  0.00     0.007 C 
ATOM     36  C   UNL     1     -20.517 -40.368  20.720  1.00  0.00     0.043 A 
ATOM     37  Cl  UNL     1     -20.804 -39.645  19.185  1.00  0.00    -0.084 Cl
ENDBRANCH  21  23
ENDBRANCH  20  21
ENDBRANCH  19  20
ENDBRANCH   1  19
TORSDOF 8
ENDMDL
MODEL 9
REMARK VINA RESULT:    -9.886      3.955     10.704
REMARK INTER + INTRA:         -15.212
REMARK INTER:                 -14.576
REMARK INTRA:                  -0.636
REMARK UNBOUND:                -0.992
REMARK SMILES Cc1cc(O)nc2c1C(=O)C(=NCCCCNc1c3c(nc4cc(Cl)ccc14)CCCC3)CC2=O
REMARK SMILES IDX 14 1 13 2 12 3 11 4 33 5 34 6 7 7 9 8 6 9 8 10 4 11 2 12
REMARK SMILES IDX 3 13 35 14 10 15 1 16 5 17 15 19 16 20 17 21 18 23 19 24
REMARK SMILES IDX 28 25 20 26 32 27 27 28 22 29 21 30 29 31 31 32 26 33 23 34
REMARK SMILES IDX 30 35 24 36 25 37
REMARK H PARENT 5 18 17 22
ROOT
ATOM      1  C   UNL     1     -15.567 -42.723  26.639  1.00  0.00     0.025 C 
ENDROOT
BRANCH   1   2
ATOM      2  C   UNL     1     -14.854 -43.810  25.838  1.00  0.00     0.142 C 
BRANCH   2   3
ATOM      3  N   UNL     1     -14.032 -44.642  26.708  1.00  0.00    -0.285 NA
BRANCH   3   4
ATOM      4  C   UNL     1     -13.220 -44.135  27.567  1.00  0.00     0.091 C 
ATOM      5  C   UNL     1     -12.105 -43.169  27.341  1.00  0.00     0.142 C 
ATOM      6  C   UNL     1     -10.846 -43.521  28.086  1.00  0.00     0.188 C 
ATOM      7  C   UNL     1     -10.928 -44.486  29.227  1.00  0.00     0.122 A 
ATOM      8  C   UNL     1     -13.378 -44.546  29.010  1.00  0.00     0.209 C 
ATOM      9  N   UNL     1      -9.733 -44.808  29.787  1.00  0.00    -0.210 NA
ATOM     10  C   UNL     1     -12.149 -44.968  29.696  1.00  0.00     0.056 A 
ATOM     11  C   UNL     1      -9.776 -45.623  30.846  1.00  0.00     0.211 A 
ATOM     12  C   UNL     1     -12.155 -45.827  30.811  1.00  0.00    -0.032 A 
ATOM     13  C   UNL     1     -10.925 -46.152  31.396  1.00  0.00     0.072 A 
ATOM     14  O   UNL     1      -9.779 -42.994  27.779  1.00  0.00    -0.292 OA
ATOM     15  O   UNL     1     -14.469 -44.486  29.548  1.00  0.00    -0.287 OA
ATOM     16  C   UNL     1     -13.416 -46.398  31.395  1.00  0.00     0.045 C 
BRANCH  11  17
ATOM     17  O   UNL     1      -8.564 -45.912  31.376  1.00  0.00    -0.493 OA
ATOM     18  H   UNL     1      -7.978 -45.423  30.769  1.00  0.00     0.295 HD
ENDBRANCH  11  17
ENDBRANCH   3   4
ENDBRANCH   2   3
ENDBRANCH   1   2
BRANCH   1  19
ATOM     19  C   UNL     1     -17.091 -42.787  26.475  1.00  0.00     0.023 C 
BRANCH  19  20
ATOM     20  C   UNL     1     -17.556 -42.459  25.056  1.00  0.00     0.113 C 
BRANCH  20  21
ATOM     21  N   UNL     1     -18.830 -41.727  25.093  1.00  0.00    -0.384 N 
ATOM     22  H   UNL     1     -19.233 -41.760  26.026  1.00  0.00     0.160 HD
BRANCH  21  23
ATOM     23  C   UNL     1     -19.762 -42.239  24.142  1.00  0.00     0.049 A 
ATOM     24  C   UNL     1     -19.886 -41.658  22.862  1.00  0.00    -0.003 A 
ATOM     25  C   UNL     1     -20.648 -43.282  24.528  1.00  0.00     0.024 A 
ATOM     26  C   UNL     1     -20.911 -42.130  22.036  1.00  0.00     0.046 A 
ATOM     27  C   UNL     1     -18.998 -40.521  22.410  1.00  0.00     0.039 C 
ATOM     28  C   UNL     1     -20.579 -43.941  25.779  1.00  0.00     0.014 A 
ATOM     29  C   UNL     1     -21.631 -43.685  23.604  1.00  0.00     0.074 A 
ATOM     30  N   UNL     1     -21.758 -43.125  22.396  1.00  0.00    -0.252 NA
ATOM     31  C   UNL     1     -21.126 -41.590  20.646  1.00  0.00     0.056 C 
ATOM     32  C   UNL     1     -19.063 -40.227  20.912  1.00  0.00     0.005 C 
ATOM     33  C   UNL     1     -21.469 -44.962  26.108  1.00  0.00     0.021 A 
ATOM     34  C   UNL     1     -22.510 -44.703  23.948  1.00  0.00     0.049 A 
ATOM     35  C   UNL     1     -20.506 -40.215  20.432  1.00  0.00     0.007 C 
ATOM     36  C   UNL     1     -22.434 -45.336  25.186  1.00  0.00     0.043 A 
ATOM     37  Cl  UNL     1     -23.543 -46.594  25.573  1.00  0.00    -0.084 Cl
ENDBRANCH  21  23
ENDBRANCH  20  21
ENDBRANCH  19  20
ENDBRANCH   1  19
TORSDOF 8
ENDMDL
