MODEL 1
REMARK VINA RESULT:   -13.181      0.000      0.000
REMARK INTER + INTRA:         -18.130
REMARK INTER:                 -17.804
REMARK INTRA:                  -0.327
REMARK UNBOUND:                -0.327
REMARK SMILES O=C(CC[C@H]1CC[N@H+](Cc2ccccc2)CC1)c1cc2c3c(c1)CC(=O)N3CCC2
REMARK SMILES IDX 4 1 5 2 7 3 8 4 6 5 16 6 17 7 9 9 10 10 11 11 15 12 12 13
REMARK SMILES IDX 14 14 13 15 3 16 2 17 1 18 18 19 19 20 23 21 20 22 22 23
REMARK SMILES IDX 21 24 30 25 24 26 27 27 29 28 25 29 28 30 26 31
REMARK H PARENT 8 8
ROOT
ATOM      1  C   UNL     1     -14.104 -44.644  26.900  1.00  0.00     0.012 C 
ENDROOT
BRANCH   1   2
ATOM      2  C   UNL     1     -12.806 -45.075  27.637  1.00  0.00     0.000 C 
ATOM      3  C   UNL     1     -11.151 -44.001  29.334  1.00  0.00     0.262 C 
ATOM      4  N   UNL     1     -11.924 -44.778  30.355  1.00  0.00    -0.331 N 
ATOM      5  C   UNL     1     -12.006 -43.832  28.091  1.00  0.00     0.065 C 
ATOM      6  C   UNL     1     -12.116 -46.183  29.876  1.00  0.00     0.262 C 
ATOM      7  C   UNL     1     -13.069 -46.169  28.694  1.00  0.00     0.065 C 
ATOM      8  H   UNL     1     -12.868 -44.340  30.422  1.00  0.00     0.348 HD
BRANCH   4   9
ATOM      9  C   UNL     1     -11.338 -44.712  31.741  1.00  0.00     0.299 C 
BRANCH   9  10
ATOM     10  C   UNL     1      -9.843 -44.886  31.771  1.00  0.00     0.006 A 
ATOM     11  C   UNL     1      -9.257 -46.104  31.395  1.00  0.00     0.009 A 
ATOM     12  C   UNL     1      -9.010 -43.826  32.166  1.00  0.00     0.009 A 
ATOM     13  C   UNL     1      -7.869 -46.254  31.407  1.00  0.00     0.001 A 
ATOM     14  C   UNL     1      -7.623 -43.979  32.175  1.00  0.00     0.001 A 
ATOM     15  C   UNL     1      -7.053 -45.193  31.793  1.00  0.00     0.000 A 
ENDBRANCH   9  10
ENDBRANCH   4   9
ENDBRANCH   1   2
BRANCH   1  16
ATOM     16  C   UNL     1     -14.059 -43.365  26.046  1.00  0.00     0.081 C 
BRANCH  16  17
ATOM     17  C   UNL     1     -14.933 -43.394  24.800  1.00  0.00     0.162 C 
ATOM     18  O   UNL     1     -14.512 -43.876  23.742  1.00  0.00    -0.294 OA
BRANCH  17  19
ATOM     19  C   UNL     1     -16.330 -42.872  24.854  1.00  0.00     0.018 A 
ATOM     20  C   UNL     1     -17.007 -42.437  23.687  1.00  0.00     0.017 A 
ATOM     21  C   UNL     1     -16.940 -42.776  26.123  1.00  0.00     0.018 A 
ATOM     22  C   UNL     1     -18.307 -41.931  23.774  1.00  0.00    -0.023 A 
ATOM     23  C   UNL     1     -18.218 -42.259  26.196  1.00  0.00    -0.014 A 
ATOM     24  C   UNL     1     -18.859 -41.857  25.036  1.00  0.00     0.051 A 
ATOM     25  C   UNL     1     -19.103 -41.410  22.610  1.00  0.00     0.039 C 
ATOM     26  C   UNL     1     -19.128 -42.004  27.362  1.00  0.00     0.138 C 
ATOM     27  N   UNL     1     -20.121 -41.365  25.322  1.00  0.00    -0.312 N 
ATOM     28  C   UNL     1     -20.614 -41.422  22.911  1.00  0.00     0.027 C 
ATOM     29  C   UNL     1     -20.364 -41.366  26.691  1.00  0.00     0.231 C 
ATOM     30  C   UNL     1     -20.940 -40.795  24.273  1.00  0.00     0.126 C 
ATOM     31  O   UNL     1     -21.350 -40.943  27.269  1.00  0.00    -0.274 OA
ENDBRANCH  17  19
ENDBRANCH  16  17
ENDBRANCH   1  16
TORSDOF 6
ENDMDL
MODEL 2
REMARK VINA RESULT:   -12.940      0.908      2.030
REMARK INTER + INTRA:         -17.805
REMARK INTER:                 -17.422
REMARK INTRA:                  -0.383
REMARK UNBOUND:                -0.327
REMARK SMILES O=C(CC[C@H]1CC[N@H+](Cc2ccccc2)CC1)c1cc2c3c(c1)CC(=O)N3CCC2
REMARK SMILES IDX 4 1 5 2 7 3 8 4 6 5 16 6 17 7 9 9 10 10 11 11 15 12 12 13
REMARK SMILES IDX 14 14 13 15 3 16 2 17 1 18 18 19 19 20 23 21 20 22 22 23
REMARK SMILES IDX 21 24 30 25 24 26 27 27 29 28 25 29 28 30 26 31
REMARK H PARENT 8 8
ROOT
ATOM      1  C   UNL     1     -14.056 -44.678  26.866  1.00  0.00     0.012 C 
ENDROOT
BRANCH   1   2
ATOM      2  C   UNL     1     -12.769 -45.102  27.624  1.00  0.00     0.000 C 
ATOM      3  C   UNL     1     -11.123 -44.004  29.316  1.00  0.00     0.262 C 
ATOM      4  N   UNL     1     -11.911 -44.756  30.344  1.00  0.00    -0.331 N 
ATOM      5  C   UNL     1     -11.964 -43.856  28.061  1.00  0.00     0.065 C 
ATOM      6  C   UNL     1     -12.108 -46.169  29.892  1.00  0.00     0.262 C 
ATOM      7  C   UNL     1     -13.048 -46.173  28.701  1.00  0.00     0.065 C 
ATOM      8  H   UNL     1     -12.853 -44.311  30.393  1.00  0.00     0.348 HD
BRANCH   4   9
ATOM      9  C   UNL     1     -11.338 -44.665  31.735  1.00  0.00     0.299 C 
BRANCH   9  10
ATOM     10  C   UNL     1      -9.844 -44.843  31.783  1.00  0.00     0.006 A 
ATOM     11  C   UNL     1      -9.255 -46.057  31.396  1.00  0.00     0.009 A 
ATOM     12  C   UNL     1      -9.014 -43.791  32.205  1.00  0.00     0.009 A 
ATOM     13  C   UNL     1      -7.868 -46.210  31.424  1.00  0.00     0.001 A 
ATOM     14  C   UNL     1      -7.628 -43.948  32.231  1.00  0.00     0.001 A 
ATOM     15  C   UNL     1      -7.056 -45.157  31.838  1.00  0.00     0.000 A 
ENDBRANCH   9  10
ENDBRANCH   4   9
ENDBRANCH   1   2
BRANCH   1  16
ATOM     16  C   UNL     1     -14.097 -43.273  26.240  1.00  0.00     0.081 C 
BRANCH  16  17
ATOM     17  C   UNL     1     -14.856 -43.178  24.925  1.00  0.00     0.162 C 
ATOM     18  O   UNL     1     -14.324 -43.513  23.861  1.00  0.00    -0.294 OA
BRANCH  17  19
ATOM     19  C   UNL     1     -16.274 -42.712  24.912  1.00  0.00     0.018 A 
ATOM     20  C   UNL     1     -17.046 -42.643  26.098  1.00  0.00     0.017 A 
ATOM     21  C   UNL     1     -16.841 -42.388  23.660  1.00  0.00     0.018 A 
ATOM     22  C   UNL     1     -18.378 -42.224  26.049  1.00  0.00    -0.023 A 
ATOM     23  C   UNL     1     -18.162 -41.992  23.625  1.00  0.00    -0.014 A 
ATOM     24  C   UNL     1     -18.886 -41.921  24.803  1.00  0.00     0.051 A 
ATOM     25  C   UNL     1     -19.297 -42.149  27.237  1.00  0.00     0.039 C 
ATOM     26  C   UNL     1     -19.060 -41.607  22.484  1.00  0.00     0.138 C 
ATOM     27  N   UNL     1     -20.185 -41.513  24.554  1.00  0.00    -0.312 N 
ATOM     28  C   UNL     1     -20.476 -41.192  26.977  1.00  0.00     0.027 C 
ATOM     29  C   UNL     1     -20.407 -41.342  23.191  1.00  0.00     0.231 C 
ATOM     30  C   UNL     1     -21.155 -41.460  25.627  1.00  0.00     0.126 C 
ATOM     31  O   UNL     1     -21.455 -41.048  22.643  1.00  0.00    -0.274 OA
ENDBRANCH  17  19
ENDBRANCH  16  17
ENDBRANCH   1  16
TORSDOF 6
ENDMDL
MODEL 3
REMARK VINA RESULT:   -11.866      2.290     10.749
REMARK INTER + INTRA:         -16.355
REMARK INTER:                 -15.887
REMARK INTRA:                  -0.468
REMARK UNBOUND:                -0.327
REMARK SMILES O=C(CC[C@H]1CC[N@H+](Cc2ccccc2)CC1)c1cc2c3c(c1)CC(=O)N3CCC2
REMARK SMILES IDX 4 1 5 2 7 3 8 4 6 5 16 6 17 7 9 9 10 10 11 11 15 12 12 13
REMARK SMILES IDX 14 14 13 15 3 16 2 17 1 18 18 19 19 20 23 21 20 22 22 23
REMARK SMILES IDX 21 24 30 25 24 26 27 27 29 28 25 29 28 30 26 31
REMARK H PARENT 8 8
ROOT
ATOM      1  C   UNL     1     -15.221 -42.095  24.101  1.00  0.00     0.012 C 
ENDROOT
BRANCH   1   2
ATOM      2  C   UNL     1     -16.462 -42.273  23.183  1.00  0.00     0.000 C 
ATOM      3  C   UNL     1     -19.021 -42.621  23.510  1.00  0.00     0.262 C 
ATOM      4  N   UNL     1     -19.105 -41.150  23.248  1.00  0.00    -0.331 N 
ATOM      5  C   UNL     1     -17.610 -42.963  23.956  1.00  0.00     0.065 C 
ATOM      6  C   UNL     1     -18.273 -40.803  22.053  1.00  0.00     0.262 C 
ATOM      7  C   UNL     1     -16.808 -40.982  22.410  1.00  0.00     0.065 C 
ATOM      8  H   UNL     1     -18.682 -40.667  24.071  1.00  0.00     0.348 HD
BRANCH   4   9
ATOM      9  C   UNL     1     -20.516 -40.630  23.143  1.00  0.00     0.299 C 
BRANCH   9  10
ATOM     10  C   UNL     1     -21.258 -40.640  24.453  1.00  0.00     0.006 A 
ATOM     11  C   UNL     1     -22.629 -40.342  24.501  1.00  0.00     0.009 A 
ATOM     12  C   UNL     1     -20.591 -40.959  25.647  1.00  0.00     0.009 A 
ATOM     13  C   UNL     1     -23.316 -40.371  25.716  1.00  0.00     0.001 A 
ATOM     14  C   UNL     1     -21.282 -40.988  26.860  1.00  0.00     0.001 A 
ATOM     15  C   UNL     1     -22.645 -40.696  26.892  1.00  0.00     0.000 A 
ENDBRANCH   9  10
ENDBRANCH   4   9
ENDBRANCH   1   2
BRANCH   1  16
ATOM     16  C   UNL     1     -14.537 -43.363  24.644  1.00  0.00     0.081 C 
BRANCH  16  17
ATOM     17  C   UNL     1     -14.576 -43.515  26.158  1.00  0.00     0.162 C 
ATOM     18  O   UNL     1     -15.651 -43.484  26.769  1.00  0.00    -0.294 OA
BRANCH  17  19
ATOM     19  C   UNL     1     -13.314 -43.742  26.920  1.00  0.00     0.018 A 
ATOM     20  C   UNL     1     -13.097 -44.928  27.664  1.00  0.00     0.017 A 
ATOM     21  C   UNL     1     -12.357 -42.704  26.918  1.00  0.00     0.018 A 
ATOM     22  C   UNL     1     -11.913 -45.101  28.387  1.00  0.00    -0.023 A 
ATOM     23  C   UNL     1     -11.200 -42.881  27.650  1.00  0.00    -0.014 A 
ATOM     24  C   UNL     1     -11.011 -44.058  28.354  1.00  0.00     0.051 A 
ATOM     25  C   UNL     1     -11.596 -46.300  29.236  1.00  0.00     0.039 C 
ATOM     26  C   UNL     1     -10.014 -41.989  27.875  1.00  0.00     0.138 C 
ATOM     27  N   UNL     1      -9.799 -44.037  29.023  1.00  0.00    -0.312 N 
ATOM     28  C   UNL     1     -10.078 -46.443  29.463  1.00  0.00     0.027 C 
ATOM     29  C   UNL     1      -9.144 -42.824  28.840  1.00  0.00     0.231 C 
ATOM     30  C   UNL     1      -9.430 -45.123  29.905  1.00  0.00     0.126 C 
ATOM     31  O   UNL     1      -8.092 -42.467  29.341  1.00  0.00    -0.274 OA
ENDBRANCH  17  19
ENDBRANCH  16  17
ENDBRANCH   1  16
TORSDOF 6
ENDMDL
MODEL 4
REMARK VINA RESULT:   -11.821      2.233      3.480
REMARK INTER + INTRA:         -16.294
REMARK INTER:                 -15.205
REMARK INTRA:                  -1.090
REMARK UNBOUND:                -0.327
REMARK SMILES O=C(CC[C@H]1CC[N@H+](Cc2ccccc2)CC1)c1cc2c3c(c1)CC(=O)N3CCC2
REMARK SMILES IDX 4 1 5 2 7 3 8 4 6 5 16 6 17 7 9 9 10 10 11 11 15 12 12 13
REMARK SMILES IDX 14 14 13 15 3 16 2 17 1 18 18 19 19 20 23 21 20 22 22 23
REMARK SMILES IDX 21 24 30 25 24 26 27 27 29 28 25 29 28 30 26 31
REMARK H PARENT 8 8
ROOT
ATOM      1  C   UNL     1     -13.295 -45.644  26.905  1.00  0.00     0.012 C 
ENDROOT
BRANCH   1   2
ATOM      2  C   UNL     1     -12.330 -45.791  28.112  1.00  0.00     0.000 C 
ATOM      3  C   UNL     1     -11.146 -44.193  29.791  1.00  0.00     0.262 C 
ATOM      4  N   UNL     1     -12.266 -44.568  30.711  1.00  0.00    -0.331 N 
ATOM      5  C   UNL     1     -11.569 -44.468  28.359  1.00  0.00     0.065 C 
ATOM      6  C   UNL     1     -12.460 -46.052  30.687  1.00  0.00     0.262 C 
ATOM      7  C   UNL     1     -13.012 -46.451  29.331  1.00  0.00     0.065 C 
ATOM      8  H   UNL     1     -13.134 -44.136  30.328  1.00  0.00     0.348 HD
BRANCH   4   9
ATOM      9  C   UNL     1     -12.114 -44.024  32.108  1.00  0.00     0.299 C 
BRANCH   9  10
ATOM     10  C   UNL     1     -13.285 -43.192  32.559  1.00  0.00     0.006 A 
ATOM     11  C   UNL     1     -13.203 -42.411  33.722  1.00  0.00     0.009 A 
ATOM     12  C   UNL     1     -14.476 -43.175  31.814  1.00  0.00     0.009 A 
ATOM     13  C   UNL     1     -14.284 -41.627  34.125  1.00  0.00     0.001 A 
ATOM     14  C   UNL     1     -15.555 -42.389  32.220  1.00  0.00     0.001 A 
ATOM     15  C   UNL     1     -15.458 -41.614  33.374  1.00  0.00     0.000 A 
ENDBRANCH   9  10
ENDBRANCH   4   9
ENDBRANCH   1   2
BRANCH   1  16
ATOM     16  C   UNL     1     -13.772 -44.229  26.529  1.00  0.00     0.081 C 
BRANCH  16  17
ATOM     17  C   UNL     1     -14.986 -43.735  27.302  1.00  0.00     0.162 C 
ATOM     18  O   UNL     1     -15.001 -43.755  28.538  1.00  0.00    -0.294 OA
BRANCH  17  19
ATOM     19  C   UNL     1     -16.164 -43.184  26.572  1.00  0.00     0.018 A 
ATOM     20  C   UNL     1     -16.153 -43.008  25.165  1.00  0.00     0.017 A 
ATOM     21  C   UNL     1     -17.281 -42.790  27.341  1.00  0.00     0.018 A 
ATOM     22  C   UNL     1     -17.265 -42.467  24.514  1.00  0.00    -0.023 A 
ATOM     23  C   UNL     1     -18.365 -42.242  26.685  1.00  0.00    -0.014 A 
ATOM     24  C   UNL     1     -18.329 -42.097  25.309  1.00  0.00     0.051 A 
ATOM     25  C   UNL     1     -17.346 -42.204  23.035  1.00  0.00     0.039 C 
ATOM     26  C   UNL     1     -19.674 -41.710  27.192  1.00  0.00     0.138 C 
ATOM     27  N   UNL     1     -19.503 -41.526  24.848  1.00  0.00    -0.312 N 
ATOM     28  C   UNL     1     -18.810 -42.114  22.560  1.00  0.00     0.027 C 
ATOM     29  C   UNL     1     -20.358 -41.213  25.899  1.00  0.00     0.231 C 
ATOM     30  C   UNL     1     -19.653 -41.189  23.448  1.00  0.00     0.126 C 
ATOM     31  O   UNL     1     -21.436 -40.648  25.834  1.00  0.00    -0.274 OA
ENDBRANCH  17  19
ENDBRANCH  16  17
ENDBRANCH   1  16
TORSDOF 6
ENDMDL
MODEL 5
REMARK VINA RESULT:   -11.599      1.776      2.848
REMARK INTER + INTRA:         -15.994
REMARK INTER:                 -16.029
REMARK INTRA:                   0.035
REMARK UNBOUND:                -0.327
REMARK SMILES O=C(CC[C@H]1CC[N@H+](Cc2ccccc2)CC1)c1cc2c3c(c1)CC(=O)N3CCC2
REMARK SMILES IDX 4 1 5 2 7 3 8 4 6 5 16 6 17 7 9 9 10 10 11 11 15 12 12 13
REMARK SMILES IDX 14 14 13 15 3 16 2 17 1 18 18 19 19 20 23 21 20 22 22 23
REMARK SMILES IDX 21 24 30 25 24 26 27 27 29 28 25 29 28 30 26 31
REMARK H PARENT 8 8
ROOT
ATOM      1  C   UNL     1     -13.689 -45.042  27.282  1.00  0.00     0.012 C 
ENDROOT
BRANCH   1   2
ATOM      2  C   UNL     1     -12.860 -44.579  28.511  1.00  0.00     0.000 C 
ATOM      3  C   UNL     1     -11.968 -45.659  30.705  1.00  0.00     0.262 C 
ATOM      4  N   UNL     1     -10.681 -45.777  29.950  1.00  0.00    -0.331 N 
ATOM      5  C   UNL     1     -13.111 -45.516  29.715  1.00  0.00     0.065 C 
ATOM      6  C   UNL     1     -10.381 -44.483  29.262  1.00  0.00     0.262 C 
ATOM      7  C   UNL     1     -11.390 -44.278  28.146  1.00  0.00     0.065 C 
ATOM      8  H   UNL     1     -10.827 -46.497  29.209  1.00  0.00     0.348 HD
BRANCH   4   9
ATOM      9  C   UNL     1      -9.529 -46.272  30.786  1.00  0.00     0.299 C 
BRANCH   9  10
ATOM     10  C   UNL     1      -8.877 -45.193  31.609  1.00  0.00     0.006 A 
ATOM     11  C   UNL     1      -9.650 -44.192  32.217  1.00  0.00     0.009 A 
ATOM     12  C   UNL     1      -7.484 -45.179  31.791  1.00  0.00     0.009 A 
ATOM     13  C   UNL     1      -9.043 -43.205  32.996  1.00  0.00     0.001 A 
ATOM     14  C   UNL     1      -6.881 -44.191  32.571  1.00  0.00     0.001 A 
ATOM     15  C   UNL     1      -7.661 -43.206  33.174  1.00  0.00     0.000 A 
ENDBRANCH   9  10
ENDBRANCH   4   9
ENDBRANCH   1   2
BRANCH   1  16
ATOM     16  C   UNL     1     -14.907 -44.196  26.872  1.00  0.00     0.081 C 
BRANCH  16  17
ATOM     17  C   UNL     1     -14.685 -43.295  25.665  1.00  0.00     0.162 C 
ATOM     18  O   UNL     1     -13.546 -43.085  25.233  1.00  0.00    -0.294 OA
BRANCH  17  19
ATOM     19  C   UNL     1     -15.851 -42.683  24.964  1.00  0.00     0.018 A 
ATOM     20  C   UNL     1     -17.166 -42.776  25.485  1.00  0.00     0.017 A 
ATOM     21  C   UNL     1     -15.606 -42.049  23.726  1.00  0.00     0.018 A 
ATOM     22  C   UNL     1     -18.240 -42.212  24.791  1.00  0.00    -0.023 A 
ATOM     23  C   UNL     1     -16.680 -41.511  23.045  1.00  0.00    -0.014 A 
ATOM     24  C   UNL     1     -17.950 -41.604  23.588  1.00  0.00     0.051 A 
ATOM     25  C   UNL     1     -19.676 -42.282  25.233  1.00  0.00     0.039 C 
ATOM     26  C   UNL     1     -16.771 -40.803  21.724  1.00  0.00     0.138 C 
ATOM     27  N   UNL     1     -18.882 -41.013  22.753  1.00  0.00    -0.312 N 
ATOM     28  C   UNL     1     -20.520 -41.168  24.584  1.00  0.00     0.027 C 
ATOM     29  C   UNL     1     -18.287 -40.541  21.587  1.00  0.00     0.231 C 
ATOM     30  C   UNL     1     -20.293 -41.075  23.069  1.00  0.00     0.126 C 
ATOM     31  O   UNL     1     -18.838 -40.028  20.630  1.00  0.00    -0.274 OA
ENDBRANCH  17  19
ENDBRANCH  16  17
ENDBRANCH   1  16
TORSDOF 6
ENDMDL
MODEL 6
REMARK VINA RESULT:   -11.572      2.606     11.289
REMARK INTER + INTRA:         -15.958
REMARK INTER:                 -15.729
REMARK INTRA:                  -0.229
REMARK UNBOUND:                -0.327
REMARK SMILES O=C(CC[C@H]1CC[N@H+](Cc2ccccc2)CC1)c1cc2c3c(c1)CC(=O)N3CCC2
REMARK SMILES IDX 4 1 5 2 7 3 8 4 6 5 16 6 17 7 9 9 10 10 11 11 15 12 12 13
REMARK SMILES IDX 14 14 13 15 3 16 2 17 1 18 18 19 19 20 23 21 20 22 22 23
REMARK SMILES IDX 21 24 30 25 24 26 27 27 29 28 25 29 28 30 26 31
REMARK H PARENT 8 8
ROOT
ATOM      1  C   UNL     1     -15.016 -42.890  23.934  1.00  0.00     0.012 C 
ENDROOT
BRANCH   1   2
ATOM      2  C   UNL     1     -16.304 -42.022  23.889  1.00  0.00     0.000 C 
ATOM      3  C   UNL     1     -17.865 -41.051  22.047  1.00  0.00     0.262 C 
ATOM      4  N   UNL     1     -18.734 -42.226  22.372  1.00  0.00    -0.331 N 
ATOM      5  C   UNL     1     -16.448 -41.342  22.508  1.00  0.00     0.065 C 
ATOM      6  C   UNL     1     -18.874 -42.353  23.856  1.00  0.00     0.262 C 
ATOM      7  C   UNL     1     -17.536 -42.773  24.438  1.00  0.00     0.065 C 
ATOM      8  H   UNL     1     -18.236 -43.078  22.033  1.00  0.00     0.348 HD
BRANCH   4   9
ATOM      9  C   UNL     1     -20.064 -42.214  21.662  1.00  0.00     0.299 C 
BRANCH   9  10
ATOM     10  C   UNL     1     -20.475 -40.849  21.179  1.00  0.00     0.006 A 
ATOM     11  C   UNL     1     -21.146 -39.960  22.032  1.00  0.00     0.009 A 
ATOM     12  C   UNL     1     -20.182 -40.439  19.867  1.00  0.00     0.009 A 
ATOM     13  C   UNL     1     -21.507 -38.688  21.585  1.00  0.00     0.001 A 
ATOM     14  C   UNL     1     -20.545 -39.167  19.424  1.00  0.00     0.001 A 
ATOM     15  C   UNL     1     -21.206 -38.291  20.284  1.00  0.00     0.000 A 
ENDBRANCH   9  10
ENDBRANCH   4   9
ENDBRANCH   1   2
BRANCH   1  16
ATOM     16  C   UNL     1     -14.964 -44.054  24.940  1.00  0.00     0.081 C 
BRANCH  16  17
ATOM     17  C   UNL     1     -14.790 -43.638  26.394  1.00  0.00     0.162 C 
ATOM     18  O   UNL     1     -15.734 -43.161  27.034  1.00  0.00    -0.294 OA
BRANCH  17  19
ATOM     19  C   UNL     1     -13.479 -43.838  27.077  1.00  0.00     0.018 A 
ATOM     20  C   UNL     1     -13.192 -45.017  27.809  1.00  0.00     0.017 A 
ATOM     21  C   UNL     1     -12.544 -42.781  27.013  1.00  0.00     0.018 A 
ATOM     22  C   UNL     1     -11.963 -45.164  28.457  1.00  0.00    -0.023 A 
ATOM     23  C   UNL     1     -11.341 -42.933  27.672  1.00  0.00    -0.014 A 
ATOM     24  C   UNL     1     -11.085 -44.104  28.366  1.00  0.00     0.051 A 
ATOM     25  C   UNL     1     -11.570 -46.354  29.288  1.00  0.00     0.039 C 
ATOM     26  C   UNL     1     -10.161 -42.017  27.822  1.00  0.00     0.138 C 
ATOM     27  N   UNL     1      -9.835 -44.057  28.958  1.00  0.00    -0.312 N 
ATOM     28  C   UNL     1     -10.039 -46.466  29.421  1.00  0.00     0.027 C 
ATOM     29  C   UNL     1      -9.216 -42.832  28.732  1.00  0.00     0.231 C 
ATOM     30  C   UNL     1      -9.391 -45.133  29.818  1.00  0.00     0.126 C 
ATOM     31  O   UNL     1      -8.142 -42.453  29.167  1.00  0.00    -0.274 OA
ENDBRANCH  17  19
ENDBRANCH  16  17
ENDBRANCH   1  16
TORSDOF 6
ENDMDL
MODEL 7
REMARK VINA RESULT:   -11.413      1.850      3.022
REMARK INTER + INTRA:         -15.743
REMARK INTER:                 -15.504
REMARK INTRA:                  -0.239
REMARK UNBOUND:                -0.327
REMARK SMILES O=C(CC[C@H]1CC[N@H+](Cc2ccccc2)CC1)c1cc2c3c(c1)CC(=O)N3CCC2
REMARK SMILES IDX 4 1 5 2 7 3 8 4 6 5 16 6 17 7 9 9 10 10 11 11 15 12 12 13
REMARK SMILES IDX 14 14 13 15 3 16 2 17 1 18 18 19 19 20 23 21 20 22 22 23
REMARK SMILES IDX 21 24 30 25 24 26 27 27 29 28 25 29 28 30 26 31
REMARK H PARENT 8 8
ROOT
ATOM      1  C   UNL     1     -13.179 -46.399  28.549  1.00  0.00     0.012 C 
ENDROOT
BRANCH   1   2
ATOM      2  C   UNL     1     -13.071 -46.161  30.080  1.00  0.00     0.000 C 
ATOM      3  C   UNL     1     -11.323 -45.138  31.715  1.00  0.00     0.262 C 
ATOM      4  N   UNL     1     -12.186 -43.917  31.640  1.00  0.00    -0.331 N 
ATOM      5  C   UNL     1     -11.591 -46.008  30.499  1.00  0.00     0.065 C 
ATOM      6  C   UNL     1     -13.622 -44.306  31.803  1.00  0.00     0.262 C 
ATOM      7  C   UNL     1     -14.060 -45.084  30.576  1.00  0.00     0.065 C 
ATOM      8  H   UNL     1     -12.078 -43.524  30.679  1.00  0.00     0.348 HD
BRANCH   4   9
ATOM      9  C   UNL     1     -11.770 -42.819  32.585  1.00  0.00     0.299 C 
BRANCH   9  10
ATOM     10  C   UNL     1     -10.305 -42.847  32.930  1.00  0.00     0.006 A 
ATOM     11  C   UNL     1      -9.854 -42.386  34.176  1.00  0.00     0.009 A 
ATOM     12  C   UNL     1      -9.366 -43.347  32.012  1.00  0.00     0.009 A 
ATOM     13  C   UNL     1      -8.497 -42.432  34.499  1.00  0.00     0.001 A 
ATOM     14  C   UNL     1      -8.010 -43.392  32.338  1.00  0.00     0.001 A 
ATOM     15  C   UNL     1      -7.577 -42.936  33.582  1.00  0.00     0.000 A 
ENDBRANCH   9  10
ENDBRANCH   4   9
ENDBRANCH   1   2
BRANCH   1  16
ATOM     16  C   UNL     1     -12.357 -45.492  27.616  1.00  0.00     0.081 C 
BRANCH  16  17
ATOM     17  C   UNL     1     -12.790 -44.033  27.596  1.00  0.00     0.162 C 
ATOM     18  O   UNL     1     -12.069 -43.152  28.079  1.00  0.00    -0.294 OA
BRANCH  17  19
ATOM     19  C   UNL     1     -14.079 -43.644  26.955  1.00  0.00     0.018 A 
ATOM     20  C   UNL     1     -14.218 -43.570  25.546  1.00  0.00     0.017 A 
ATOM     21  C   UNL     1     -15.151 -43.299  27.806  1.00  0.00     0.018 A 
ATOM     22  C   UNL     1     -15.433 -43.180  24.977  1.00  0.00    -0.023 A 
ATOM     23  C   UNL     1     -16.340 -42.899  27.230  1.00  0.00    -0.014 A 
ATOM     24  C   UNL     1     -16.449 -42.851  25.851  1.00  0.00     0.051 A 
ATOM     25  C   UNL     1     -15.679 -43.033  23.501  1.00  0.00     0.039 C 
ATOM     26  C   UNL     1     -17.641 -42.453  27.831  1.00  0.00     0.138 C 
ATOM     27  N   UNL     1     -17.710 -42.423  25.475  1.00  0.00    -0.312 N 
ATOM     28  C   UNL     1     -17.183 -43.109  23.171  1.00  0.00     0.027 C 
ATOM     29  C   UNL     1     -18.488 -42.113  26.586  1.00  0.00     0.231 C 
ATOM     30  C   UNL     1     -18.024 -42.203  24.079  1.00  0.00     0.126 C 
ATOM     31  O   UNL     1     -19.617 -41.654  26.594  1.00  0.00    -0.274 OA
ENDBRANCH  17  19
ENDBRANCH  16  17
ENDBRANCH   1  16
TORSDOF 6
ENDMDL
MODEL 8
REMARK VINA RESULT:   -11.165      2.584     11.186
REMARK INTER + INTRA:         -15.408
REMARK INTER:                 -15.342
REMARK INTRA:                  -0.066
REMARK UNBOUND:                -0.327
REMARK SMILES O=C(CC[C@H]1CC[N@H+](Cc2ccccc2)CC1)c1cc2c3c(c1)CC(=O)N3CCC2
REMARK SMILES IDX 4 1 5 2 7 3 8 4 6 5 16 6 17 7 9 9 10 10 11 11 15 12 12 13
REMARK SMILES IDX 14 14 13 15 3 16 2 17 1 18 18 19 19 20 23 21 20 22 22 23
REMARK SMILES IDX 21 24 30 25 24 26 27 27 29 28 25 29 28 30 26 31
REMARK H PARENT 8 8
ROOT
ATOM      1  C   UNL     1     -15.035 -43.356  23.971  1.00  0.00     0.012 C 
ENDROOT
BRANCH   1   2
ATOM      2  C   UNL     1     -16.260 -42.404  24.030  1.00  0.00     0.000 C 
ATOM      3  C   UNL     1     -17.854 -41.267  22.316  1.00  0.00     0.262 C 
ATOM      4  N   UNL     1     -18.781 -42.393  22.652  1.00  0.00    -0.331 N 
ATOM      5  C   UNL     1     -16.436 -41.667  22.682  1.00  0.00     0.065 C 
ATOM      6  C   UNL     1     -18.845 -42.564  24.138  1.00  0.00     0.262 C 
ATOM      7  C   UNL     1     -17.508 -43.092  24.626  1.00  0.00     0.065 C 
ATOM      8  H   UNL     1     -18.362 -43.263  22.257  1.00  0.00     0.348 HD
BRANCH   4   9
ATOM      9  C   UNL     1     -20.145 -42.268  22.023  1.00  0.00     0.299 C 
BRANCH   9  10
ATOM     10  C   UNL     1     -20.404 -40.915  21.414  1.00  0.00     0.006 A 
ATOM     11  C   UNL     1     -20.870 -39.853  22.204  1.00  0.00     0.009 A 
ATOM     12  C   UNL     1     -20.171 -40.693  20.047  1.00  0.00     0.009 A 
ATOM     13  C   UNL     1     -21.090 -38.596  21.638  1.00  0.00     0.001 A 
ATOM     14  C   UNL     1     -20.392 -39.435  19.485  1.00  0.00     0.001 A 
ATOM     15  C   UNL     1     -20.850 -38.387  20.282  1.00  0.00     0.000 A 
ENDBRANCH   9  10
ENDBRANCH   4   9
ENDBRANCH   1   2
BRANCH   1  16
ATOM     16  C   UNL     1     -14.584 -44.037  25.276  1.00  0.00     0.081 C 
BRANCH  16  17
ATOM     17  C   UNL     1     -14.125 -43.084  26.371  1.00  0.00     0.162 C 
ATOM     18  O   UNL     1     -14.642 -41.968  26.496  1.00  0.00    -0.294 OA
BRANCH  17  19
ATOM     19  C   UNL     1     -13.067 -43.506  27.334  1.00  0.00     0.018 A 
ATOM     20  C   UNL     1     -11.779 -42.913  27.331  1.00  0.00     0.017 A 
ATOM     21  C   UNL     1     -13.376 -44.559  28.221  1.00  0.00     0.018 A 
ATOM     22  C   UNL     1     -10.802 -43.347  28.231  1.00  0.00    -0.023 A 
ATOM     23  C   UNL     1     -12.396 -44.988  29.093  1.00  0.00    -0.014 A 
ATOM     24  C   UNL     1     -11.152 -44.379  29.076  1.00  0.00     0.051 A 
ATOM     25  C   UNL     1      -9.396 -42.815  28.290  1.00  0.00     0.039 C 
ATOM     26  C   UNL     1     -12.386 -46.074  30.129  1.00  0.00     0.138 C 
ATOM     27  N   UNL     1     -10.314 -44.954  30.015  1.00  0.00    -0.312 N 
ATOM     28  C   UNL     1      -8.749 -43.087  29.662  1.00  0.00     0.027 C 
ATOM     29  C   UNL     1     -10.941 -46.010  30.670  1.00  0.00     0.231 C 
ATOM     30  C   UNL     1      -8.930 -44.543  30.111  1.00  0.00     0.126 C 
ATOM     31  O   UNL     1     -10.457 -46.756  31.503  1.00  0.00    -0.274 OA
ENDBRANCH  17  19
ENDBRANCH  16  17
ENDBRANCH   1  16
TORSDOF 6
ENDMDL
MODEL 9
REMARK VINA RESULT:   -11.004      1.372      2.121
REMARK INTER + INTRA:         -15.190
REMARK INTER:                 -14.891
REMARK INTRA:                  -0.300
REMARK UNBOUND:                -0.327
REMARK SMILES O=C(CC[C@H]1CC[N@H+](Cc2ccccc2)CC1)c1cc2c3c(c1)CC(=O)N3CCC2
REMARK SMILES IDX 4 1 5 2 7 3 8 4 6 5 16 6 17 7 9 9 10 10 11 11 15 12 12 13
REMARK SMILES IDX 14 14 13 15 3 16 2 17 1 18 18 19 19 20 23 21 20 22 22 23
REMARK SMILES IDX 21 24 30 25 24 26 27 27 29 28 25 29 28 30 26 31
REMARK H PARENT 8 8
ROOT
ATOM      1  C   UNL     1     -14.012 -43.502  25.907  1.00  0.00     0.012 C 
ENDROOT
BRANCH   1   2
ATOM      2  C   UNL     1     -13.400 -43.474  27.334  1.00  0.00     0.000 C 
ATOM      3  C   UNL     1     -12.786 -45.223  29.161  1.00  0.00     0.262 C 
ATOM      4  N   UNL     1     -11.397 -45.081  28.622  1.00  0.00    -0.331 N 
ATOM      5  C   UNL     1     -13.776 -44.760  28.107  1.00  0.00     0.065 C 
ATOM      6  C   UNL     1     -11.068 -43.631  28.455  1.00  0.00     0.262 C 
ATOM      7  C   UNL     1     -11.911 -43.066  27.325  1.00  0.00     0.065 C 
ATOM      8  H   UNL     1     -11.392 -45.512  27.671  1.00  0.00     0.348 HD
BRANCH   4   9
ATOM      9  C   UNL     1     -10.356 -45.825  29.418  1.00  0.00     0.299 C 
BRANCH   9  10
ATOM     10  C   UNL     1      -9.747 -45.005  30.524  1.00  0.00     0.006 A 
ATOM     11  C   UNL     1      -8.401 -44.613  30.468  1.00  0.00     0.009 A 
ATOM     12  C   UNL     1     -10.522 -44.610  31.627  1.00  0.00     0.009 A 
ATOM     13  C   UNL     1      -7.847 -43.837  31.487  1.00  0.00     0.001 A 
ATOM     14  C   UNL     1      -9.965 -43.834  32.644  1.00  0.00     0.001 A 
ATOM     15  C   UNL     1      -8.628 -43.447  32.572  1.00  0.00     0.000 A 
ENDBRANCH   9  10
ENDBRANCH   4   9
ENDBRANCH   1   2
BRANCH   1  16
ATOM     16  C   UNL     1     -15.490 -43.100  25.746  1.00  0.00     0.081 C 
BRANCH  16  17
ATOM     17  C   UNL     1     -15.995 -43.073  24.311  1.00  0.00     0.162 C 
ATOM     18  O   UNL     1     -15.372 -43.647  23.410  1.00  0.00    -0.294 OA
BRANCH  17  19
ATOM     19  C   UNL     1     -17.275 -42.382  23.981  1.00  0.00     0.018 A 
ATOM     20  C   UNL     1     -17.457 -41.699  22.753  1.00  0.00     0.017 A 
ATOM     21  C   UNL     1     -18.289 -42.387  24.964  1.00  0.00     0.018 A 
ATOM     22  C   UNL     1     -18.661 -41.041  22.484  1.00  0.00    -0.023 A 
ATOM     23  C   UNL     1     -19.466 -41.719  24.691  1.00  0.00    -0.014 A 
ATOM     24  C   UNL     1     -19.619 -41.073  23.476  1.00  0.00     0.051 A 
ATOM     25  C   UNL     1     -18.947 -40.258  21.233  1.00  0.00     0.039 C 
ATOM     26  C   UNL     1     -20.710 -41.513  25.506  1.00  0.00     0.138 C 
ATOM     27  N   UNL     1     -20.859 -40.463  23.400  1.00  0.00    -0.312 N 
ATOM     28  C   UNL     1     -20.463 -40.109  20.997  1.00  0.00     0.027 C 
ATOM     29  C   UNL     1     -21.574 -40.627  24.582  1.00  0.00     0.231 C 
ATOM     30  C   UNL     1     -21.204 -39.645  22.257  1.00  0.00     0.126 C 
ATOM     31  O   UNL     1     -22.666 -40.162  24.857  1.00  0.00    -0.274 OA
ENDBRANCH  17  19
ENDBRANCH  16  17
ENDBRANCH   1  16
TORSDOF 6
ENDMDL
