MODEL 1
REMARK VINA RESULT:    -9.007      0.000      0.000
REMARK INTER + INTRA:         -11.992
REMARK INTER:                 -11.640
REMARK INTRA:                  -0.353
REMARK UNBOUND:                -0.353
REMARK SMILES CCOC(=O)C1=CN(C)c2cccc(OC(=O)N(C)C)c2C1
REMARK SMILES IDX 6 1 7 2 8 3 9 4 10 5 11 6 12 7 13 8 14 9 21 10 22 11 4 12
REMARK SMILES IDX 5 13 3 14 2 15 1 16 15 17 16 18 18 19 17 20 19 21 20 22
REMARK H PARENT
ROOT
ATOM      1  C   UNL     1     -10.564 -42.808  33.215  1.00  0.00     0.058 C 
ATOM      2  C   UNL     1      -9.253 -42.615  33.418  1.00  0.00     0.097 C 
ATOM      3  N   UNL     1      -8.249 -43.438  32.931  1.00  0.00    -0.350 N 
ATOM      4  C   UNL     1      -6.837 -43.151  33.183  1.00  0.00     0.149 C 
ATOM      5  C   UNL     1      -8.577 -44.581  32.157  1.00  0.00     0.048 A 
ATOM      6  C   UNL     1      -7.606 -45.462  31.641  1.00  0.00     0.027 A 
ATOM      7  C   UNL     1      -7.958 -46.590  30.889  1.00  0.00     0.006 A 
ATOM      8  C   UNL     1      -9.294 -46.865  30.629  1.00  0.00     0.048 A 
ATOM      9  C   UNL     1     -10.267 -45.996  31.112  1.00  0.00     0.138 A 
ATOM     10  C   UNL     1      -9.936 -44.870  31.885  1.00  0.00     0.023 A 
ATOM     11  C   UNL     1     -11.042 -43.978  32.411  1.00  0.00     0.086 C 
ENDROOT
BRANCH   1  12
ATOM     12  C   UNL     1     -11.615 -41.913  33.751  1.00  0.00     0.335 C 
ATOM     13  O   UNL     1     -11.413 -41.124  34.664  1.00  0.00    -0.247 OA
BRANCH  12  14
ATOM     14  O   UNL     1     -12.797 -42.089  33.108  1.00  0.00    -0.463 OA
BRANCH  14  15
ATOM     15  C   UNL     1     -13.946 -42.264  33.948  1.00  0.00     0.230 C 
ATOM     16  C   UNL     1     -15.137 -41.526  33.367  1.00  0.00     0.049 C 
ENDBRANCH  14  15
ENDBRANCH  12  14
ENDBRANCH   1  12
BRANCH   9  17
ATOM     17  O   UNL     1     -11.621 -46.296  30.898  1.00  0.00    -0.410 OA
BRANCH  17  18
ATOM     18  C   UNL     1     -12.103 -46.039  29.616  1.00  0.00     0.414 C 
ATOM     19  N   UNL     1     -13.212 -45.201  29.626  1.00  0.00    -0.314 N 
ATOM     20  O   UNL     1     -11.612 -46.499  28.589  1.00  0.00    -0.224 OA
ATOM     21  C   UNL     1     -13.905 -44.928  28.382  1.00  0.00     0.150 C 
ATOM     22  C   UNL     1     -13.845 -44.732  30.846  1.00  0.00     0.150 C 
ENDBRANCH  17  18
ENDBRANCH   9  17
TORSDOF 5
ENDMDL
MODEL 2
REMARK VINA RESULT:    -8.540      2.291      3.522
REMARK INTER + INTRA:         -11.389
REMARK INTER:                 -11.581
REMARK INTRA:                   0.193
REMARK UNBOUND:                -0.353
REMARK SMILES CCOC(=O)C1=CN(C)c2cccc(OC(=O)N(C)C)c2C1
REMARK SMILES IDX 6 1 7 2 8 3 9 4 10 5 11 6 12 7 13 8 14 9 21 10 22 11 4 12
REMARK SMILES IDX 5 13 3 14 2 15 1 16 15 17 16 18 18 19 17 20 19 21 20 22
REMARK H PARENT
ROOT
ATOM      1  C   UNL     1     -11.815 -43.618  31.725  1.00  0.00     0.058 C 
ATOM      2  C   UNL     1     -10.702 -44.362  31.785  1.00  0.00     0.097 C 
ATOM      3  N   UNL     1     -10.333 -45.309  30.841  1.00  0.00    -0.350 N 
ATOM      4  C   UNL     1      -9.092 -46.072  30.969  1.00  0.00     0.149 C 
ATOM      5  C   UNL     1     -11.159 -45.548  29.711  1.00  0.00     0.048 A 
ATOM      6  C   UNL     1     -10.847 -46.501  28.722  1.00  0.00     0.027 A 
ATOM      7  C   UNL     1     -11.685 -46.725  27.623  1.00  0.00     0.006 A 
ATOM      8  C   UNL     1     -12.858 -45.996  27.481  1.00  0.00     0.048 A 
ATOM      9  C   UNL     1     -13.174 -45.035  28.436  1.00  0.00     0.138 A 
ATOM     10  C   UNL     1     -12.356 -44.809  29.557  1.00  0.00     0.023 A 
ATOM     11  C   UNL     1     -12.769 -43.771  30.582  1.00  0.00     0.086 C 
ENDROOT
BRANCH   1  12
ATOM     12  C   UNL     1     -12.184 -42.616  32.751  1.00  0.00     0.335 C 
ATOM     13  O   UNL     1     -11.437 -42.294  33.665  1.00  0.00    -0.247 OA
BRANCH  12  14
ATOM     14  O   UNL     1     -13.431 -42.123  32.542  1.00  0.00    -0.463 OA
BRANCH  14  15
ATOM     15  C   UNL     1     -14.358 -42.285  33.625  1.00  0.00     0.230 C 
ATOM     16  C   UNL     1     -15.501 -41.298  33.487  1.00  0.00     0.049 C 
ENDBRANCH  14  15
ENDBRANCH  12  14
ENDBRANCH   1  12
BRANCH   9  17
ATOM     17  O   UNL     1     -14.383 -44.332  28.328  1.00  0.00    -0.410 OA
BRANCH  17  18
ATOM     18  C   UNL     1     -14.724 -43.908  27.045  1.00  0.00     0.414 C 
ATOM     19  N   UNL     1     -15.845 -43.086  27.041  1.00  0.00    -0.314 N 
ATOM     20  O   UNL     1     -14.113 -44.223  26.029  1.00  0.00    -0.224 OA
ATOM     21  C   UNL     1     -16.400 -42.652  25.774  1.00  0.00     0.150 C 
ATOM     22  C   UNL     1     -16.619 -42.788  28.233  1.00  0.00     0.150 C 
ENDBRANCH  17  18
ENDBRANCH   9  17
TORSDOF 5
ENDMDL
MODEL 3
REMARK VINA RESULT:    -8.298      1.594      2.189
REMARK INTER + INTRA:         -11.076
REMARK INTER:                 -10.667
REMARK INTRA:                  -0.409
REMARK UNBOUND:                -0.353
REMARK SMILES CCOC(=O)C1=CN(C)c2cccc(OC(=O)N(C)C)c2C1
REMARK SMILES IDX 6 1 7 2 8 3 9 4 10 5 11 6 12 7 13 8 14 9 21 10 22 11 4 12
REMARK SMILES IDX 5 13 3 14 2 15 1 16 15 17 16 18 18 19 17 20 19 21 20 22
REMARK H PARENT
ROOT
ATOM      1  C   UNL     1     -12.320 -43.064  32.888  1.00  0.00     0.058 C 
ATOM      2  C   UNL     1     -11.498 -42.475  33.769  1.00  0.00     0.097 C 
ATOM      3  N   UNL     1     -10.117 -42.597  33.763  1.00  0.00    -0.350 N 
ATOM      4  C   UNL     1      -9.286 -41.909  34.752  1.00  0.00     0.149 C 
ATOM      5  C   UNL     1      -9.475 -43.390  32.777  1.00  0.00     0.048 A 
ATOM      6  C   UNL     1      -8.078 -43.562  32.722  1.00  0.00     0.027 A 
ATOM      7  C   UNL     1      -7.471 -44.360  31.744  1.00  0.00     0.006 A 
ATOM      8  C   UNL     1      -8.246 -45.005  30.790  1.00  0.00     0.048 A 
ATOM      9  C   UNL     1      -9.627 -44.831  30.815  1.00  0.00     0.138 A 
ATOM     10  C   UNL     1     -10.257 -44.051  31.800  1.00  0.00     0.023 A 
ATOM     11  C   UNL     1     -11.767 -43.925  31.795  1.00  0.00     0.086 C 
ENDROOT
BRANCH   1  12
ATOM     12  C   UNL     1     -13.793 -42.918  32.920  1.00  0.00     0.335 C 
ATOM     13  O   UNL     1     -14.552 -43.872  33.022  1.00  0.00    -0.247 OA
BRANCH  12  14
ATOM     14  O   UNL     1     -14.169 -41.618  32.821  1.00  0.00    -0.463 OA
BRANCH  14  15
ATOM     15  C   UNL     1     -15.331 -41.243  33.575  1.00  0.00     0.230 C 
ATOM     16  C   UNL     1     -14.944 -40.923  35.006  1.00  0.00     0.049 C 
ENDBRANCH  14  15
ENDBRANCH  12  14
ENDBRANCH   1  12
BRANCH   9  17
ATOM     17  O   UNL     1     -10.422 -45.521  29.887  1.00  0.00    -0.410 OA
BRANCH  17  18
ATOM     18  C   UNL     1     -10.906 -44.763  28.823  1.00  0.00     0.414 C 
ATOM     19  N   UNL     1     -12.226 -45.068  28.515  1.00  0.00    -0.314 N 
ATOM     20  O   UNL     1     -10.247 -43.922  28.219  1.00  0.00    -0.224 OA
ATOM     21  C   UNL     1     -12.845 -44.451  27.358  1.00  0.00     0.150 C 
ATOM     22  C   UNL     1     -12.974 -46.126  29.172  1.00  0.00     0.150 C 
ENDBRANCH  17  18
ENDBRANCH   9  17
TORSDOF 5
ENDMDL
MODEL 4
REMARK VINA RESULT:    -8.252      7.187     11.000
REMARK INTER + INTRA:         -11.017
REMARK INTER:                 -10.739
REMARK INTRA:                  -0.278
REMARK UNBOUND:                -0.353
REMARK SMILES CCOC(=O)C1=CN(C)c2cccc(OC(=O)N(C)C)c2C1
REMARK SMILES IDX 6 1 7 2 8 3 9 4 10 5 11 6 12 7 13 8 14 9 21 10 22 11 4 12
REMARK SMILES IDX 5 13 3 14 2 15 1 16 15 17 16 18 18 19 17 20 19 21 20 22
REMARK H PARENT
ROOT
ATOM      1  C   UNL     1     -15.773 -43.169  25.625  1.00  0.00     0.058 C 
ATOM      2  C   UNL     1     -16.040 -42.938  26.918  1.00  0.00     0.097 C 
ATOM      3  N   UNL     1     -17.246 -42.452  27.401  1.00  0.00    -0.350 N 
ATOM      4  C   UNL     1     -17.466 -42.240  28.832  1.00  0.00     0.149 C 
ATOM      5  C   UNL     1     -18.307 -42.159  26.505  1.00  0.00     0.048 A 
ATOM      6  C   UNL     1     -19.551 -41.654  26.929  1.00  0.00     0.027 A 
ATOM      7  C   UNL     1     -20.577 -41.363  26.022  1.00  0.00     0.006 A 
ATOM      8  C   UNL     1     -20.388 -41.574  24.663  1.00  0.00     0.048 A 
ATOM      9  C   UNL     1     -19.172 -42.092  24.225  1.00  0.00     0.138 A 
ATOM     10  C   UNL     1     -18.123 -42.372  25.117  1.00  0.00     0.023 A 
ATOM     11  C   UNL     1     -16.810 -42.904  24.578  1.00  0.00     0.086 C 
ENDROOT
BRANCH   1  12
ATOM     12  C   UNL     1     -14.474 -43.687  25.138  1.00  0.00     0.335 C 
ATOM     13  O   UNL     1     -13.784 -43.089  24.324  1.00  0.00    -0.247 OA
BRANCH  12  14
ATOM     14  O   UNL     1     -14.169 -44.882  25.704  1.00  0.00    -0.463 OA
BRANCH  14  15
ATOM     15  C   UNL     1     -13.431 -44.822  26.933  1.00  0.00     0.230 C 
ATOM     16  C   UNL     1     -12.870 -46.190  27.273  1.00  0.00     0.049 C 
ENDBRANCH  14  15
ENDBRANCH  12  14
ENDBRANCH   1  12
BRANCH   9  17
ATOM     17  O   UNL     1     -18.953 -42.259  22.849  1.00  0.00    -0.410 OA
BRANCH  17  18
ATOM     18  C   UNL     1     -18.779 -41.086  22.118  1.00  0.00     0.414 C 
ATOM     19  N   UNL     1     -19.824 -40.855  21.232  1.00  0.00    -0.314 N 
ATOM     20  O   UNL     1     -17.813 -40.337  22.234  1.00  0.00    -0.224 OA
ATOM     21  C   UNL     1     -19.740 -39.737  20.312  1.00  0.00     0.150 C 
ATOM     22  C   UNL     1     -20.919 -41.788  21.032  1.00  0.00     0.150 C 
ENDBRANCH  17  18
ENDBRANCH   9  17
TORSDOF 5
ENDMDL
MODEL 5
REMARK VINA RESULT:    -7.947      8.508     10.867
REMARK INTER + INTRA:         -10.622
REMARK INTER:                 -10.066
REMARK INTRA:                  -0.557
REMARK UNBOUND:                -0.353
REMARK SMILES CCOC(=O)C1=CN(C)c2cccc(OC(=O)N(C)C)c2C1
REMARK SMILES IDX 6 1 7 2 8 3 9 4 10 5 11 6 12 7 13 8 14 9 21 10 22 11 4 12
REMARK SMILES IDX 5 13 3 14 2 15 1 16 15 17 16 18 18 19 17 20 19 21 20 22
REMARK H PARENT
ROOT
ATOM      1  C   UNL     1     -19.767 -41.935  26.591  1.00  0.00     0.058 C 
ATOM      2  C   UNL     1     -18.963 -42.090  27.652  1.00  0.00     0.097 C 
ATOM      3  N   UNL     1     -17.616 -42.412  27.581  1.00  0.00    -0.350 N 
ATOM      4  C   UNL     1     -16.799 -42.550  28.787  1.00  0.00     0.149 C 
ATOM      5  C   UNL     1     -16.993 -42.604  26.320  1.00  0.00     0.048 A 
ATOM      6  C   UNL     1     -15.633 -42.941  26.180  1.00  0.00     0.027 A 
ATOM      7  C   UNL     1     -15.047 -43.135  24.923  1.00  0.00     0.006 A 
ATOM      8  C   UNL     1     -15.806 -42.992  23.770  1.00  0.00     0.048 A 
ATOM      9  C   UNL     1     -17.147 -42.639  23.886  1.00  0.00     0.138 A 
ATOM     10  C   UNL     1     -17.759 -42.459  25.138  1.00  0.00     0.023 A 
ATOM     11  C   UNL     1     -19.232 -42.106  25.202  1.00  0.00     0.086 C 
ENDROOT
BRANCH   1  12
ATOM     12  C   UNL     1     -21.204 -41.593  26.697  1.00  0.00     0.335 C 
ATOM     13  O   UNL     1     -21.692 -40.603  26.170  1.00  0.00    -0.247 OA
BRANCH  12  14
ATOM     14  O   UNL     1     -21.880 -42.504  27.441  1.00  0.00    -0.463 OA
BRANCH  14  15
ATOM     15  C   UNL     1     -22.089 -43.783  26.826  1.00  0.00     0.230 C 
ATOM     16  C   UNL     1     -21.598 -44.890  27.740  1.00  0.00     0.049 C 
ENDBRANCH  14  15
ENDBRANCH  12  14
ENDBRANCH   1  12
BRANCH   9  17
ATOM     17  O   UNL     1     -17.935 -42.544  22.728  1.00  0.00    -0.410 OA
BRANCH  17  18
ATOM     18  C   UNL     1     -18.035 -41.272  22.167  1.00  0.00     0.414 C 
ATOM     19  N   UNL     1     -19.311 -41.006  21.685  1.00  0.00    -0.314 N 
ATOM     20  O   UNL     1     -17.105 -40.473  22.099  1.00  0.00    -0.224 OA
ATOM     21  C   UNL     1     -19.553 -39.770  20.967  1.00  0.00     0.150 C 
ATOM     22  C   UNL     1     -20.383 -41.985  21.686  1.00  0.00     0.150 C 
ENDBRANCH  17  18
ENDBRANCH   9  17
TORSDOF 5
ENDMDL
MODEL 6
REMARK VINA RESULT:    -7.800      2.492      4.566
REMARK INTER + INTRA:         -10.433
REMARK INTER:                  -9.984
REMARK INTRA:                  -0.449
REMARK UNBOUND:                -0.353
REMARK SMILES CCOC(=O)C1=CN(C)c2cccc(OC(=O)N(C)C)c2C1
REMARK SMILES IDX 6 1 7 2 8 3 9 4 10 5 11 6 12 7 13 8 14 9 21 10 22 11 4 12
REMARK SMILES IDX 5 13 3 14 2 15 1 16 15 17 16 18 18 19 17 20 19 21 20 22
REMARK H PARENT
ROOT
ATOM      1  C   UNL     1      -9.524 -43.582  31.353  1.00  0.00     0.058 C 
ATOM      2  C   UNL     1      -9.512 -42.776  32.424  1.00  0.00     0.097 C 
ATOM      3  N   UNL     1     -10.618 -42.491  33.210  1.00  0.00    -0.350 N 
ATOM      4  C   UNL     1     -10.521 -41.610  34.374  1.00  0.00     0.149 C 
ATOM      5  C   UNL     1     -11.878 -43.067  32.904  1.00  0.00     0.048 A 
ATOM      6  C   UNL     1     -13.041 -42.812  33.657  1.00  0.00     0.027 A 
ATOM      7  C   UNL     1     -14.275 -43.385  33.325  1.00  0.00     0.006 A 
ATOM      8  C   UNL     1     -14.378 -44.235  32.233  1.00  0.00     0.048 A 
ATOM      9  C   UNL     1     -13.237 -44.517  31.489  1.00  0.00     0.138 A 
ATOM     10  C   UNL     1     -11.993 -43.936  31.793  1.00  0.00     0.023 A 
ATOM     11  C   UNL     1     -10.792 -44.256  30.926  1.00  0.00     0.086 C 
ENDROOT
BRANCH   1  12
ATOM     12  C   UNL     1      -8.327 -43.866  30.529  1.00  0.00     0.335 C 
ATOM     13  O   UNL     1      -7.219 -44.055  31.012  1.00  0.00    -0.247 OA
BRANCH  12  14
ATOM     14  O   UNL     1      -8.623 -43.881  29.205  1.00  0.00    -0.463 OA
BRANCH  14  15
ATOM     15  C   UNL     1      -8.574 -42.612  28.538  1.00  0.00     0.230 C 
ATOM     16  C   UNL     1      -9.852 -42.382  27.756  1.00  0.00     0.049 C 
ENDBRANCH  14  15
ENDBRANCH  12  14
ENDBRANCH   1  12
BRANCH   9  17
ATOM     17  O   UNL     1     -13.342 -45.333  30.352  1.00  0.00    -0.410 OA
BRANCH  17  18
ATOM     18  C   UNL     1     -14.027 -44.780  29.272  1.00  0.00     0.414 C 
ATOM     19  N   UNL     1     -13.488 -45.167  28.051  1.00  0.00    -0.314 N 
ATOM     20  O   UNL     1     -14.995 -44.032  29.378  1.00  0.00    -0.224 OA
ATOM     21  C   UNL     1     -14.012 -44.587  26.829  1.00  0.00     0.150 C 
ATOM     22  C   UNL     1     -12.289 -45.978  27.931  1.00  0.00     0.150 C 
ENDBRANCH  17  18
ENDBRANCH   9  17
TORSDOF 5
ENDMDL
MODEL 7
REMARK VINA RESULT:    -7.714      2.772      4.792
REMARK INTER + INTRA:         -10.321
REMARK INTER:                 -10.707
REMARK INTRA:                   0.386
REMARK UNBOUND:                -0.353
REMARK SMILES CCOC(=O)C1=CN(C)c2cccc(OC(=O)N(C)C)c2C1
REMARK SMILES IDX 6 1 7 2 8 3 9 4 10 5 11 6 12 7 13 8 14 9 21 10 22 11 4 12
REMARK SMILES IDX 5 13 3 14 2 15 1 16 15 17 16 18 18 19 17 20 19 21 20 22
REMARK H PARENT
ROOT
ATOM      1  C   UNL     1      -8.583 -44.044  30.156  1.00  0.00     0.058 C 
ATOM      2  C   UNL     1      -8.580 -43.198  29.116  1.00  0.00     0.097 C 
ATOM      3  N   UNL     1      -9.643 -43.013  28.245  1.00  0.00    -0.350 N 
ATOM      4  C   UNL     1      -9.568 -42.059  27.139  1.00  0.00     0.149 C 
ATOM      5  C   UNL     1     -10.846 -43.746  28.423  1.00  0.00     0.048 A 
ATOM      6  C   UNL     1     -11.959 -43.611  27.570  1.00  0.00     0.027 A 
ATOM      7  C   UNL     1     -13.129 -44.356  27.761  1.00  0.00     0.006 A 
ATOM      8  C   UNL     1     -13.220 -45.253  28.816  1.00  0.00     0.048 A 
ATOM      9  C   UNL     1     -12.140 -45.386  29.683  1.00  0.00     0.138 A 
ATOM     10  C   UNL     1     -10.949 -44.663  29.496  1.00  0.00     0.023 A 
ATOM     11  C   UNL     1      -9.793 -44.874  30.454  1.00  0.00     0.086 C 
ENDROOT
BRANCH   1  12
ATOM     12  C   UNL     1      -7.430 -44.223  31.067  1.00  0.00     0.335 C 
ATOM     13  O   UNL     1      -6.858 -45.295  31.212  1.00  0.00    -0.247 OA
BRANCH  12  14
ATOM     14  O   UNL     1      -7.110 -43.067  31.702  1.00  0.00    -0.463 OA
BRANCH  14  15
ATOM     15  C   UNL     1      -7.244 -43.080  33.130  1.00  0.00     0.230 C 
ATOM     16  C   UNL     1      -8.683 -42.803  33.522  1.00  0.00     0.049 C 
ENDBRANCH  14  15
ENDBRANCH  12  14
ENDBRANCH   1  12
BRANCH   9  17
ATOM     17  O   UNL     1     -12.203 -46.329  30.720  1.00  0.00    -0.410 OA
BRANCH  17  18
ATOM     18  C   UNL     1     -13.359 -46.296  31.498  1.00  0.00     0.414 C 
ATOM     19  N   UNL     1     -13.454 -45.134  32.254  1.00  0.00    -0.314 N 
ATOM     20  O   UNL     1     -14.202 -47.188  31.520  1.00  0.00    -0.224 OA
ATOM     21  C   UNL     1     -14.540 -44.994  33.205  1.00  0.00     0.150 C 
ATOM     22  C   UNL     1     -12.413 -44.122  32.294  1.00  0.00     0.150 C 
ENDBRANCH  17  18
ENDBRANCH   9  17
TORSDOF 5
ENDMDL
MODEL 8
REMARK VINA RESULT:    -7.572      2.983      5.171
REMARK INTER + INTRA:         -10.138
REMARK INTER:                  -9.808
REMARK INTRA:                  -0.330
REMARK UNBOUND:                -0.353
REMARK SMILES CCOC(=O)C1=CN(C)c2cccc(OC(=O)N(C)C)c2C1
REMARK SMILES IDX 6 1 7 2 8 3 9 4 10 5 11 6 12 7 13 8 14 9 21 10 22 11 4 12
REMARK SMILES IDX 5 13 3 14 2 15 1 16 15 17 16 18 18 19 17 20 19 21 20 22
REMARK H PARENT
ROOT
ATOM      1  C   UNL     1     -11.879 -43.497  27.944  1.00  0.00     0.058 C 
ATOM      2  C   UNL     1     -10.792 -43.042  27.306  1.00  0.00     0.097 C 
ATOM      3  N   UNL     1      -9.540 -42.896  27.884  1.00  0.00    -0.350 N 
ATOM      4  C   UNL     1      -8.396 -42.405  27.116  1.00  0.00     0.149 C 
ATOM      5  C   UNL     1      -9.340 -43.237  29.247  1.00  0.00     0.048 A 
ATOM      6  C   UNL     1      -8.097 -43.105  29.897  1.00  0.00     0.027 A 
ATOM      7  C   UNL     1      -7.931 -43.438  31.246  1.00  0.00     0.006 A 
ATOM      8  C   UNL     1      -9.004 -43.920  31.983  1.00  0.00     0.048 A 
ATOM      9  C   UNL     1     -10.235 -44.079  31.355  1.00  0.00     0.138 A 
ATOM     10  C   UNL     1     -10.428 -43.730  30.007  1.00  0.00     0.023 A 
ATOM     11  C   UNL     1     -11.801 -43.895  29.386  1.00  0.00     0.086 C 
ENDROOT
BRANCH   1  12
ATOM     12  C   UNL     1     -13.206 -43.639  27.301  1.00  0.00     0.335 C 
ATOM     13  O   UNL     1     -13.831 -44.690  27.294  1.00  0.00    -0.247 OA
BRANCH  12  14
ATOM     14  O   UNL     1     -13.614 -42.475  26.735  1.00  0.00    -0.463 OA
BRANCH  14  15
ATOM     15  C   UNL     1     -14.927 -42.487  26.159  1.00  0.00     0.230 C 
ATOM     16  C   UNL     1     -14.834 -42.508  24.645  1.00  0.00     0.049 C 
ENDBRANCH  14  15
ENDBRANCH  12  14
ENDBRANCH   1  12
BRANCH   9  17
ATOM     17  O   UNL     1     -11.338 -44.515  32.106  1.00  0.00    -0.410 OA
BRANCH  17  18
ATOM     18  C   UNL     1     -12.209 -43.516  32.537  1.00  0.00     0.414 C 
ATOM     19  N   UNL     1     -13.524 -43.959  32.611  1.00  0.00    -0.314 N 
ATOM     20  O   UNL     1     -11.863 -42.373  32.818  1.00  0.00    -0.224 OA
ATOM     21  C   UNL     1     -14.574 -43.011  32.932  1.00  0.00     0.150 C 
ATOM     22  C   UNL     1     -13.943 -45.285  32.192  1.00  0.00     0.150 C 
ENDBRANCH  17  18
ENDBRANCH   9  17
TORSDOF 5
ENDMDL
MODEL 9
REMARK VINA RESULT:    -7.538      9.156     11.830
REMARK INTER + INTRA:         -10.094
REMARK INTER:                  -9.768
REMARK INTRA:                  -0.326
REMARK UNBOUND:                -0.353
REMARK SMILES CCOC(=O)C1=CN(C)c2cccc(OC(=O)N(C)C)c2C1
REMARK SMILES IDX 6 1 7 2 8 3 9 4 10 5 11 6 12 7 13 8 14 9 21 10 22 11 4 12
REMARK SMILES IDX 5 13 3 14 2 15 1 16 15 17 16 18 18 19 17 20 19 21 20 22
REMARK H PARENT
ROOT
ATOM      1  C   UNL     1     -20.376 -41.593  26.403  1.00  0.00     0.058 C 
ATOM      2  C   UNL     1     -19.485 -41.868  27.366  1.00  0.00     0.097 C 
ATOM      3  N   UNL     1     -18.175 -42.264  27.140  1.00  0.00    -0.350 N 
ATOM      4  C   UNL     1     -17.257 -42.533  28.247  1.00  0.00     0.149 C 
ATOM      5  C   UNL     1     -17.691 -42.404  25.813  1.00  0.00     0.048 A 
ATOM      6  C   UNL     1     -16.376 -42.810  25.516  1.00  0.00     0.027 A 
ATOM      7  C   UNL     1     -15.928 -42.952  24.197  1.00  0.00     0.006 A 
ATOM      8  C   UNL     1     -16.783 -42.684  23.137  1.00  0.00     0.048 A 
ATOM      9  C   UNL     1     -18.081 -42.261  23.409  1.00  0.00     0.138 A 
ATOM     10  C   UNL     1     -18.556 -42.133  24.726  1.00  0.00     0.023 A 
ATOM     11  C   UNL     1     -19.990 -41.699  24.960  1.00  0.00     0.086 C 
ENDROOT
BRANCH   1  12
ATOM     12  C   UNL     1     -21.770 -41.175  26.674  1.00  0.00     0.335 C 
ATOM     13  O   UNL     1     -22.438 -41.644  27.586  1.00  0.00    -0.247 OA
BRANCH  12  14
ATOM     14  O   UNL     1     -22.189 -40.231  25.794  1.00  0.00    -0.463 OA
BRANCH  14  15
ATOM     15  C   UNL     1     -23.604 -39.996  25.755  1.00  0.00     0.230 C 
ATOM     16  C   UNL     1     -23.949 -38.751  26.550  1.00  0.00     0.049 C 
ENDBRANCH  14  15
ENDBRANCH  12  14
ENDBRANCH   1  12
BRANCH   9  17
ATOM     17  O   UNL     1     -18.968 -42.040  22.345  1.00  0.00    -0.410 OA
BRANCH  17  18
ATOM     18  C   UNL     1     -18.736 -40.890  21.593  1.00  0.00     0.414 C 
ATOM     19  N   UNL     1     -19.851 -40.505  20.858  1.00  0.00    -0.314 N 
ATOM     20  O   UNL     1     -17.670 -40.281  21.573  1.00  0.00    -0.224 OA
ATOM     21  C   UNL     1     -19.741 -39.394  19.933  1.00  0.00     0.150 C 
ATOM     22  C   UNL     1     -21.080 -41.276  20.813  1.00  0.00     0.150 C 
ENDBRANCH  17  18
ENDBRANCH   9  17
TORSDOF 5
ENDMDL
