MODEL 1
REMARK VINA RESULT:    -9.929      0.000      0.000
REMARK INTER + INTRA:         -15.732
REMARK INTER:                 -14.573
REMARK INTRA:                  -1.159
REMARK UNBOUND:                -1.159
REMARK SMILES COc1ccc([C@H](C)NS(=O)(=O)NC(=O)OCc2ccccc2)cc1
REMARK SMILES IDX 9 1 7 3 8 4 6 5 3 6 4 7 25 8 5 9 24 10 2 11 1 12 10 13 11 14
REMARK SMILES IDX 12 15 13 16 14 17 15 19 16 20 17 21 18 22 19 23 23 24 20 25
REMARK SMILES IDX 22 26 21 27
REMARK H PARENT 9 2 13 18
ROOT
ATOM      1  N   UNL     1     -11.853 -45.108  31.196  1.00  0.00    -0.190 NA
ATOM      2  H   UNL     1     -11.339 -45.768  31.781  1.00  0.00     0.143 HD
ENDROOT
BRANCH   1   3
ATOM      3  C   UNL     1     -11.343 -43.724  31.305  1.00  0.00     0.098 C 
ATOM      4  C   UNL     1     -10.447 -43.640  32.548  1.00  0.00     0.031 C 
BRANCH   3   5
ATOM      5  C   UNL     1     -10.579 -43.281  30.072  1.00  0.00    -0.030 A 
ATOM      6  C   UNL     1      -9.176 -42.483  27.758  1.00  0.00     0.118 A 
ATOM      7  C   UNL     1     -10.570 -42.422  27.800  1.00  0.00     0.047 A 
ATOM      8  C   UNL     1      -8.481 -42.953  28.870  1.00  0.00     0.047 A 
ATOM      9  C   UNL     1     -11.269 -42.814  28.945  1.00  0.00     0.009 A 
ATOM     10  C   UNL     1      -9.177 -43.350  30.017  1.00  0.00     0.009 A 
BRANCH   6  11
ATOM     11  O   UNL     1      -8.621 -42.074  26.577  1.00  0.00    -0.497 OA
ATOM     12  C   UNL     1      -7.444 -41.278  26.661  1.00  0.00     0.278 C 
ENDBRANCH   6  11
ENDBRANCH   3   5
ENDBRANCH   1   3
BRANCH   1  13
ATOM     13  S   UNL     1     -13.481 -45.373  31.467  1.00  0.00     0.304 S 
ATOM     14  O   UNL     1     -13.686 -46.798  31.438  1.00  0.00    -0.189 OA
ATOM     15  O   UNL     1     -13.853 -44.593  32.624  1.00  0.00    -0.189 OA
BRANCH  13  16
ATOM     16  N   UNL     1     -14.188 -44.672  30.179  1.00  0.00    -0.205 N 
ATOM     17  C   UNL     1     -13.902 -44.931  28.853  1.00  0.00     0.422 C 
ATOM     18  H   UNL     1     -14.770 -43.870  30.381  1.00  0.00     0.188 HD
ATOM     19  O   UNL     1     -13.090 -45.750  28.454  1.00  0.00    -0.223 OA
BRANCH  17  20
ATOM     20  O   UNL     1     -14.640 -44.127  28.047  1.00  0.00    -0.444 OA
BRANCH  20  21
ATOM     21  C   UNL     1     -14.107 -43.997  26.727  1.00  0.00     0.270 C 
BRANCH  21  22
ATOM     22  C   UNL     1     -15.162 -43.481  25.776  1.00  0.00    -0.011 A 
ATOM     23  C   UNL     1     -16.349 -42.937  26.292  1.00  0.00     0.007 A 
ATOM     24  C   UNL     1     -15.022 -43.585  24.385  1.00  0.00     0.007 A 
ATOM     25  C   UNL     1     -17.357 -42.488  25.436  1.00  0.00     0.000 A 
ATOM     26  C   UNL     1     -16.031 -43.139  23.530  1.00  0.00     0.000 A 
ATOM     27  C   UNL     1     -17.198 -42.589  24.056  1.00  0.00     0.000 A 
ENDBRANCH  21  22
ENDBRANCH  20  21
ENDBRANCH  17  20
ENDBRANCH  13  16
ENDBRANCH   1  13
TORSDOF 8
ENDMDL
MODEL 2
REMARK VINA RESULT:    -9.803      2.603      3.593
REMARK INTER + INTRA:         -15.546
REMARK INTER:                 -14.539
REMARK INTRA:                  -1.008
REMARK UNBOUND:                -1.159
REMARK SMILES COc1ccc([C@H](C)NS(=O)(=O)NC(=O)OCc2ccccc2)cc1
REMARK SMILES IDX 9 1 7 3 8 4 6 5 3 6 4 7 25 8 5 9 24 10 2 11 1 12 10 13 11 14
REMARK SMILES IDX 12 15 13 16 14 17 15 19 16 20 17 21 18 22 19 23 23 24 20 25
REMARK SMILES IDX 22 26 21 27
REMARK H PARENT 9 2 13 18
ROOT
ATOM      1  N   UNL     1     -11.930 -44.657  29.619  1.00  0.00    -0.190 NA
ATOM      2  H   UNL     1     -11.761 -44.663  28.612  1.00  0.00     0.143 HD
ENDROOT
BRANCH   1   3
ATOM      3  C   UNL     1     -10.977 -45.504  30.368  1.00  0.00     0.098 C 
ATOM      4  C   UNL     1     -10.058 -46.202  29.356  1.00  0.00     0.031 C 
BRANCH   3   5
ATOM      5  C   UNL     1     -10.157 -44.717  31.372  1.00  0.00    -0.030 A 
ATOM      6  C   UNL     1      -8.643 -43.223  33.225  1.00  0.00     0.118 A 
ATOM      7  C   UNL     1     -10.027 -43.057  33.139  1.00  0.00     0.047 A 
ATOM      8  C   UNL     1      -8.013 -44.131  32.377  1.00  0.00     0.047 A 
ATOM      9  C   UNL     1     -10.781 -43.797  32.225  1.00  0.00     0.009 A 
ATOM     10  C   UNL     1      -8.764 -44.870  31.457  1.00  0.00     0.009 A 
BRANCH   6  11
ATOM     11  O   UNL     1      -8.030 -42.435  34.158  1.00  0.00    -0.497 OA
ATOM     12  C   UNL     1      -8.851 -41.905  35.193  1.00  0.00     0.278 C 
ENDBRANCH   6  11
ENDBRANCH   3   5
ENDBRANCH   1   3
BRANCH   1  13
ATOM     13  S   UNL     1     -13.566 -44.918  29.845  1.00  0.00     0.304 S 
ATOM     14  O   UNL     1     -13.740 -46.331  30.066  1.00  0.00    -0.189 OA
ATOM     15  O   UNL     1     -14.022 -43.954  30.819  1.00  0.00    -0.189 OA
BRANCH  13  16
ATOM     16  N   UNL     1     -14.210 -44.483  28.415  1.00  0.00    -0.205 N 
ATOM     17  C   UNL     1     -13.856 -44.985  27.177  1.00  0.00     0.422 C 
ATOM     18  H   UNL     1     -14.806 -43.666  28.433  1.00  0.00     0.188 HD
ATOM     19  O   UNL     1     -13.022 -45.852  26.981  1.00  0.00    -0.223 OA
BRANCH  17  20
ATOM     20  O   UNL     1     -14.556 -44.358  26.199  1.00  0.00    -0.444 OA
BRANCH  20  21
ATOM     21  C   UNL     1     -14.865 -42.996  26.502  1.00  0.00     0.270 C 
BRANCH  21  22
ATOM     22  C   UNL     1     -16.349 -42.744  26.363  1.00  0.00    -0.011 A 
ATOM     23  C   UNL     1     -16.924 -42.699  25.084  1.00  0.00     0.007 A 
ATOM     24  C   UNL     1     -17.165 -42.489  27.475  1.00  0.00     0.007 A 
ATOM     25  C   UNL     1     -18.285 -42.428  24.924  1.00  0.00     0.000 A 
ATOM     26  C   UNL     1     -18.525 -42.217  27.314  1.00  0.00     0.000 A 
ATOM     27  C   UNL     1     -19.085 -42.189  26.039  1.00  0.00     0.000 A 
ENDBRANCH  21  22
ENDBRANCH  20  21
ENDBRANCH  17  20
ENDBRANCH  13  16
ENDBRANCH   1  13
TORSDOF 8
ENDMDL
MODEL 3
REMARK VINA RESULT:    -9.559      2.900      7.083
REMARK INTER + INTRA:         -15.188
REMARK INTER:                 -14.306
REMARK INTRA:                  -0.882
REMARK UNBOUND:                -1.159
REMARK SMILES COc1ccc([C@H](C)NS(=O)(=O)NC(=O)OCc2ccccc2)cc1
REMARK SMILES IDX 9 1 7 3 8 4 6 5 3 6 4 7 25 8 5 9 24 10 2 11 1 12 10 13 11 14
REMARK SMILES IDX 12 15 13 16 14 17 15 19 16 20 17 21 18 22 19 23 23 24 20 25
REMARK SMILES IDX 22 26 21 27
REMARK H PARENT 9 2 13 18
ROOT
ATOM      1  N   UNL     1     -14.574 -44.846  30.384  1.00  0.00    -0.190 NA
ATOM      2  H   UNL     1     -14.789 -45.797  30.685  1.00  0.00     0.143 HD
ENDROOT
BRANCH   1   3
ATOM      3  C   UNL     1     -13.575 -44.799  29.293  1.00  0.00     0.098 C 
ATOM      4  C   UNL     1     -12.961 -46.198  29.145  1.00  0.00     0.031 C 
BRANCH   3   5
ATOM      5  C   UNL     1     -14.168 -44.339  27.975  1.00  0.00    -0.030 A 
ATOM      6  C   UNL     1     -15.303 -43.496  25.534  1.00  0.00     0.118 A 
ATOM      7  C   UNL     1     -15.795 -43.017  26.750  1.00  0.00     0.047 A 
ATOM      8  C   UNL     1     -14.248 -44.405  25.538  1.00  0.00     0.047 A 
ATOM      9  C   UNL     1     -15.234 -43.430  27.961  1.00  0.00     0.009 A 
ATOM     10  C   UNL     1     -13.686 -44.824  26.749  1.00  0.00     0.009 A 
BRANCH   6  11
ATOM     11  O   UNL     1     -15.944 -43.013  24.427  1.00  0.00    -0.497 OA
ATOM     12  C   UNL     1     -17.257 -42.496  24.619  1.00  0.00     0.278 C 
ENDBRANCH   6  11
ENDBRANCH   3   5
ENDBRANCH   1   3
BRANCH   1  13
ATOM     13  S   UNL     1     -14.280 -43.948  31.763  1.00  0.00     0.304 S 
ATOM     14  O   UNL     1     -15.124 -42.782  31.693  1.00  0.00    -0.189 OA
ATOM     15  O   UNL     1     -14.357 -44.853  32.886  1.00  0.00    -0.189 OA
BRANCH  13  16
ATOM     16  N   UNL     1     -12.716 -43.528  31.603  1.00  0.00    -0.205 N 
ATOM     17  C   UNL     1     -12.007 -42.697  32.449  1.00  0.00     0.422 C 
ATOM     18  H   UNL     1     -12.283 -43.775  30.723  1.00  0.00     0.188 HD
ATOM     19  O   UNL     1     -12.449 -42.177  33.460  1.00  0.00    -0.223 OA
BRANCH  17  20
ATOM     20  O   UNL     1     -10.745 -42.520  31.984  1.00  0.00    -0.444 OA
BRANCH  20  21
ATOM     21  C   UNL     1      -9.739 -43.061  32.843  1.00  0.00     0.270 C 
BRANCH  21  22
ATOM     22  C   UNL     1      -9.134 -44.305  32.235  1.00  0.00    -0.011 A 
ATOM     23  C   UNL     1      -7.741 -44.390  32.080  1.00  0.00     0.007 A 
ATOM     24  C   UNL     1      -9.927 -45.359  31.760  1.00  0.00     0.007 A 
ATOM     25  C   UNL     1      -7.158 -45.511  31.486  1.00  0.00     0.000 A 
ATOM     26  C   UNL     1      -9.343 -46.479  31.164  1.00  0.00     0.000 A 
ATOM     27  C   UNL     1      -7.959 -46.555  31.028  1.00  0.00     0.000 A 
ENDBRANCH  21  22
ENDBRANCH  20  21
ENDBRANCH  17  20
ENDBRANCH  13  16
ENDBRANCH   1  13
TORSDOF 8
ENDMDL
MODEL 4
REMARK VINA RESULT:    -9.354      2.738      8.340
REMARK INTER + INTRA:         -14.887
REMARK INTER:                 -14.268
REMARK INTRA:                  -0.619
REMARK UNBOUND:                -1.159
REMARK SMILES COc1ccc([C@H](C)NS(=O)(=O)NC(=O)OCc2ccccc2)cc1
REMARK SMILES IDX 9 1 7 3 8 4 6 5 3 6 4 7 25 8 5 9 24 10 2 11 1 12 10 13 11 14
REMARK SMILES IDX 12 15 13 16 14 17 15 19 16 20 17 21 18 22 19 23 23 24 20 25
REMARK SMILES IDX 22 26 21 27
REMARK H PARENT 9 2 13 18
ROOT
ATOM      1  N   UNL     1     -14.646 -43.704  27.534  1.00  0.00    -0.190 NA
ATOM      2  H   UNL     1     -15.218 -44.510  27.784  1.00  0.00     0.143 HD
ENDROOT
BRANCH   1   3
ATOM      3  C   UNL     1     -15.209 -42.925  26.410  1.00  0.00     0.098 C 
ATOM      4  C   UNL     1     -15.000 -43.726  25.118  1.00  0.00     0.031 C 
BRANCH   3   5
ATOM      5  C   UNL     1     -16.679 -42.601  26.599  1.00  0.00    -0.030 A 
ATOM      6  C   UNL     1     -19.416 -42.030  26.971  1.00  0.00     0.118 A 
ATOM      7  C   UNL     1     -18.568 -42.191  28.068  1.00  0.00     0.047 A 
ATOM      8  C   UNL     1     -18.898 -42.163  25.685  1.00  0.00     0.047 A 
ATOM      9  C   UNL     1     -17.211 -42.472  27.889  1.00  0.00     0.009 A 
ATOM     10  C   UNL     1     -17.540 -42.448  25.501  1.00  0.00     0.009 A 
BRANCH   6  11
ATOM     11  O   UNL     1     -20.719 -41.763  27.289  1.00  0.00    -0.497 OA
ATOM     12  C   UNL     1     -21.584 -41.411  26.215  1.00  0.00     0.278 C 
ENDBRANCH   6  11
ENDBRANCH   3   5
ENDBRANCH   1   3
BRANCH   1  13
ATOM     13  S   UNL     1     -13.067 -44.239  27.410  1.00  0.00     0.304 S 
ATOM     14  O   UNL     1     -13.114 -45.567  26.855  1.00  0.00    -0.189 OA
ATOM     15  O   UNL     1     -12.311 -43.191  26.763  1.00  0.00    -0.189 OA
BRANCH  13  16
ATOM     16  N   UNL     1     -12.572 -44.288  28.960  1.00  0.00    -0.205 N 
ATOM     17  C   UNL     1     -13.330 -44.691  30.043  1.00  0.00     0.422 C 
ATOM     18  H   UNL     1     -11.688 -43.837  29.152  1.00  0.00     0.188 HD
ATOM     19  O   UNL     1     -14.479 -45.095  29.987  1.00  0.00    -0.223 OA
BRANCH  17  20
ATOM     20  O   UNL     1     -12.619 -44.552  31.190  1.00  0.00    -0.444 OA
BRANCH  20  21
ATOM     21  C   UNL     1     -11.921 -45.738  31.576  1.00  0.00     0.270 C 
BRANCH  21  22
ATOM     22  C   UNL     1     -10.431 -45.492  31.607  1.00  0.00    -0.011 A 
ATOM     23  C   UNL     1      -9.554 -46.509  31.197  1.00  0.00     0.007 A 
ATOM     24  C   UNL     1      -9.887 -44.295  32.094  1.00  0.00     0.007 A 
ATOM     25  C   UNL     1      -8.171 -46.323  31.253  1.00  0.00     0.000 A 
ATOM     26  C   UNL     1      -8.504 -44.110  32.150  1.00  0.00     0.000 A 
ATOM     27  C   UNL     1      -7.647 -45.123  31.728  1.00  0.00     0.000 A 
ENDBRANCH  21  22
ENDBRANCH  20  21
ENDBRANCH  17  20
ENDBRANCH  13  16
ENDBRANCH   1  13
TORSDOF 8
ENDMDL
MODEL 5
REMARK VINA RESULT:    -9.293      3.657      8.915
REMARK INTER + INTRA:         -14.798
REMARK INTER:                 -13.854
REMARK INTRA:                  -0.944
REMARK UNBOUND:                -1.159
REMARK SMILES COc1ccc([C@H](C)NS(=O)(=O)NC(=O)OCc2ccccc2)cc1
REMARK SMILES IDX 9 1 7 3 8 4 6 5 3 6 4 7 25 8 5 9 24 10 2 11 1 12 10 13 11 14
REMARK SMILES IDX 12 15 13 16 14 17 15 19 16 20 17 21 18 22 19 23 23 24 20 25
REMARK SMILES IDX 22 26 21 27
REMARK H PARENT 9 2 13 18
ROOT
ATOM      1  N   UNL     1     -16.395 -43.596  24.718  1.00  0.00    -0.190 NA
ATOM      2  H   UNL     1     -16.832 -44.429  24.323  1.00  0.00     0.143 HD
ENDROOT
BRANCH   1   3
ATOM      3  C   UNL     1     -17.049 -42.342  24.286  1.00  0.00     0.098 C 
ATOM      4  C   UNL     1     -17.358 -42.455  22.787  1.00  0.00     0.031 C 
BRANCH   3   5
ATOM      5  C   UNL     1     -18.314 -42.041  25.065  1.00  0.00    -0.030 A 
ATOM      6  C   UNL     1     -20.670 -41.515  26.527  1.00  0.00     0.118 A 
ATOM      7  C   UNL     1     -19.530 -42.005  27.167  1.00  0.00     0.047 A 
ATOM      8  C   UNL     1     -20.636 -41.296  25.151  1.00  0.00     0.047 A 
ATOM      9  C   UNL     1     -18.360 -42.265  26.448  1.00  0.00     0.009 A 
ATOM     10  C   UNL     1     -19.468 -41.558  24.427  1.00  0.00     0.009 A 
BRANCH   6  11
ATOM     11  O   UNL     1     -21.743 -41.310  27.348  1.00  0.00    -0.497 OA
ATOM     12  C   UNL     1     -23.006 -41.777  26.884  1.00  0.00     0.278 C 
ENDBRANCH   6  11
ENDBRANCH   3   5
ENDBRANCH   1   3
BRANCH   1  13
ATOM     13  S   UNL     1     -14.746 -43.748  24.487  1.00  0.00     0.304 S 
ATOM     14  O   UNL     1     -14.553 -44.774  23.494  1.00  0.00    -0.189 OA
ATOM     15  O   UNL     1     -14.219 -42.418  24.291  1.00  0.00    -0.189 OA
BRANCH  13  16
ATOM     16  N   UNL     1     -14.216 -44.256  25.940  1.00  0.00    -0.205 N 
ATOM     17  C   UNL     1     -14.530 -43.693  27.162  1.00  0.00     0.422 C 
ATOM     18  H   UNL     1     -13.472 -44.940  25.920  1.00  0.00     0.188 HD
ATOM     19  O   UNL     1     -15.277 -42.745  27.330  1.00  0.00    -0.223 OA
BRANCH  17  20
ATOM     20  O   UNL     1     -13.868 -44.335  28.158  1.00  0.00    -0.444 OA
BRANCH  20  21
ATOM     21  C   UNL     1     -13.038 -45.403  27.695  1.00  0.00     0.270 C 
BRANCH  21  22
ATOM     22  C   UNL     1     -12.040 -45.800  28.759  1.00  0.00    -0.011 A 
ATOM     23  C   UNL     1     -12.422 -45.768  30.109  1.00  0.00     0.007 A 
ATOM     24  C   UNL     1     -10.717 -46.141  28.444  1.00  0.00     0.007 A 
ATOM     25  C   UNL     1     -11.509 -46.092  31.115  1.00  0.00     0.000 A 
ATOM     26  C   UNL     1      -9.805 -46.463  29.450  1.00  0.00     0.000 A 
ATOM     27  C   UNL     1     -10.201 -46.440  30.786  1.00  0.00     0.000 A 
ENDBRANCH  21  22
ENDBRANCH  20  21
ENDBRANCH  17  20
ENDBRANCH  13  16
ENDBRANCH   1  13
TORSDOF 8
ENDMDL
MODEL 6
REMARK VINA RESULT:    -9.249      2.239      3.089
REMARK INTER + INTRA:         -14.733
REMARK INTER:                 -14.009
REMARK INTRA:                  -0.724
REMARK UNBOUND:                -1.159
REMARK SMILES COc1ccc([C@H](C)NS(=O)(=O)NC(=O)OCc2ccccc2)cc1
REMARK SMILES IDX 9 1 7 3 8 4 6 5 3 6 4 7 25 8 5 9 24 10 2 11 1 12 10 13 11 14
REMARK SMILES IDX 12 15 13 16 14 17 15 19 16 20 17 21 18 22 19 23 23 24 20 25
REMARK SMILES IDX 22 26 21 27
REMARK H PARENT 9 2 13 18
ROOT
ATOM      1  N   UNL     1     -12.078 -45.278  28.815  1.00  0.00    -0.190 NA
ATOM      2  H   UNL     1     -12.489 -45.623  27.947  1.00  0.00     0.143 HD
ENDROOT
BRANCH   1   3
ATOM      3  C   UNL     1     -10.926 -46.087  29.267  1.00  0.00     0.098 C 
ATOM      4  C   UNL     1     -10.370 -46.849  28.057  1.00  0.00     0.031 C 
BRANCH   3   5
ATOM      5  C   UNL     1      -9.837 -45.250  29.910  1.00  0.00    -0.030 A 
ATOM      6  C   UNL     1      -7.831 -43.690  31.137  1.00  0.00     0.118 A 
ATOM      7  C   UNL     1      -8.193 -44.929  31.669  1.00  0.00     0.047 A 
ATOM      8  C   UNL     1      -8.479 -43.225  29.995  1.00  0.00     0.047 A 
ATOM      9  C   UNL     1      -9.185 -45.706  31.063  1.00  0.00     0.009 A 
ATOM     10  C   UNL     1      -9.475 -43.998  29.387  1.00  0.00     0.009 A 
BRANCH   6  11
ATOM     11  O   UNL     1      -6.852 -43.034  31.830  1.00  0.00    -0.497 OA
ATOM     12  C   UNL     1      -6.962 -43.029  33.249  1.00  0.00     0.278 C 
ENDBRANCH   6  11
ENDBRANCH   3   5
ENDBRANCH   1   3
BRANCH   1  13
ATOM     13  S   UNL     1     -13.334 -45.024  29.889  1.00  0.00     0.304 S 
ATOM     14  O   UNL     1     -13.835 -46.321  30.266  1.00  0.00    -0.189 OA
ATOM     15  O   UNL     1     -12.861 -44.094  30.887  1.00  0.00    -0.189 OA
BRANCH  13  16
ATOM     16  N   UNL     1     -14.434 -44.230  28.989  1.00  0.00    -0.205 N 
ATOM     17  C   UNL     1     -14.565 -44.302  27.615  1.00  0.00     0.422 C 
ATOM     18  H   UNL     1     -14.955 -43.509  29.469  1.00  0.00     0.188 HD
ATOM     19  O   UNL     1     -13.886 -44.997  26.878  1.00  0.00    -0.223 OA
BRANCH  17  20
ATOM     20  O   UNL     1     -15.547 -43.467  27.193  1.00  0.00    -0.444 OA
BRANCH  20  21
ATOM     21  C   UNL     1     -15.482 -43.169  25.797  1.00  0.00     0.270 C 
BRANCH  21  22
ATOM     22  C   UNL     1     -16.821 -42.678  25.295  1.00  0.00    -0.011 A 
ATOM     23  C   UNL     1     -17.821 -42.337  26.219  1.00  0.00     0.007 A 
ATOM     24  C   UNL     1     -17.121 -42.612  23.927  1.00  0.00     0.007 A 
ATOM     25  C   UNL     1     -19.080 -41.919  25.783  1.00  0.00     0.000 A 
ATOM     26  C   UNL     1     -18.380 -42.195  23.492  1.00  0.00     0.000 A 
ATOM     27  C   UNL     1     -19.359 -41.847  24.420  1.00  0.00     0.000 A 
ENDBRANCH  21  22
ENDBRANCH  20  21
ENDBRANCH  17  20
ENDBRANCH  13  16
ENDBRANCH   1  13
TORSDOF 8
ENDMDL
MODEL 7
REMARK VINA RESULT:    -9.221      2.502      4.329
REMARK INTER + INTRA:         -14.693
REMARK INTER:                 -13.639
REMARK INTRA:                  -1.054
REMARK UNBOUND:                -1.159
REMARK SMILES COc1ccc([C@H](C)NS(=O)(=O)NC(=O)OCc2ccccc2)cc1
REMARK SMILES IDX 9 1 7 3 8 4 6 5 3 6 4 7 25 8 5 9 24 10 2 11 1 12 10 13 11 14
REMARK SMILES IDX 12 15 13 16 14 17 15 19 16 20 17 21 18 22 19 23 23 24 20 25
REMARK SMILES IDX 22 26 21 27
REMARK H PARENT 9 2 13 18
ROOT
ATOM      1  N   UNL     1     -11.503 -44.964  29.532  1.00  0.00    -0.190 NA
ATOM      2  H   UNL     1     -10.595 -44.924  29.067  1.00  0.00     0.143 HD
ENDROOT
BRANCH   1   3
ATOM      3  C   UNL     1     -11.401 -45.306  30.967  1.00  0.00     0.098 C 
ATOM      4  C   UNL     1      -9.914 -45.418  31.328  1.00  0.00     0.031 C 
BRANCH   3   5
ATOM      5  C   UNL     1     -12.088 -44.293  31.862  1.00  0.00    -0.030 A 
ATOM      6  C   UNL     1     -13.383 -42.394  33.498  1.00  0.00     0.118 A 
ATOM      7  C   UNL     1     -14.124 -43.294  32.730  1.00  0.00     0.047 A 
ATOM      8  C   UNL     1     -11.992 -42.437  33.442  1.00  0.00     0.047 A 
ATOM      9  C   UNL     1     -13.487 -44.238  31.920  1.00  0.00     0.009 A 
ATOM     10  C   UNL     1     -11.350 -43.378  32.629  1.00  0.00     0.009 A 
BRANCH   6  11
ATOM     11  O   UNL     1     -14.132 -41.524  34.240  1.00  0.00    -0.497 OA
ATOM     12  C   UNL     1     -15.437 -41.225  33.757  1.00  0.00     0.278 C 
ENDBRANCH   6  11
ENDBRANCH   3   5
ENDBRANCH   1   3
BRANCH   1  13
ATOM     13  S   UNL     1     -12.509 -45.889  28.569  1.00  0.00     0.304 S 
ATOM     14  O   UNL     1     -11.668 -46.593  27.635  1.00  0.00    -0.189 OA
ATOM     15  O   UNL     1     -13.402 -46.606  29.450  1.00  0.00    -0.189 OA
BRANCH  13  16
ATOM     16  N   UNL     1     -13.407 -44.773  27.795  1.00  0.00    -0.205 N 
ATOM     17  C   UNL     1     -12.954 -43.565  27.299  1.00  0.00     0.422 C 
ATOM     18  H   UNL     1     -14.407 -44.917  27.826  1.00  0.00     0.188 HD
ATOM     19  O   UNL     1     -11.800 -43.173  27.347  1.00  0.00    -0.223 OA
BRANCH  17  20
ATOM     20  O   UNL     1     -13.983 -42.861  26.766  1.00  0.00    -0.444 OA
BRANCH  20  21
ATOM     21  C   UNL     1     -14.256 -43.193  25.403  1.00  0.00     0.270 C 
BRANCH  21  22
ATOM     22  C   UNL     1     -15.712 -42.951  25.078  1.00  0.00    -0.011 A 
ATOM     23  C   UNL     1     -16.128 -42.947  23.738  1.00  0.00     0.007 A 
ATOM     24  C   UNL     1     -16.657 -42.667  26.074  1.00  0.00     0.007 A 
ATOM     25  C   UNL     1     -17.460 -42.687  23.406  1.00  0.00     0.000 A 
ATOM     26  C   UNL     1     -17.987 -42.406  25.742  1.00  0.00     0.000 A 
ATOM     27  C   UNL     1     -18.389 -42.417  24.408  1.00  0.00     0.000 A 
ENDBRANCH  21  22
ENDBRANCH  20  21
ENDBRANCH  17  20
ENDBRANCH  13  16
ENDBRANCH   1  13
TORSDOF 8
ENDMDL
MODEL 8
REMARK VINA RESULT:    -9.219      2.591      3.693
REMARK INTER + INTRA:         -14.689
REMARK INTER:                 -13.925
REMARK INTRA:                  -0.764
REMARK UNBOUND:                -1.159
REMARK SMILES COc1ccc([C@H](C)NS(=O)(=O)NC(=O)OCc2ccccc2)cc1
REMARK SMILES IDX 9 1 7 3 8 4 6 5 3 6 4 7 25 8 5 9 24 10 2 11 1 12 10 13 11 14
REMARK SMILES IDX 12 15 13 16 14 17 15 19 16 20 17 21 18 22 19 23 23 24 20 25
REMARK SMILES IDX 22 26 21 27
REMARK H PARENT 9 2 13 18
ROOT
ATOM      1  N   UNL     1     -11.255 -45.318  28.663  1.00  0.00    -0.190 NA
ATOM      2  H   UNL     1     -10.514 -45.323  27.961  1.00  0.00     0.143 HD
ENDROOT
BRANCH   1   3
ATOM      3  C   UNL     1     -10.805 -45.825  29.978  1.00  0.00     0.098 C 
ATOM      4  C   UNL     1      -9.394 -46.404  29.812  1.00  0.00     0.031 C 
BRANCH   3   5
ATOM      5  C   UNL     1     -10.814 -44.755  31.053  1.00  0.00    -0.030 A 
ATOM      6  C   UNL     1     -10.838 -42.740  33.027  1.00  0.00     0.118 A 
ATOM      7  C   UNL     1     -11.957 -42.959  32.222  1.00  0.00     0.047 A 
ATOM      8  C   UNL     1      -9.701 -43.523  32.840  1.00  0.00     0.047 A 
ATOM      9  C   UNL     1     -11.951 -43.958  31.244  1.00  0.00     0.009 A 
ATOM     10  C   UNL     1      -9.689 -44.521  31.860  1.00  0.00     0.009 A 
BRANCH   6  11
ATOM     11  O   UNL     1     -10.978 -41.731  33.939  1.00  0.00    -0.497 OA
ATOM     12  C   UNL     1      -9.952 -41.599  34.916  1.00  0.00     0.278 C 
ENDBRANCH   6  11
ENDBRANCH   3   5
ENDBRANCH   1   3
BRANCH   1  13
ATOM     13  S   UNL     1     -12.600 -46.021  27.964  1.00  0.00     0.304 S 
ATOM     14  O   UNL     1     -12.123 -46.943  26.965  1.00  0.00    -0.189 OA
ATOM     15  O   UNL     1     -13.454 -46.470  29.039  1.00  0.00    -0.189 OA
BRANCH  13  16
ATOM     16  N   UNL     1     -13.352 -44.760  27.261  1.00  0.00    -0.205 N 
ATOM     17  C   UNL     1     -12.929 -43.445  27.285  1.00  0.00     0.422 C 
ATOM     18  H   UNL     1     -14.285 -44.942  26.916  1.00  0.00     0.188 HD
ATOM     19  O   UNL     1     -11.909 -43.043  27.819  1.00  0.00    -0.223 OA
BRANCH  17  20
ATOM     20  O   UNL     1     -13.825 -42.652  26.646  1.00  0.00    -0.444 OA
BRANCH  20  21
ATOM     21  C   UNL     1     -14.137 -43.095  25.323  1.00  0.00     0.270 C 
BRANCH  21  22
ATOM     22  C   UNL     1     -15.580 -42.794  24.988  1.00  0.00    -0.011 A 
ATOM     23  C   UNL     1     -16.520 -42.683  26.024  1.00  0.00     0.007 A 
ATOM     24  C   UNL     1     -16.026 -42.683  23.663  1.00  0.00     0.007 A 
ATOM     25  C   UNL     1     -17.867 -42.445  25.741  1.00  0.00     0.000 A 
ATOM     26  C   UNL     1     -17.372 -42.447  23.381  1.00  0.00     0.000 A 
ATOM     27  C   UNL     1     -18.293 -42.326  24.420  1.00  0.00     0.000 A 
ENDBRANCH  21  22
ENDBRANCH  20  21
ENDBRANCH  17  20
ENDBRANCH  13  16
ENDBRANCH   1  13
TORSDOF 8
ENDMDL
MODEL 9
REMARK VINA RESULT:    -9.215      2.827      8.073
REMARK INTER + INTRA:         -14.683
REMARK INTER:                 -14.163
REMARK INTRA:                  -0.520
REMARK UNBOUND:                -1.159
REMARK SMILES COc1ccc([C@H](C)NS(=O)(=O)NC(=O)OCc2ccccc2)cc1
REMARK SMILES IDX 9 1 7 3 8 4 6 5 3 6 4 7 25 8 5 9 24 10 2 11 1 12 10 13 11 14
REMARK SMILES IDX 12 15 13 16 14 17 15 19 16 20 17 21 18 22 19 23 23 24 20 25
REMARK SMILES IDX 22 26 21 27
REMARK H PARENT 9 2 13 18
ROOT
ATOM      1  N   UNL     1     -14.950 -42.472  26.991  1.00  0.00    -0.190 NA
ATOM      2  H   UNL     1     -14.739 -41.802  27.731  1.00  0.00     0.143 HD
ENDROOT
BRANCH   1   3
ATOM      3  C   UNL     1     -16.345 -42.962  27.037  1.00  0.00     0.098 C 
ATOM      4  C   UNL     1     -17.021 -42.366  28.280  1.00  0.00     0.031 C 
BRANCH   3   5
ATOM      5  C   UNL     1     -17.131 -42.612  25.789  1.00  0.00    -0.030 A 
ATOM      6  C   UNL     1     -18.570 -41.936  23.458  1.00  0.00     0.118 A 
ATOM      7  C   UNL     1     -17.244 -42.366  23.375  1.00  0.00     0.047 A 
ATOM      8  C   UNL     1     -19.176 -41.835  24.708  1.00  0.00     0.047 A 
ATOM      9  C   UNL     1     -16.528 -42.704  24.527  1.00  0.00     0.009 A 
ATOM     10  C   UNL     1     -18.461 -42.169  25.864  1.00  0.00     0.009 A 
BRANCH   6  11
ATOM     11  O   UNL     1     -19.149 -41.634  22.257  1.00  0.00    -0.497 OA
ATOM     12  C   UNL     1     -20.571 -41.668  22.202  1.00  0.00     0.278 C 
ENDBRANCH   6  11
ENDBRANCH   3   5
ENDBRANCH   1   3
BRANCH   1  13
ATOM     13  S   UNL     1     -13.717 -43.600  26.981  1.00  0.00     0.304 S 
ATOM     14  O   UNL     1     -14.003 -44.529  25.917  1.00  0.00    -0.189 OA
ATOM     15  O   UNL     1     -12.470 -42.871  27.012  1.00  0.00    -0.189 OA
BRANCH  13  16
ATOM     16  N   UNL     1     -13.872 -44.329  28.428  1.00  0.00    -0.205 N 
ATOM     17  C   UNL     1     -13.295 -45.528  28.801  1.00  0.00     0.422 C 
ATOM     18  H   UNL     1     -14.577 -43.941  29.040  1.00  0.00     0.188 HD
ATOM     19  O   UNL     1     -12.560 -46.204  28.101  1.00  0.00    -0.223 OA
BRANCH  17  20
ATOM     20  O   UNL     1     -13.682 -45.864  30.057  1.00  0.00    -0.444 OA
BRANCH  20  21
ATOM     21  C   UNL     1     -13.298 -44.907  31.047  1.00  0.00     0.270 C 
BRANCH  21  22
ATOM     22  C   UNL     1     -11.823 -45.024  31.356  1.00  0.00    -0.011 A 
ATOM     23  C   UNL     1     -11.120 -43.895  31.803  1.00  0.00     0.007 A 
ATOM     24  C   UNL     1     -11.115 -46.217  31.149  1.00  0.00     0.007 A 
ATOM     25  C   UNL     1      -9.748 -43.965  32.058  1.00  0.00     0.000 A 
ATOM     26  C   UNL     1      -9.744 -46.285  31.402  1.00  0.00     0.000 A 
ATOM     27  C   UNL     1      -9.061 -45.160  31.858  1.00  0.00     0.000 A 
ENDBRANCH  21  22
ENDBRANCH  20  21
ENDBRANCH  17  20
ENDBRANCH  13  16
ENDBRANCH   1  13
TORSDOF 8
ENDMDL
