MODEL 1
REMARK VINA RESULT:   -12.917      0.000      0.000
REMARK INTER + INTRA:         -19.252
REMARK INTER:                 -18.580
REMARK INTRA:                  -0.672
REMARK UNBOUND:                -0.672
REMARK SMILES Cc1cc(=O)[nH]c2c1C(=O)C(=NCCCCNc1c3c(nc4cc(Cl)ccc14)CCCC3)C=C2O
REMARK SMILES IDX 14 1 13 2 12 3 11 4 34 5 33 6 7 7 6 8 8 9 9 10 4 11 2 12
REMARK SMILES IDX 3 13 10 15 5 16 1 17 35 18 15 20 16 21 17 22 18 24 19 25
REMARK SMILES IDX 28 26 20 27 32 28 27 29 22 30 21 31 29 32 31 33 26 34 23 35
REMARK SMILES IDX 30 36 24 37 25 38
REMARK H PARENT 6 14 35 19 17 23
ROOT
ATOM      1  C   UNL     1     -12.690 -45.255  27.700  1.00  0.00     0.025 C 
ENDROOT
BRANCH   1   2
ATOM      2  C   UNL     1     -11.948 -43.918  27.670  1.00  0.00     0.143 C 
BRANCH   2   3
ATOM      3  N   UNL     1     -12.911 -42.874  27.331  1.00  0.00    -0.281 NA
BRANCH   3   4
ATOM      4  C   UNL     1     -13.951 -43.175  26.634  1.00  0.00     0.109 C 
ATOM      5  C   UNL     1     -15.199 -43.350  24.573  1.00  0.00     0.142 C 
ATOM      6  C   UNL     1     -14.015 -43.455  25.181  1.00  0.00     0.080 C 
ATOM      7  C   UNL     1     -16.400 -42.900  25.254  1.00  0.00     0.095 A 
ATOM      8  N   UNL     1     -17.455 -42.481  24.475  1.00  0.00    -0.319 N 
ATOM      9  C   UNL     1     -16.506 -42.867  26.598  1.00  0.00     0.055 A 
ATOM     10  C   UNL     1     -15.293 -43.279  27.369  1.00  0.00     0.213 C 
ATOM     11  C   UNL     1     -18.649 -42.030  24.972  1.00  0.00     0.248 A 
ATOM     12  C   UNL     1     -17.759 -42.443  27.224  1.00  0.00    -0.032 A 
ATOM     13  C   UNL     1     -18.784 -42.048  26.447  1.00  0.00     0.075 A 
ATOM     14  H   UNL     1     -17.349 -42.383  23.473  1.00  0.00     0.170 HD
ATOM     15  O   UNL     1     -15.336 -43.711  28.512  1.00  0.00    -0.287 OA
ATOM     16  O   UNL     1     -19.556 -41.634  24.250  1.00  0.00    -0.270 OA
ATOM     17  C   UNL     1     -17.888 -42.435  28.721  1.00  0.00     0.045 C 
BRANCH   5  18
ATOM     18  O   UNL     1     -15.319 -43.678  23.238  1.00  0.00    -0.506 OA
ATOM     19  H   UNL     1     -14.819 -43.019  22.722  1.00  0.00     0.293 HD
ENDBRANCH   5  18
ENDBRANCH   3   4
ENDBRANCH   2   3
ENDBRANCH   1   2
BRANCH   1  20
ATOM     20  C   UNL     1     -11.813 -46.420  28.173  1.00  0.00     0.023 C 
BRANCH  20  21
ATOM     21  C   UNL     1     -10.672 -46.018  29.111  1.00  0.00     0.113 C 
BRANCH  21  22
ATOM     22  N   UNL     1     -11.043 -46.309  30.502  1.00  0.00    -0.384 N 
ATOM     23  H   UNL     1     -12.013 -46.619  30.554  1.00  0.00     0.160 HD
BRANCH  22  24
ATOM     24  C   UNL     1     -10.859 -45.180  31.352  1.00  0.00     0.049 A 
ATOM     25  C   UNL     1      -9.544 -44.809  31.696  1.00  0.00    -0.003 A 
ATOM     26  C   UNL     1     -11.956 -44.390  31.798  1.00  0.00     0.024 A 
ATOM     27  C   UNL     1      -9.375 -43.678  32.494  1.00  0.00     0.046 A 
ATOM     28  C   UNL     1      -8.363 -45.671  31.312  1.00  0.00     0.039 C 
ATOM     29  C   UNL     1     -13.317 -44.670  31.510  1.00  0.00     0.014 A 
ATOM     30  C   UNL     1     -11.656 -43.256  32.583  1.00  0.00     0.074 A 
ATOM     31  N   UNL     1     -10.407 -42.908  32.913  1.00  0.00    -0.252 NA
ATOM     32  C   UNL     1      -8.008 -43.198  32.909  1.00  0.00     0.056 C 
ATOM     33  C   UNL     1      -7.010 -44.986  31.488  1.00  0.00     0.005 C 
ATOM     34  C   UNL     1     -14.339 -43.848  31.981  1.00  0.00     0.021 A 
ATOM     35  C   UNL     1     -12.688 -42.451  33.041  1.00  0.00     0.049 A 
ATOM     36  C   UNL     1      -6.940 -44.283  32.836  1.00  0.00     0.007 C 
ATOM     37  C   UNL     1     -14.018 -42.739  32.746  1.00  0.00     0.043 A 
ATOM     38  Cl  UNL     1     -15.268 -41.713  33.333  1.00  0.00    -0.084 Cl
ENDBRANCH  22  24
ENDBRANCH  21  22
ENDBRANCH  20  21
ENDBRANCH   1  20
TORSDOF 8
ENDMDL
MODEL 2
REMARK VINA RESULT:   -12.786      1.294      2.280
REMARK INTER + INTRA:         -19.065
REMARK INTER:                 -18.061
REMARK INTRA:                  -1.004
REMARK UNBOUND:                -0.672
REMARK SMILES Cc1cc(=O)[nH]c2c1C(=O)C(=NCCCCNc1c3c(nc4cc(Cl)ccc14)CCCC3)C=C2O
REMARK SMILES IDX 14 1 13 2 12 3 11 4 34 5 33 6 7 7 6 8 8 9 9 10 4 11 2 12
REMARK SMILES IDX 3 13 10 15 5 16 1 17 35 18 15 20 16 21 17 22 18 24 19 25
REMARK SMILES IDX 28 26 20 27 32 28 27 29 22 30 21 31 29 32 31 33 26 34 23 35
REMARK SMILES IDX 30 36 24 37 25 38
REMARK H PARENT 6 14 35 19 17 23
ROOT
ATOM      1  C   UNL     1     -12.994 -46.021  27.164  1.00  0.00     0.025 C 
ENDROOT
BRANCH   1   2
ATOM      2  C   UNL     1     -13.153 -44.521  26.913  1.00  0.00     0.143 C 
BRANCH   2   3
ATOM      3  N   UNL     1     -14.373 -44.319  26.137  1.00  0.00    -0.281 NA
BRANCH   3   4
ATOM      4  C   UNL     1     -15.261 -43.488  26.560  1.00  0.00     0.109 C 
ATOM      5  C   UNL     1     -16.770 -42.593  28.220  1.00  0.00     0.142 C 
ATOM      6  C   UNL     1     -15.583 -43.147  27.965  1.00  0.00     0.080 C 
ATOM      7  C   UNL     1     -17.781 -42.384  27.198  1.00  0.00     0.095 A 
ATOM      8  N   UNL     1     -19.072 -42.155  27.617  1.00  0.00    -0.319 N 
ATOM      9  C   UNL     1     -17.501 -42.420  25.880  1.00  0.00     0.055 A 
ATOM     10  C   UNL     1     -16.088 -42.736  25.510  1.00  0.00     0.213 C 
ATOM     11  C   UNL     1     -20.131 -41.942  26.774  1.00  0.00     0.248 A 
ATOM     12  C   UNL     1     -18.556 -42.159  24.899  1.00  0.00    -0.032 A 
ATOM     13  C   UNL     1     -19.811 -41.925  25.327  1.00  0.00     0.075 A 
ATOM     14  H   UNL     1     -19.322 -42.246  28.595  1.00  0.00     0.170 HD
ATOM     15  O   UNL     1     -15.577 -42.398  24.452  1.00  0.00    -0.287 OA
ATOM     16  O   UNL     1     -21.274 -41.774  27.179  1.00  0.00    -0.270 OA
ATOM     17  C   UNL     1     -18.240 -42.169  23.431  1.00  0.00     0.045 C 
BRANCH   5  18
ATOM     18  O   UNL     1     -17.080 -42.188  29.502  1.00  0.00    -0.506 OA
ATOM     19  H   UNL     1     -17.422 -42.962  29.986  1.00  0.00     0.293 HD
ENDBRANCH   5  18
ENDBRANCH   3   4
ENDBRANCH   2   3
ENDBRANCH   1   2
BRANCH   1  20
ATOM     20  C   UNL     1     -12.825 -46.370  28.647  1.00  0.00     0.023 C 
BRANCH  20  21
ATOM     21  C   UNL     1     -11.410 -46.161  29.193  1.00  0.00     0.113 C 
BRANCH  21  22
ATOM     22  N   UNL     1     -11.381 -46.460  30.630  1.00  0.00    -0.384 N 
ATOM     23  H   UNL     1     -12.278 -46.837  30.933  1.00  0.00     0.160 HD
BRANCH  22  24
ATOM     24  C   UNL     1     -11.061 -45.310  31.409  1.00  0.00     0.049 A 
ATOM     25  C   UNL     1      -9.702 -45.009  31.630  1.00  0.00    -0.003 A 
ATOM     26  C   UNL     1     -12.068 -44.434  31.902  1.00  0.00     0.024 A 
ATOM     27  C   UNL     1      -9.401 -43.859  32.359  1.00  0.00     0.046 A 
ATOM     28  C   UNL     1      -8.611 -45.960  31.196  1.00  0.00     0.039 C 
ATOM     29  C   UNL     1     -13.462 -44.638  31.735  1.00  0.00     0.014 A 
ATOM     30  C   UNL     1     -11.638 -43.290  32.607  1.00  0.00     0.074 A 
ATOM     31  N   UNL     1     -10.348 -43.008  32.821  1.00  0.00    -0.252 NA
ATOM     32  C   UNL     1      -7.979 -43.449  32.642  1.00  0.00     0.056 C 
ATOM     33  C   UNL     1      -7.208 -45.355  31.233  1.00  0.00     0.005 C 
ATOM     34  C   UNL     1     -14.392 -43.735  32.246  1.00  0.00     0.021 A 
ATOM     35  C   UNL     1     -12.579 -42.402  33.106  1.00  0.00     0.049 A 
ATOM     36  C   UNL     1      -6.987 -44.602  32.536  1.00  0.00     0.007 C 
ATOM     37  C   UNL     1     -13.943 -42.617  32.931  1.00  0.00     0.043 A 
ATOM     38  Cl  UNL     1     -15.078 -41.490  33.566  1.00  0.00    -0.084 Cl
ENDBRANCH  22  24
ENDBRANCH  21  22
ENDBRANCH  20  21
ENDBRANCH   1  20
TORSDOF 8
ENDMDL
MODEL 3
REMARK VINA RESULT:   -12.148      1.673      3.512
REMARK INTER + INTRA:         -18.146
REMARK INTER:                 -17.519
REMARK INTRA:                  -0.628
REMARK UNBOUND:                -0.672
REMARK SMILES Cc1cc(=O)[nH]c2c1C(=O)C(=NCCCCNc1c3c(nc4cc(Cl)ccc14)CCCC3)C=C2O
REMARK SMILES IDX 14 1 13 2 12 3 11 4 34 5 33 6 7 7 6 8 8 9 9 10 4 11 2 12
REMARK SMILES IDX 3 13 10 15 5 16 1 17 35 18 15 20 16 21 17 22 18 24 19 25
REMARK SMILES IDX 28 26 20 27 32 28 27 29 22 30 21 31 29 32 31 33 26 34 23 35
REMARK SMILES IDX 30 36 24 37 25 38
REMARK H PARENT 6 14 35 19 17 23
ROOT
ATOM      1  C   UNL     1     -12.711 -45.187  27.698  1.00  0.00     0.025 C 
ENDROOT
BRANCH   1   2
ATOM      2  C   UNL     1     -11.964 -43.860  27.560  1.00  0.00     0.143 C 
BRANCH   2   3
ATOM      3  N   UNL     1     -12.942 -42.818  27.261  1.00  0.00    -0.281 NA
BRANCH   3   4
ATOM      4  C   UNL     1     -13.990 -43.115  26.575  1.00  0.00     0.109 C 
ATOM      5  C   UNL     1     -15.274 -43.249  24.534  1.00  0.00     0.142 C 
ATOM      6  C   UNL     1     -14.078 -43.356  25.116  1.00  0.00     0.080 C 
ATOM      7  C   UNL     1     -16.468 -42.834  25.249  1.00  0.00     0.095 A 
ATOM      8  N   UNL     1     -17.543 -42.408  24.501  1.00  0.00    -0.319 N 
ATOM      9  C   UNL     1     -16.549 -42.839  26.595  1.00  0.00     0.055 A 
ATOM     10  C   UNL     1     -15.317 -43.255  27.331  1.00  0.00     0.213 C 
ATOM     11  C   UNL     1     -18.734 -41.986  25.032  1.00  0.00     0.248 A 
ATOM     12  C   UNL     1     -17.796 -42.449  27.255  1.00  0.00    -0.032 A 
ATOM     13  C   UNL     1     -18.841 -42.046  26.508  1.00  0.00     0.075 A 
ATOM     14  H   UNL     1     -17.457 -42.282  23.500  1.00  0.00     0.170 HD
ATOM     15  O   UNL     1     -15.334 -43.720  28.463  1.00  0.00    -0.287 OA
ATOM     16  O   UNL     1     -19.658 -41.583  24.338  1.00  0.00    -0.270 OA
ATOM     17  C   UNL     1     -17.897 -42.483  28.754  1.00  0.00     0.045 C 
BRANCH   5  18
ATOM     18  O   UNL     1     -15.415 -43.542  23.193  1.00  0.00    -0.506 OA
ATOM     19  H   UNL     1     -14.559 -43.375  22.759  1.00  0.00     0.293 HD
ENDBRANCH   5  18
ENDBRANCH   3   4
ENDBRANCH   2   3
ENDBRANCH   1   2
BRANCH   1  20
ATOM     20  C   UNL     1     -11.847 -46.307  28.291  1.00  0.00     0.023 C 
BRANCH  20  21
ATOM     21  C   UNL     1     -10.730 -45.824  29.219  1.00  0.00     0.113 C 
BRANCH  21  22
ATOM     22  N   UNL     1     -11.091 -46.095  30.617  1.00  0.00    -0.384 N 
ATOM     23  H   UNL     1     -12.061 -46.401  30.681  1.00  0.00     0.160 HD
BRANCH  22  24
ATOM     24  C   UNL     1     -10.896 -44.956  31.450  1.00  0.00     0.049 A 
ATOM     25  C   UNL     1     -12.033 -44.262  31.911  1.00  0.00    -0.003 A 
ATOM     26  C   UNL     1      -9.601 -44.552  31.877  1.00  0.00     0.024 A 
ATOM     27  C   UNL     1     -11.832 -43.174  32.759  1.00  0.00     0.046 A 
ATOM     28  C   UNL     1     -13.416 -44.610  31.411  1.00  0.00     0.039 C 
ATOM     29  C   UNL     1      -8.391 -45.178  31.479  1.00  0.00     0.014 A 
ATOM     30  C   UNL     1      -9.526 -43.448  32.754  1.00  0.00     0.074 A 
ATOM     31  N   UNL     1     -10.606 -42.787  33.186  1.00  0.00    -0.252 NA
ATOM     32  C   UNL     1     -12.983 -42.373  33.309  1.00  0.00     0.056 C 
ATOM     33  C   UNL     1     -14.547 -43.981  32.223  1.00  0.00     0.005 C 
ATOM     34  C   UNL     1      -7.156 -44.727  31.940  1.00  0.00     0.021 A 
ATOM     35  C   UNL     1      -8.287 -43.015  33.203  1.00  0.00     0.049 A 
ATOM     36  C   UNL     1     -14.260 -42.511  32.487  1.00  0.00     0.007 C 
ATOM     37  C   UNL     1      -7.111 -43.644  32.804  1.00  0.00     0.043 A 
ATOM     38  Cl  UNL     1      -5.595 -43.075  33.384  1.00  0.00    -0.084 Cl
ENDBRANCH  22  24
ENDBRANCH  21  22
ENDBRANCH  20  21
ENDBRANCH   1  20
TORSDOF 8
ENDMDL
MODEL 4
REMARK VINA RESULT:   -11.724      3.759     10.311
REMARK INTER + INTRA:         -17.536
REMARK INTER:                 -16.685
REMARK INTRA:                  -0.851
REMARK UNBOUND:                -0.672
REMARK SMILES Cc1cc(=O)[nH]c2c1C(=O)C(=NCCCCNc1c3c(nc4cc(Cl)ccc14)CCCC3)C=C2O
REMARK SMILES IDX 14 1 13 2 12 3 11 4 34 5 33 6 7 7 6 8 8 9 9 10 4 11 2 12
REMARK SMILES IDX 3 13 10 15 5 16 1 17 35 18 15 20 16 21 17 22 18 24 19 25
REMARK SMILES IDX 28 26 20 27 32 28 27 29 22 30 21 31 29 32 31 33 26 34 23 35
REMARK SMILES IDX 30 36 24 37 25 38
REMARK H PARENT 6 14 35 19 17 23
ROOT
ATOM      1  C   UNL     1     -15.231 -42.974  24.025  1.00  0.00     0.025 C 
ENDROOT
BRANCH   1   2
ATOM      2  C   UNL     1     -14.275 -43.074  25.215  1.00  0.00     0.143 C 
BRANCH   2   3
ATOM      3  N   UNL     1     -14.219 -44.471  25.635  1.00  0.00    -0.281 NA
BRANCH   3   4
ATOM      4  C   UNL     1     -14.110 -44.751  26.886  1.00  0.00     0.109 C 
ATOM      5  C   UNL     1     -14.397 -44.290  29.240  1.00  0.00     0.142 C 
ATOM      6  C   UNL     1     -14.904 -44.199  28.009  1.00  0.00     0.080 C 
ATOM      7  C   UNL     1     -13.077 -44.831  29.514  1.00  0.00     0.095 A 
ATOM      8  N   UNL     1     -12.514 -44.546  30.738  1.00  0.00    -0.319 N 
ATOM      9  C   UNL     1     -12.395 -45.575  28.620  1.00  0.00     0.055 A 
ATOM     10  C   UNL     1     -13.052 -45.784  27.294  1.00  0.00     0.213 C 
ATOM     11  C   UNL     1     -11.279 -44.984  31.139  1.00  0.00     0.248 A 
ATOM     12  C   UNL     1     -11.086 -46.127  28.972  1.00  0.00    -0.032 A 
ATOM     13  C   UNL     1     -10.556 -45.848  30.178  1.00  0.00     0.075 A 
ATOM     14  H   UNL     1     -12.956 -43.890  31.370  1.00  0.00     0.170 HD
ATOM     15  O   UNL     1     -12.808 -46.734  26.564  1.00  0.00    -0.287 OA
ATOM     16  O   UNL     1     -10.793 -44.684  32.222  1.00  0.00    -0.270 OA
ATOM     17  C   UNL     1     -10.339 -46.981  27.987  1.00  0.00     0.045 C 
BRANCH   5  18
ATOM     18  O   UNL     1     -15.137 -43.861  30.323  1.00  0.00    -0.506 OA
ATOM     19  H   UNL     1     -15.073 -44.541  31.018  1.00  0.00     0.293 HD
ENDBRANCH   5  18
ENDBRANCH   3   4
ENDBRANCH   2   3
ENDBRANCH   1   2
BRANCH   1  20
ATOM     20  C   UNL     1     -15.359 -41.550  23.472  1.00  0.00     0.023 C 
BRANCH  20  21
ATOM     21  C   UNL     1     -16.529 -41.345  22.507  1.00  0.00     0.113 C 
BRANCH  21  22
ATOM     22  N   UNL     1     -17.578 -42.337  22.777  1.00  0.00    -0.384 N 
ATOM     23  H   UNL     1     -17.810 -42.849  21.927  1.00  0.00     0.160 HD
BRANCH  22  24
ATOM     24  C   UNL     1     -18.757 -41.738  23.307  1.00  0.00     0.049 A 
ATOM     25  C   UNL     1     -19.003 -41.854  24.690  1.00  0.00    -0.003 A 
ATOM     26  C   UNL     1     -19.642 -40.977  22.494  1.00  0.00     0.024 A 
ATOM     27  C   UNL     1     -20.138 -41.228  25.204  1.00  0.00     0.046 A 
ATOM     28  C   UNL     1     -18.133 -42.724  25.568  1.00  0.00     0.039 C 
ATOM     29  C   UNL     1     -19.490 -40.792  21.095  1.00  0.00     0.014 A 
ATOM     30  C   UNL     1     -20.746 -40.373  23.133  1.00  0.00     0.074 A 
ATOM     31  N   UNL     1     -20.981 -40.488  24.445  1.00  0.00    -0.252 NA
ATOM     32  C   UNL     1     -20.483 -41.289  26.669  1.00  0.00     0.056 C 
ATOM     33  C   UNL     1     -18.342 -42.502  27.065  1.00  0.00     0.005 C 
ATOM     34  C   UNL     1     -20.399 -40.031  20.362  1.00  0.00     0.021 A 
ATOM     35  C   UNL     1     -21.638 -39.618  22.386  1.00  0.00     0.049 A 
ATOM     36  C   UNL     1     -19.826 -42.458  27.394  1.00  0.00     0.007 C 
ATOM     37  C   UNL     1     -21.471 -39.445  21.015  1.00  0.00     0.043 A 
ATOM     38  Cl  UNL     1     -22.601 -38.500  20.125  1.00  0.00    -0.084 Cl
ENDBRANCH  22  24
ENDBRANCH  21  22
ENDBRANCH  20  21
ENDBRANCH   1  20
TORSDOF 8
ENDMDL
MODEL 5
REMARK VINA RESULT:   -11.633      2.150      3.301
REMARK INTER + INTRA:         -17.406
REMARK INTER:                 -16.892
REMARK INTRA:                  -0.514
REMARK UNBOUND:                -0.672
REMARK SMILES Cc1cc(=O)[nH]c2c1C(=O)C(=NCCCCNc1c3c(nc4cc(Cl)ccc14)CCCC3)C=C2O
REMARK SMILES IDX 14 1 13 2 12 3 11 4 34 5 33 6 7 7 6 8 8 9 9 10 4 11 2 12
REMARK SMILES IDX 3 13 10 15 5 16 1 17 35 18 15 20 16 21 17 22 18 24 19 25
REMARK SMILES IDX 28 26 20 27 32 28 27 29 22 30 21 31 29 32 31 33 26 34 23 35
REMARK SMILES IDX 30 36 24 37 25 38
REMARK H PARENT 6 14 35 19 17 23
ROOT
ATOM      1  C   UNL     1     -14.566 -44.002  26.447  1.00  0.00     0.025 C 
ENDROOT
BRANCH   1   2
ATOM      2  C   UNL     1     -14.955 -42.555  26.140  1.00  0.00     0.143 C 
BRANCH   2   3
ATOM      3  N   UNL     1     -16.367 -42.533  25.771  1.00  0.00    -0.281 NA
BRANCH   3   4
ATOM      4  C   UNL     1     -16.697 -42.318  24.546  1.00  0.00     0.109 C 
ATOM      5  C   UNL     1     -16.409 -41.302  22.373  1.00  0.00     0.142 C 
ATOM      6  C   UNL     1     -15.826 -41.844  23.445  1.00  0.00     0.080 C 
ATOM      7  C   UNL     1     -17.842 -41.089  22.276  1.00  0.00     0.095 A 
ATOM      8  N   UNL     1     -18.291 -40.210  21.315  1.00  0.00    -0.319 N 
ATOM      9  C   UNL     1     -18.727 -41.701  23.089  1.00  0.00     0.055 A 
ATOM     10  C   UNL     1     -18.152 -42.590  24.143  1.00  0.00     0.213 C 
ATOM     11  C   UNL     1     -19.611 -39.906  21.104  1.00  0.00     0.248 A 
ATOM     12  C   UNL     1     -20.162 -41.477  22.912  1.00  0.00    -0.032 A 
ATOM     13  C   UNL     1     -20.584 -40.623  21.960  1.00  0.00     0.075 A 
ATOM     14  H   UNL     1     -17.637 -39.651  20.781  1.00  0.00     0.170 HD
ATOM     15  O   UNL     1     -18.768 -43.515  24.654  1.00  0.00    -0.287 OA
ATOM     16  O   UNL     1     -19.973 -39.094  20.262  1.00  0.00    -0.270 OA
ATOM     17  C   UNL     1     -21.150 -42.182  23.798  1.00  0.00     0.045 C 
BRANCH   5  18
ATOM     18  O   UNL     1     -15.642 -40.919  21.292  1.00  0.00    -0.506 OA
ATOM     19  H   UNL     1     -16.224 -40.876  20.512  1.00  0.00     0.293 HD
ENDBRANCH   5  18
ENDBRANCH   3   4
ENDBRANCH   2   3
ENDBRANCH   1   2
BRANCH   1  20
ATOM     20  C   UNL     1     -14.446 -44.288  27.948  1.00  0.00     0.023 C 
BRANCH  20  21
ATOM     21  C   UNL     1     -13.183 -45.056  28.350  1.00  0.00     0.113 C 
BRANCH  21  22
ATOM     22  N   UNL     1     -13.387 -45.705  29.651  1.00  0.00    -0.384 N 
ATOM     23  H   UNL     1     -14.369 -45.660  29.921  1.00  0.00     0.160 HD
BRANCH  22  24
ATOM     24  C   UNL     1     -12.586 -45.118  30.673  1.00  0.00     0.049 A 
ATOM     25  C   UNL     1     -11.214 -45.439  30.714  1.00  0.00    -0.003 A 
ATOM     26  C   UNL     1     -13.119 -44.175  31.595  1.00  0.00     0.024 A 
ATOM     27  C   UNL     1     -10.432 -44.826  31.693  1.00  0.00     0.046 A 
ATOM     28  C   UNL     1     -10.632 -46.499  29.808  1.00  0.00     0.039 C 
ATOM     29  C   UNL     1     -14.480 -43.777  31.641  1.00  0.00     0.014 A 
ATOM     30  C   UNL     1     -12.223 -43.606  32.525  1.00  0.00     0.074 A 
ATOM     31  N   UNL     1     -10.922 -43.915  32.567  1.00  0.00    -0.252 NA
ATOM     32  C   UNL     1      -8.956 -45.100  31.814  1.00  0.00     0.056 C 
ATOM     33  C   UNL     1      -9.105 -46.509  29.764  1.00  0.00     0.005 C 
ATOM     34  C   UNL     1     -14.931 -42.845  32.574  1.00  0.00     0.021 A 
ATOM     35  C   UNL     1     -12.691 -42.679  33.444  1.00  0.00     0.049 A 
ATOM     36  C   UNL     1      -8.532 -46.414  31.169  1.00  0.00     0.007 C 
ATOM     37  C   UNL     1     -14.030 -42.298  33.473  1.00  0.00     0.043 A 
ATOM     38  Cl  UNL     1     -14.570 -41.145  34.630  1.00  0.00    -0.084 Cl
ENDBRANCH  22  24
ENDBRANCH  21  22
ENDBRANCH  20  21
ENDBRANCH   1  20
TORSDOF 8
ENDMDL
MODEL 6
REMARK VINA RESULT:   -11.486      3.937     10.553
REMARK INTER + INTRA:         -17.195
REMARK INTER:                 -16.503
REMARK INTRA:                  -0.692
REMARK UNBOUND:                -0.672
REMARK SMILES Cc1cc(=O)[nH]c2c1C(=O)C(=NCCCCNc1c3c(nc4cc(Cl)ccc14)CCCC3)C=C2O
REMARK SMILES IDX 14 1 13 2 12 3 11 4 34 5 33 6 7 7 6 8 8 9 9 10 4 11 2 12
REMARK SMILES IDX 3 13 10 15 5 16 1 17 35 18 15 20 16 21 17 22 18 24 19 25
REMARK SMILES IDX 28 26 20 27 32 28 27 29 22 30 21 31 29 32 31 33 26 34 23 35
REMARK SMILES IDX 30 36 24 37 25 38
REMARK H PARENT 6 14 35 19 17 23
ROOT
ATOM      1  C   UNL     1     -14.805 -42.680  24.989  1.00  0.00     0.025 C 
ENDROOT
BRANCH   1   2
ATOM      2  C   UNL     1     -15.208 -43.422  26.264  1.00  0.00     0.143 C 
BRANCH   2   3
ATOM      3  N   UNL     1     -14.138 -44.357  26.602  1.00  0.00    -0.281 NA
BRANCH   3   4
ATOM      4  C   UNL     1     -13.255 -44.017  27.474  1.00  0.00     0.109 C 
ATOM      5  C   UNL     1     -11.071 -43.241  28.153  1.00  0.00     0.142 C 
ATOM      6  C   UNL     1     -12.068 -43.155  27.270  1.00  0.00     0.080 C 
ATOM      7  C   UNL     1     -11.066 -44.192  29.250  1.00  0.00     0.095 A 
ATOM      8  N   UNL     1      -9.861 -44.449  29.865  1.00  0.00    -0.319 N 
ATOM      9  C   UNL     1     -12.180 -44.828  29.667  1.00  0.00     0.055 A 
ATOM     10  C   UNL     1     -13.432 -44.539  28.905  1.00  0.00     0.213 C 
ATOM     11  C   UNL     1      -9.699 -45.320  30.911  1.00  0.00     0.248 A 
ATOM     12  C   UNL     1     -12.117 -45.743  30.807  1.00  0.00    -0.032 A 
ATOM     13  C   UNL     1     -10.933 -45.974  31.404  1.00  0.00     0.075 A 
ATOM     14  H   UNL     1      -8.999 -44.076  29.488  1.00  0.00     0.170 HD
ATOM     15  O   UNL     1     -14.553 -44.667  29.378  1.00  0.00    -0.287 OA
ATOM     16  O   UNL     1      -8.607 -45.550  31.414  1.00  0.00    -0.270 OA
ATOM     17  C   UNL     1     -13.364 -46.430  31.291  1.00  0.00     0.045 C 
BRANCH   5  18
ATOM     18  O   UNL     1      -9.982 -42.400  28.046  1.00  0.00    -0.506 OA
ATOM     19  H   UNL     1      -9.802 -42.263  27.097  1.00  0.00     0.293 HD
ENDBRANCH   5  18
ENDBRANCH   3   4
ENDBRANCH   2   3
ENDBRANCH   1   2
BRANCH   1  20
ATOM     20  C   UNL     1     -15.624 -43.099  23.763  1.00  0.00     0.023 C 
BRANCH  20  21
ATOM     21  C   UNL     1     -16.548 -42.009  23.212  1.00  0.00     0.113 C 
BRANCH  21  22
ATOM     22  N   UNL     1     -17.823 -42.602  22.789  1.00  0.00    -0.384 N 
ATOM     23  H   UNL     1     -17.827 -42.752  21.780  1.00  0.00     0.160 HD
BRANCH  22  24
ATOM     24  C   UNL     1     -18.937 -41.791  23.153  1.00  0.00     0.049 A 
ATOM     25  C   UNL     1     -19.435 -41.892  24.468  1.00  0.00    -0.003 A 
ATOM     26  C   UNL     1     -19.503 -40.846  22.253  1.00  0.00     0.024 A 
ATOM     27  C   UNL     1     -20.499 -41.064  24.825  1.00  0.00     0.046 A 
ATOM     28  C   UNL     1     -18.915 -42.942  25.422  1.00  0.00     0.039 C 
ATOM     29  C   UNL     1     -19.078 -40.659  20.912  1.00  0.00     0.014 A 
ATOM     30  C   UNL     1     -20.562 -40.049  22.738  1.00  0.00     0.074 A 
ATOM     31  N   UNL     1     -21.038 -40.149  23.984  1.00  0.00    -0.252 NA
ATOM     32  C   UNL     1     -21.097 -41.093  26.207  1.00  0.00     0.056 C 
ATOM     33  C   UNL     1     -19.333 -42.723  26.875  1.00  0.00     0.005 C 
ATOM     34  C   UNL     1     -19.681 -39.711  20.087  1.00  0.00     0.021 A 
ATOM     35  C   UNL     1     -21.148 -39.110  21.902  1.00  0.00     0.049 A 
ATOM     36  C   UNL     1     -20.815 -42.389  26.958  1.00  0.00     0.007 C 
ATOM     37  C   UNL     1     -20.716 -38.938  20.589  1.00  0.00     0.043 A 
ATOM     38  Cl  UNL     1     -21.470 -37.762  19.585  1.00  0.00    -0.084 Cl
ENDBRANCH  22  24
ENDBRANCH  21  22
ENDBRANCH  20  21
ENDBRANCH   1  20
TORSDOF 8
ENDMDL
MODEL 7
REMARK VINA RESULT:   -11.064      4.133     10.667
REMARK INTER + INTRA:         -16.588
REMARK INTER:                 -15.752
REMARK INTRA:                  -0.835
REMARK UNBOUND:                -0.672
REMARK SMILES Cc1cc(=O)[nH]c2c1C(=O)C(=NCCCCNc1c3c(nc4cc(Cl)ccc14)CCCC3)C=C2O
REMARK SMILES IDX 14 1 13 2 12 3 11 4 34 5 33 6 7 7 6 8 8 9 9 10 4 11 2 12
REMARK SMILES IDX 3 13 10 15 5 16 1 17 35 18 15 20 16 21 17 22 18 24 19 25
REMARK SMILES IDX 28 26 20 27 32 28 27 29 22 30 21 31 29 32 31 33 26 34 23 35
REMARK SMILES IDX 30 36 24 37 25 38
REMARK H PARENT 6 14 35 19 17 23
ROOT
ATOM      1  C   UNL     1     -15.072 -42.550  24.817  1.00  0.00     0.025 C 
ENDROOT
BRANCH   1   2
ATOM      2  C   UNL     1     -15.739 -43.086  26.085  1.00  0.00     0.143 C 
BRANCH   2   3
ATOM      3  N   UNL     1     -14.755 -43.052  27.163  1.00  0.00    -0.281 NA
BRANCH   3   4
ATOM      4  C   UNL     1     -13.760 -43.869  27.137  1.00  0.00     0.109 C 
ATOM      5  C   UNL     1     -12.767 -46.070  27.154  1.00  0.00     0.142 C 
ATOM      6  C   UNL     1     -13.773 -45.297  26.742  1.00  0.00     0.080 C 
ATOM      7  C   UNL     1     -11.711 -45.595  28.031  1.00  0.00     0.095 A 
ATOM      8  N   UNL     1     -10.948 -46.540  28.680  1.00  0.00    -0.319 N 
ATOM      9  C   UNL     1     -11.470 -44.284  28.236  1.00  0.00     0.055 A 
ATOM     10  C   UNL     1     -12.385 -43.326  27.543  1.00  0.00     0.213 C 
ATOM     11  C   UNL     1      -9.920 -46.246  29.537  1.00  0.00     0.248 A 
ATOM     12  C   UNL     1     -10.364 -43.869  29.099  1.00  0.00    -0.032 A 
ATOM     13  C   UNL     1      -9.621 -44.807  29.717  1.00  0.00     0.075 A 
ATOM     14  H   UNL     1     -11.193 -47.522  28.634  1.00  0.00     0.170 HD
ATOM     15  O   UNL     1     -12.072 -42.177  27.269  1.00  0.00    -0.287 OA
ATOM     16  O   UNL     1      -9.283 -47.111  30.123  1.00  0.00    -0.270 OA
ATOM     17  C   UNL     1     -10.076 -42.408  29.305  1.00  0.00     0.045 C 
BRANCH   5  18
ATOM     18  O   UNL     1     -12.698 -47.386  26.744  1.00  0.00    -0.506 OA
ATOM     19  H   UNL     1     -12.980 -47.424  25.812  1.00  0.00     0.293 HD
ENDBRANCH   5  18
ENDBRANCH   3   4
ENDBRANCH   2   3
ENDBRANCH   1   2
BRANCH   1  20
ATOM     20  C   UNL     1     -15.796 -42.967  23.532  1.00  0.00     0.023 C 
BRANCH  20  21
ATOM     21  C   UNL     1     -16.738 -41.904  22.959  1.00  0.00     0.113 C 
BRANCH  21  22
ATOM     22  N   UNL     1     -18.023 -42.518  22.602  1.00  0.00    -0.384 N 
ATOM     23  H   UNL     1     -18.060 -42.708  21.601  1.00  0.00     0.160 HD
BRANCH  22  24
ATOM     24  C   UNL     1     -19.128 -41.696  22.969  1.00  0.00     0.049 A 
ATOM     25  C   UNL     1     -19.642 -41.811  24.277  1.00  0.00    -0.003 A 
ATOM     26  C   UNL     1     -19.671 -40.727  22.079  1.00  0.00     0.024 A 
ATOM     27  C   UNL     1     -20.696 -40.972  24.637  1.00  0.00     0.046 A 
ATOM     28  C   UNL     1     -19.148 -42.885  25.218  1.00  0.00     0.039 C 
ATOM     29  C   UNL     1     -19.229 -40.524  20.746  1.00  0.00     0.014 A 
ATOM     30  C   UNL     1     -20.722 -39.921  22.567  1.00  0.00     0.074 A 
ATOM     31  N   UNL     1     -21.212 -40.035  23.806  1.00  0.00    -0.252 NA
ATOM     32  C   UNL     1     -21.308 -41.015  26.013  1.00  0.00     0.056 C 
ATOM     33  C   UNL     1     -19.577 -42.683  26.670  1.00  0.00     0.005 C 
ATOM     34  C   UNL     1     -19.809 -39.553  19.931  1.00  0.00     0.021 A 
ATOM     35  C   UNL     1     -21.284 -38.960  21.741  1.00  0.00     0.049 A 
ATOM     36  C   UNL     1     -21.054 -42.328  26.745  1.00  0.00     0.007 C 
ATOM     37  C   UNL     1     -20.837 -38.773  20.436  1.00  0.00     0.043 A 
ATOM     38  Cl  UNL     1     -21.562 -37.568  19.445  1.00  0.00    -0.084 Cl
ENDBRANCH  22  24
ENDBRANCH  21  22
ENDBRANCH  20  21
ENDBRANCH   1  20
TORSDOF 8
ENDMDL
MODEL 8
REMARK VINA RESULT:   -10.792      2.004      4.134
REMARK INTER + INTRA:         -16.196
REMARK INTER:                 -15.892
REMARK INTRA:                  -0.304
REMARK UNBOUND:                -0.672
REMARK SMILES Cc1cc(=O)[nH]c2c1C(=O)C(=NCCCCNc1c3c(nc4cc(Cl)ccc14)CCCC3)C=C2O
REMARK SMILES IDX 14 1 13 2 12 3 11 4 34 5 33 6 7 7 6 8 8 9 9 10 4 11 2 12
REMARK SMILES IDX 3 13 10 15 5 16 1 17 35 18 15 20 16 21 17 22 18 24 19 25
REMARK SMILES IDX 28 26 20 27 32 28 27 29 22 30 21 31 29 32 31 33 26 34 23 35
REMARK SMILES IDX 30 36 24 37 25 38
REMARK H PARENT 6 14 35 19 17 23
ROOT
ATOM      1  C   UNL     1     -11.879 -43.955  27.921  1.00  0.00     0.025 C 
ENDROOT
BRANCH   1   2
ATOM      2  C   UNL     1     -13.105 -44.761  27.491  1.00  0.00     0.143 C 
BRANCH   2   3
ATOM      3  N   UNL     1     -13.712 -44.088  26.347  1.00  0.00    -0.281 NA
BRANCH   3   4
ATOM      4  C   UNL     1     -14.764 -43.367  26.523  1.00  0.00     0.109 C 
ATOM      5  C   UNL     1     -16.744 -42.686  27.726  1.00  0.00     0.142 C 
ATOM      6  C   UNL     1     -15.480 -43.107  27.793  1.00  0.00     0.080 C 
ATOM      7  C   UNL     1     -17.466 -42.549  26.473  1.00  0.00     0.095 A 
ATOM      8  N   UNL     1     -18.840 -42.467  26.535  1.00  0.00    -0.319 N 
ATOM      9  C   UNL     1     -16.847 -42.513  25.276  1.00  0.00     0.055 A 
ATOM     10  C   UNL     1     -15.361 -42.670  25.294  1.00  0.00     0.213 C 
ATOM     11  C   UNL     1     -19.655 -42.336  25.441  1.00  0.00     0.248 A 
ATOM     12  C   UNL     1     -17.628 -42.330  24.052  1.00  0.00    -0.032 A 
ATOM     13  C   UNL     1     -18.969 -42.240  24.132  1.00  0.00     0.075 A 
ATOM     14  H   UNL     1     -19.327 -42.615  27.411  1.00  0.00     0.170 HD
ATOM     15  O   UNL     1     -14.629 -42.248  24.411  1.00  0.00    -0.287 OA
ATOM     16  O   UNL     1     -20.875 -42.300  25.530  1.00  0.00    -0.270 OA
ATOM     17  C   UNL     1     -16.936 -42.260  22.720  1.00  0.00     0.045 C 
BRANCH   5  18
ATOM     18  O   UNL     1     -17.423 -42.357  28.881  1.00  0.00    -0.506 OA
ATOM     19  H   UNL     1     -17.144 -42.978  29.579  1.00  0.00     0.293 HD
ENDBRANCH   5  18
ENDBRANCH   3   4
ENDBRANCH   2   3
ENDBRANCH   1   2
BRANCH   1  20
ATOM     20  C   UNL     1     -11.048 -44.652  29.004  1.00  0.00     0.023 C 
BRANCH  20  21
ATOM     21  C   UNL     1     -11.631 -45.978  29.499  1.00  0.00     0.113 C 
BRANCH  21  22
ATOM     22  N   UNL     1     -11.162 -46.252  30.863  1.00  0.00    -0.384 N 
ATOM     23  H   UNL     1     -11.832 -46.839  31.358  1.00  0.00     0.160 HD
BRANCH  22  24
ATOM     24  C   UNL     1     -10.944 -45.053  31.603  1.00  0.00     0.049 A 
ATOM     25  C   UNL     1     -12.067 -44.325  32.045  1.00  0.00    -0.003 A 
ATOM     26  C   UNL     1      -9.636 -44.621  31.960  1.00  0.00     0.024 A 
ATOM     27  C   UNL     1     -11.840 -43.177  32.803  1.00  0.00     0.046 A 
ATOM     28  C   UNL     1     -13.464 -44.707  31.614  1.00  0.00     0.039 C 
ATOM     29  C   UNL     1      -8.439 -45.278  31.573  1.00  0.00     0.014 A 
ATOM     30  C   UNL     1      -9.535 -43.455  32.750  1.00  0.00     0.074 A 
ATOM     31  N   UNL     1     -10.602 -42.762  33.164  1.00  0.00    -0.252 NA
ATOM     32  C   UNL     1     -12.975 -42.336  33.326  1.00  0.00     0.056 C 
ATOM     33  C   UNL     1     -14.570 -44.018  32.411  1.00  0.00     0.005 C 
ATOM     34  C   UNL     1      -7.190 -44.795  31.963  1.00  0.00     0.021 A 
ATOM     35  C   UNL     1      -8.284 -42.992  33.128  1.00  0.00     0.049 A 
ATOM     36  C   UNL     1     -14.275 -42.533  32.556  1.00  0.00     0.007 C 
ATOM     37  C   UNL     1      -7.120 -43.651  32.741  1.00  0.00     0.043 A 
ATOM     38  Cl  UNL     1      -5.587 -43.043  33.232  1.00  0.00    -0.084 Cl
ENDBRANCH  22  24
ENDBRANCH  21  22
ENDBRANCH  20  21
ENDBRANCH   1  20
TORSDOF 8
ENDMDL
MODEL 9
REMARK VINA RESULT:   -10.568      3.495     10.635
REMARK INTER + INTRA:         -15.873
REMARK INTER:                 -15.164
REMARK INTRA:                  -0.709
REMARK UNBOUND:                -0.672
REMARK SMILES Cc1cc(=O)[nH]c2c1C(=O)C(=NCCCCNc1c3c(nc4cc(Cl)ccc14)CCCC3)C=C2O
REMARK SMILES IDX 14 1 13 2 12 3 11 4 34 5 33 6 7 7 6 8 8 9 9 10 4 11 2 12
REMARK SMILES IDX 3 13 10 15 5 16 1 17 35 18 15 20 16 21 17 22 18 24 19 25
REMARK SMILES IDX 28 26 20 27 32 28 27 29 22 30 21 31 29 32 31 33 26 34 23 35
REMARK SMILES IDX 30 36 24 37 25 38
REMARK H PARENT 6 14 35 19 17 23
ROOT
ATOM      1  C   UNL     1     -15.866 -43.219  25.256  1.00  0.00     0.025 C 
ENDROOT
BRANCH   1   2
ATOM      2  C   UNL     1     -14.467 -42.768  25.678  1.00  0.00     0.143 C 
BRANCH   2   3
ATOM      3  N   UNL     1     -13.828 -43.874  26.384  1.00  0.00    -0.281 NA
BRANCH   3   4
ATOM      4  C   UNL     1     -13.002 -43.621  27.339  1.00  0.00     0.109 C 
ATOM      5  C   UNL     1     -10.864 -42.930  28.226  1.00  0.00     0.142 C 
ATOM      6  C   UNL     1     -11.800 -42.756  27.291  1.00  0.00     0.080 C 
ATOM      7  C   UNL     1     -10.936 -43.975  29.232  1.00  0.00     0.095 A 
ATOM      8  N   UNL     1      -9.775 -44.297  29.899  1.00  0.00    -0.319 N 
ATOM      9  C   UNL     1     -12.077 -44.634  29.517  1.00  0.00     0.055 A 
ATOM     10  C   UNL     1     -13.275 -44.266  28.704  1.00  0.00     0.213 C 
ATOM     11  C   UNL     1      -9.686 -45.258  30.872  1.00  0.00     0.248 A 
ATOM     12  C   UNL     1     -12.093 -45.647  30.573  1.00  0.00    -0.032 A 
ATOM     13  C   UNL     1     -10.952 -45.942  31.223  1.00  0.00     0.075 A 
ATOM     14  H   UNL     1      -8.888 -43.900  29.613  1.00  0.00     0.170 HD
ATOM     15  O   UNL     1     -14.425 -44.425  29.089  1.00  0.00    -0.287 OA
ATOM     16  O   UNL     1      -8.630 -45.542  31.422  1.00  0.00    -0.270 OA
ATOM     17  C   UNL     1     -13.371 -46.362  30.912  1.00  0.00     0.045 C 
BRANCH   5  18
ATOM     18  O   UNL     1      -9.767 -42.094  28.265  1.00  0.00    -0.506 OA
ATOM     19  H   UNL     1      -9.044 -42.526  27.775  1.00  0.00     0.293 HD
ENDBRANCH   5  18
ENDBRANCH   3   4
ENDBRANCH   2   3
ENDBRANCH   1   2
BRANCH   1  20
ATOM     20  C   UNL     1     -16.063 -43.227  23.736  1.00  0.00     0.023 C 
BRANCH  20  21
ATOM     21  C   UNL     1     -16.926 -42.081  23.201  1.00  0.00     0.113 C 
BRANCH  21  22
ATOM     22  N   UNL     1     -18.113 -42.622  22.527  1.00  0.00    -0.384 N 
ATOM     23  H   UNL     1     -18.013 -42.549  21.516  1.00  0.00     0.160 HD
BRANCH  22  24
ATOM     24  C   UNL     1     -19.308 -41.960  22.935  1.00  0.00     0.049 A 
ATOM     25  C   UNL     1     -19.795 -40.907  22.135  1.00  0.00    -0.003 A 
ATOM     26  C   UNL     1     -20.045 -42.380  24.078  1.00  0.00     0.024 A 
ATOM     27  C   UNL     1     -20.987 -40.295  22.522  1.00  0.00     0.046 A 
ATOM     28  C   UNL     1     -18.997 -40.380  20.966  1.00  0.00     0.039 C 
ATOM     29  C   UNL     1     -19.649 -43.428  24.949  1.00  0.00     0.014 A 
ATOM     30  C   UNL     1     -21.248 -41.696  24.355  1.00  0.00     0.074 A 
ATOM     31  N   UNL     1     -21.707 -40.693  23.598  1.00  0.00    -0.252 NA
ATOM     32  C   UNL     1     -21.592 -39.166  21.729  1.00  0.00     0.056 C 
ATOM     33  C   UNL     1     -19.788 -39.463  20.035  1.00  0.00     0.005 C 
ATOM     34  C   UNL     1     -20.425 -43.784  26.050  1.00  0.00     0.021 A 
ATOM     35  C   UNL     1     -22.007 -42.068  25.455  1.00  0.00     0.049 A 
ATOM     36  C   UNL     1     -20.584 -38.447  20.839  1.00  0.00     0.007 C 
ATOM     37  C   UNL     1     -21.604 -43.100  26.298  1.00  0.00     0.043 A 
ATOM     38  Cl  UNL     1     -22.574 -43.529  27.652  1.00  0.00    -0.084 Cl
ENDBRANCH  22  24
ENDBRANCH  21  22
ENDBRANCH  20  21
ENDBRANCH   1  20
TORSDOF 8
ENDMDL
