MODEL 1
REMARK VINA RESULT:   -11.205      0.000      0.000
REMARK INTER + INTRA:         -17.167
REMARK INTER:                 -16.445
REMARK INTRA:                  -0.723
REMARK UNBOUND:                -0.723
REMARK SMILES COc1cc2c(cc1OC)S[C@H](C(=O)CCc1cc[n+](Cc3ccccc3)cc1)C2
REMARK SMILES IDX 15 1 13 2 14 3 12 4 3 5 4 6 8 7 5 8 7 9 6 10 30 11 11 12
REMARK SMILES IDX 2 13 1 14 9 15 10 16 16 17 17 18 18 19 29 20 19 21 28 22
REMARK SMILES IDX 20 23 21 24 22 25 23 26 27 27 24 28 26 29 25 30
REMARK H PARENT
ROOT
ATOM      1  C   UNL     1     -14.249 -43.740  26.118  1.00  0.00     0.081 C 
ENDROOT
BRANCH   1   2
ATOM      2  C   UNL     1     -14.906 -43.542  24.758  1.00  0.00     0.146 C 
ATOM      3  O   UNL     1     -14.603 -44.270  23.810  1.00  0.00    -0.298 OA
BRANCH   2   4
ATOM      4  C   UNL     1     -15.960 -42.450  24.637  1.00  0.00     0.123 C 
ATOM      5  C   UNL     1     -20.622 -41.267  25.045  1.00  0.00     0.161 A 
ATOM      6  C   UNL     1     -19.491 -41.685  25.757  1.00  0.00     0.055 A 
ATOM      7  C   UNL     1     -20.586 -41.204  23.631  1.00  0.00     0.161 A 
ATOM      8  C   UNL     1     -18.340 -42.039  25.057  1.00  0.00    -0.029 A 
ATOM      9  C   UNL     1     -19.429 -41.578  22.940  1.00  0.00     0.065 A 
ATOM     10  C   UNL     1     -18.323 -41.996  23.665  1.00  0.00     0.015 A 
ATOM     11  C   UNL     1     -17.082 -42.571  25.684  1.00  0.00     0.059 C 
ATOM     12  S   UNL     1     -16.784 -42.551  23.000  1.00  0.00    -0.114 SA
BRANCH   5  13
ATOM     13  O   UNL     1     -21.811 -40.903  25.628  1.00  0.00    -0.493 OA
ATOM     14  C   UNL     1     -21.860 -40.828  27.046  1.00  0.00     0.278 C 
ENDBRANCH   5  13
BRANCH   7  15
ATOM     15  O   UNL     1     -21.746 -40.806  23.013  1.00  0.00    -0.493 OA
ATOM     16  C   UNL     1     -21.694 -39.611  22.245  1.00  0.00     0.278 C 
ENDBRANCH   7  15
ENDBRANCH   2   4
ENDBRANCH   1   2
BRANCH   1  17
ATOM     17  C   UNL     1     -13.815 -45.193  26.335  1.00  0.00     0.044 C 
BRANCH  17  18
ATOM     18  C   UNL     1     -13.092 -45.399  27.649  1.00  0.00    -0.036 A 
ATOM     19  C   UNL     1     -13.615 -44.870  28.830  1.00  0.00     0.074 A 
ATOM     20  C   UNL     1     -11.935 -46.174  27.725  1.00  0.00     0.074 A 
ATOM     21  C   UNL     1     -13.001 -45.145  30.045  1.00  0.00     0.308 A 
ATOM     22  C   UNL     1     -11.355 -46.428  28.963  1.00  0.00     0.308 A 
ATOM     23  N   UNL     1     -11.897 -45.927  30.097  1.00  0.00    -0.201 N 
BRANCH  23  24
ATOM     24  C   UNL     1     -11.279 -46.230  31.412  1.00  0.00     0.393 C 
BRANCH  24  25
ATOM     25  C   UNL     1      -9.951 -45.535  31.577  1.00  0.00     0.017 A 
ATOM     26  C   UNL     1      -8.746 -46.197  31.291  1.00  0.00     0.010 A 
ATOM     27  C   UNL     1      -9.906 -44.200  32.008  1.00  0.00     0.010 A 
ATOM     28  C   UNL     1      -7.524 -45.541  31.455  1.00  0.00     0.001 A 
ATOM     29  C   UNL     1      -8.681 -43.550  32.169  1.00  0.00     0.001 A 
ATOM     30  C   UNL     1      -7.493 -44.221  31.896  1.00  0.00     0.000 A 
ENDBRANCH  24  25
ENDBRANCH  23  24
ENDBRANCH  17  18
ENDBRANCH   1  17
TORSDOF 8
ENDMDL
MODEL 2
REMARK VINA RESULT:   -10.796      0.950      1.942
REMARK INTER + INTRA:         -16.567
REMARK INTER:                 -15.900
REMARK INTRA:                  -0.667
REMARK UNBOUND:                -0.723
REMARK SMILES COc1cc2c(cc1OC)S[C@H](C(=O)CCc1cc[n+](Cc3ccccc3)cc1)C2
REMARK SMILES IDX 15 1 13 2 14 3 12 4 3 5 4 6 8 7 5 8 7 9 6 10 30 11 11 12
REMARK SMILES IDX 2 13 1 14 9 15 10 16 16 17 17 18 18 19 29 20 19 21 28 22
REMARK SMILES IDX 20 23 21 24 22 25 23 26 27 27 24 28 26 29 25 30
REMARK H PARENT
ROOT
ATOM      1  C   UNL     1     -14.534 -43.272  26.177  1.00  0.00     0.081 C 
ENDROOT
BRANCH   1   2
ATOM      2  C   UNL     1     -15.025 -42.940  24.773  1.00  0.00     0.146 C 
ATOM      3  O   UNL     1     -14.221 -42.617  23.894  1.00  0.00    -0.298 OA
BRANCH   2   4
ATOM      4  C   UNL     1     -16.518 -43.061  24.500  1.00  0.00     0.123 C 
ATOM      5  C   UNL     1     -20.572 -40.834  23.119  1.00  0.00     0.161 A 
ATOM      6  C   UNL     1     -19.299 -41.239  22.698  1.00  0.00     0.055 A 
ATOM      7  C   UNL     1     -20.944 -40.971  24.478  1.00  0.00     0.161 A 
ATOM      8  C   UNL     1     -18.411 -41.770  23.630  1.00  0.00    -0.029 A 
ATOM      9  C   UNL     1     -20.037 -41.491  25.407  1.00  0.00     0.065 A 
ATOM     10  C   UNL     1     -18.780 -41.878  24.968  1.00  0.00     0.015 A 
ATOM     11  C   UNL     1     -16.995 -42.178  23.334  1.00  0.00     0.059 C 
ATOM     12  S   UNL     1     -17.472 -42.515  25.970  1.00  0.00    -0.114 SA
BRANCH   5  13
ATOM     13  O   UNL     1     -21.523 -40.290  22.292  1.00  0.00    -0.493 OA
ATOM     14  C   UNL     1     -21.209 -39.072  21.629  1.00  0.00     0.278 C 
ENDBRANCH   5  13
BRANCH   7  15
ATOM     15  O   UNL     1     -22.201 -40.527  24.809  1.00  0.00    -0.493 OA
ATOM     16  C   UNL     1     -22.904 -41.258  25.805  1.00  0.00     0.278 C 
ENDBRANCH   7  15
ENDBRANCH   2   4
ENDBRANCH   1   2
BRANCH   1  17
ATOM     17  C   UNL     1     -14.195 -44.758  26.326  1.00  0.00     0.044 C 
BRANCH  17  18
ATOM     18  C   UNL     1     -13.501 -45.073  27.634  1.00  0.00    -0.036 A 
ATOM     19  C   UNL     1     -14.034 -44.615  28.840  1.00  0.00     0.074 A 
ATOM     20  C   UNL     1     -12.364 -45.878  27.674  1.00  0.00     0.074 A 
ATOM     21  C   UNL     1     -13.448 -44.989  30.043  1.00  0.00     0.308 A 
ATOM     22  C   UNL     1     -11.812 -46.231  28.901  1.00  0.00     0.308 A 
ATOM     23  N   UNL     1     -12.363 -45.799  30.058  1.00  0.00    -0.201 N 
BRANCH  23  24
ATOM     24  C   UNL     1     -11.776 -46.208  31.359  1.00  0.00     0.393 C 
BRANCH  24  25
ATOM     25  C   UNL     1     -10.344 -45.756  31.490  1.00  0.00     0.017 A 
ATOM     26  C   UNL     1      -9.280 -46.617  31.175  1.00  0.00     0.010 A 
ATOM     27  C   UNL     1     -10.055 -44.450  31.917  1.00  0.00     0.010 A 
ATOM     28  C   UNL     1      -7.959 -46.186  31.308  1.00  0.00     0.001 A 
ATOM     29  C   UNL     1      -8.732 -44.025  32.046  1.00  0.00     0.001 A 
ATOM     30  C   UNL     1      -7.687 -44.893  31.746  1.00  0.00     0.000 A 
ENDBRANCH  24  25
ENDBRANCH  23  24
ENDBRANCH  17  18
ENDBRANCH   1  17
TORSDOF 8
ENDMDL
MODEL 3
REMARK VINA RESULT:   -10.040      4.168     10.969
REMARK INTER + INTRA:         -15.458
REMARK INTER:                 -14.591
REMARK INTRA:                  -0.867
REMARK UNBOUND:                -0.723
REMARK SMILES COc1cc2c(cc1OC)S[C@H](C(=O)CCc1cc[n+](Cc3ccccc3)cc1)C2
REMARK SMILES IDX 15 1 13 2 14 3 12 4 3 5 4 6 8 7 5 8 7 9 6 10 30 11 11 12
REMARK SMILES IDX 2 13 1 14 9 15 10 16 16 17 17 18 18 19 29 20 19 21 28 22
REMARK SMILES IDX 20 23 21 24 22 25 23 26 27 27 24 28 26 29 25 30
REMARK H PARENT
ROOT
ATOM      1  C   UNL     1     -13.909 -44.966  26.334  1.00  0.00     0.081 C 
ENDROOT
BRANCH   1   2
ATOM      2  C   UNL     1     -12.898 -45.431  27.373  1.00  0.00     0.146 C 
ATOM      3  O   UNL     1     -12.534 -46.610  27.403  1.00  0.00    -0.298 OA
BRANCH   2   4
ATOM      4  C   UNL     1     -12.337 -44.387  28.329  1.00  0.00     0.123 C 
ATOM      5  C   UNL     1      -9.069 -43.356  31.729  1.00  0.00     0.161 A 
ATOM      6  C   UNL     1      -9.236 -43.695  30.381  1.00  0.00     0.055 A 
ATOM      7  C   UNL     1     -10.182 -43.365  32.604  1.00  0.00     0.161 A 
ATOM      8  C   UNL     1     -10.503 -44.042  29.918  1.00  0.00    -0.029 A 
ATOM      9  C   UNL     1     -11.446 -43.732  32.130  1.00  0.00     0.065 A 
ATOM     10  C   UNL     1     -11.586 -44.071  30.793  1.00  0.00     0.015 A 
ATOM     11  C   UNL     1     -10.813 -44.495  28.519  1.00  0.00     0.059 C 
ATOM     12  S   UNL     1     -13.070 -44.603  29.997  1.00  0.00    -0.114 SA
BRANCH   5  13
ATOM     13  O   UNL     1      -7.868 -43.006  32.296  1.00  0.00    -0.493 OA
ATOM     14  C   UNL     1      -6.937 -44.044  32.570  1.00  0.00     0.278 C 
ENDBRANCH   5  13
BRANCH   7  15
ATOM     15  O   UNL     1      -9.926 -43.043  33.914  1.00  0.00    -0.493 OA
ATOM     16  C   UNL     1     -10.520 -41.853  34.417  1.00  0.00     0.278 C 
ENDBRANCH   7  15
ENDBRANCH   2   4
ENDBRANCH   1   2
BRANCH   1  17
ATOM     17  C   UNL     1     -14.043 -43.441  26.310  1.00  0.00     0.044 C 
BRANCH  17  18
ATOM     18  C   UNL     1     -15.484 -42.979  26.278  1.00  0.00    -0.036 A 
ATOM     19  C   UNL     1     -16.154 -42.851  25.060  1.00  0.00     0.074 A 
ATOM     20  C   UNL     1     -16.194 -42.740  27.453  1.00  0.00     0.074 A 
ATOM     21  C   UNL     1     -17.503 -42.522  25.042  1.00  0.00     0.308 A 
ATOM     22  C   UNL     1     -17.545 -42.416  27.389  1.00  0.00     0.308 A 
ATOM     23  N   UNL     1     -18.180 -42.326  26.198  1.00  0.00    -0.201 N 
BRANCH  23  24
ATOM     24  C   UNL     1     -19.629 -42.006  26.150  1.00  0.00     0.393 C 
BRANCH  24  25
ATOM     25  C   UNL     1     -20.477 -43.249  26.233  1.00  0.00     0.017 A 
ATOM     26  C   UNL     1     -20.839 -43.799  27.474  1.00  0.00     0.010 A 
ATOM     27  C   UNL     1     -20.934 -43.868  25.058  1.00  0.00     0.010 A 
ATOM     28  C   UNL     1     -21.621 -44.954  27.533  1.00  0.00     0.001 A 
ATOM     29  C   UNL     1     -21.715 -45.022  25.125  1.00  0.00     0.001 A 
ATOM     30  C   UNL     1     -22.055 -45.566  26.360  1.00  0.00     0.000 A 
ENDBRANCH  24  25
ENDBRANCH  23  24
ENDBRANCH  17  18
ENDBRANCH   1  17
TORSDOF 8
ENDMDL
MODEL 4
REMARK VINA RESULT:    -9.729      4.085     11.204
REMARK INTER + INTRA:         -15.001
REMARK INTER:                 -14.614
REMARK INTRA:                  -0.387
REMARK UNBOUND:                -0.723
REMARK SMILES COc1cc2c(cc1OC)S[C@H](C(=O)CCc1cc[n+](Cc3ccccc3)cc1)C2
REMARK SMILES IDX 15 1 13 2 14 3 12 4 3 5 4 6 8 7 5 8 7 9 6 10 30 11 11 12
REMARK SMILES IDX 2 13 1 14 9 15 10 16 16 17 17 18 18 19 29 20 19 21 28 22
REMARK SMILES IDX 20 23 21 24 22 25 23 26 27 27 24 28 26 29 25 30
REMARK H PARENT
ROOT
ATOM      1  C   UNL     1     -13.166 -44.820  27.369  1.00  0.00     0.081 C 
ENDROOT
BRANCH   1   2
ATOM      2  C   UNL     1     -13.537 -44.809  28.846  1.00  0.00     0.146 C 
ATOM      3  O   UNL     1     -14.711 -44.651  29.191  1.00  0.00    -0.298 OA
BRANCH   2   4
ATOM      4  C   UNL     1     -12.420 -45.039  29.855  1.00  0.00     0.123 C 
ATOM      5  C   UNL     1      -9.385 -43.065  33.048  1.00  0.00     0.161 A 
ATOM      6  C   UNL     1     -10.735 -43.309  32.766  1.00  0.00     0.055 A 
ATOM      7  C   UNL     1      -8.394 -43.369  32.083  1.00  0.00     0.161 A 
ATOM      8  C   UNL     1     -11.085 -43.847  31.530  1.00  0.00    -0.029 A 
ATOM      9  C   UNL     1      -8.761 -43.893  30.840  1.00  0.00     0.065 A 
ATOM     10  C   UNL     1     -10.104 -44.119  30.579  1.00  0.00     0.015 A 
ATOM     11  C   UNL     1     -12.493 -44.092  31.067  1.00  0.00     0.059 C 
ATOM     12  S   UNL     1     -10.790 -44.730  29.071  1.00  0.00    -0.114 SA
BRANCH   5  13
ATOM     13  O   UNL     1      -8.925 -42.531  34.227  1.00  0.00    -0.493 OA
ATOM     14  C   UNL     1      -9.878 -41.954  35.110  1.00  0.00     0.278 C 
ENDBRANCH   5  13
BRANCH   7  15
ATOM     15  O   UNL     1      -7.098 -43.076  32.433  1.00  0.00    -0.493 OA
ATOM     16  C   UNL     1      -6.307 -44.144  32.936  1.00  0.00     0.278 C 
ENDBRANCH   7  15
ENDBRANCH   2   4
ENDBRANCH   1   2
BRANCH   1  17
ATOM     17  C   UNL     1     -13.336 -43.440  26.728  1.00  0.00     0.044 C 
BRANCH  17  18
ATOM     18  C   UNL     1     -14.668 -43.277  26.028  1.00  0.00    -0.036 A 
ATOM     19  C   UNL     1     -15.779 -42.812  26.731  1.00  0.00     0.074 A 
ATOM     20  C   UNL     1     -14.801 -43.518  24.661  1.00  0.00     0.074 A 
ATOM     21  C   UNL     1     -16.973 -42.572  26.063  1.00  0.00     0.308 A 
ATOM     22  C   UNL     1     -16.014 -43.260  24.031  1.00  0.00     0.308 A 
ATOM     23  N   UNL     1     -17.069 -42.782  24.729  1.00  0.00    -0.201 N 
BRANCH  23  24
ATOM     24  C   UNL     1     -18.348 -42.488  24.034  1.00  0.00     0.393 C 
BRANCH  24  25
ATOM     25  C   UNL     1     -19.519 -42.522  24.983  1.00  0.00     0.017 A 
ATOM     26  C   UNL     1     -19.979 -41.352  25.609  1.00  0.00     0.010 A 
ATOM     27  C   UNL     1     -20.179 -43.734  25.240  1.00  0.00     0.010 A 
ATOM     28  C   UNL     1     -21.060 -41.402  26.491  1.00  0.00     0.001 A 
ATOM     29  C   UNL     1     -21.261 -43.776  26.121  1.00  0.00     0.001 A 
ATOM     30  C   UNL     1     -21.698 -42.613  26.748  1.00  0.00     0.000 A 
ENDBRANCH  24  25
ENDBRANCH  23  24
ENDBRANCH  17  18
ENDBRANCH   1  17
TORSDOF 8
ENDMDL
MODEL 5
REMARK VINA RESULT:    -9.293      3.554      6.069
REMARK INTER + INTRA:         -14.361
REMARK INTER:                 -13.665
REMARK INTRA:                  -0.696
REMARK UNBOUND:                -0.723
REMARK SMILES COc1cc2c(cc1OC)S[C@H](C(=O)CCc1cc[n+](Cc3ccccc3)cc1)C2
REMARK SMILES IDX 15 1 13 2 14 3 12 4 3 5 4 6 8 7 5 8 7 9 6 10 30 11 11 12
REMARK SMILES IDX 2 13 1 14 9 15 10 16 16 17 17 18 18 19 29 20 19 21 28 22
REMARK SMILES IDX 20 23 21 24 22 25 23 26 27 27 24 28 26 29 25 30
REMARK H PARENT
ROOT
ATOM      1  C   UNL     1     -20.622 -43.013  26.851  1.00  0.00     0.081 C 
ENDROOT
BRANCH   1   2
ATOM      2  C   UNL     1     -21.961 -42.345  26.566  1.00  0.00     0.146 C 
ATOM      3  O   UNL     1     -22.739 -42.094  27.489  1.00  0.00    -0.298 OA
BRANCH   2   4
ATOM      4  C   UNL     1     -22.271 -41.974  25.122  1.00  0.00     0.123 C 
ATOM      5  C   UNL     1     -21.543 -38.867  21.500  1.00  0.00     0.161 A 
ATOM      6  C   UNL     1     -20.923 -39.813  22.326  1.00  0.00     0.055 A 
ATOM      7  C   UNL     1     -22.883 -38.481  21.747  1.00  0.00     0.161 A 
ATOM      8  C   UNL     1     -21.638 -40.361  23.387  1.00  0.00    -0.029 A 
ATOM      9  C   UNL     1     -23.584 -39.028  22.827  1.00  0.00     0.065 A 
ATOM     10  C   UNL     1     -22.948 -39.957  23.636  1.00  0.00     0.015 A 
ATOM     11  C   UNL     1     -21.079 -41.329  24.392  1.00  0.00     0.059 C 
ATOM     12  S   UNL     1     -23.625 -40.736  25.068  1.00  0.00    -0.114 SA
BRANCH   5  13
ATOM     13  O   UNL     1     -20.934 -38.255  20.432  1.00  0.00    -0.493 OA
ATOM     14  C   UNL     1     -20.222 -39.075  19.515  1.00  0.00     0.278 C 
ENDBRANCH   5  13
BRANCH   7  15
ATOM     15  O   UNL     1     -23.405 -37.531  20.904  1.00  0.00    -0.493 OA
ATOM     16  C   UNL     1     -24.408 -37.957  19.991  1.00  0.00     0.278 C 
ENDBRANCH   7  15
ENDBRANCH   2   4
ENDBRANCH   1   2
BRANCH   1  17
ATOM     17  C   UNL     1     -19.572 -42.005  27.328  1.00  0.00     0.044 C 
BRANCH  17  18
ATOM     18  C   UNL     1     -18.171 -42.359  26.877  1.00  0.00    -0.036 A 
ATOM     19  C   UNL     1     -17.882 -42.486  25.518  1.00  0.00     0.074 A 
ATOM     20  C   UNL     1     -17.129 -42.495  27.792  1.00  0.00     0.074 A 
ATOM     21  C   UNL     1     -16.575 -42.714  25.105  1.00  0.00     0.308 A 
ATOM     22  C   UNL     1     -15.834 -42.719  27.335  1.00  0.00     0.308 A 
ATOM     23  N   UNL     1     -15.574 -42.810  26.011  1.00  0.00    -0.201 N 
BRANCH  23  24
ATOM     24  C   UNL     1     -14.182 -43.023  25.541  1.00  0.00     0.393 C 
BRANCH  24  25
ATOM     25  C   UNL     1     -13.397 -43.886  26.496  1.00  0.00     0.017 A 
ATOM     26  C   UNL     1     -12.415 -43.333  27.334  1.00  0.00     0.010 A 
ATOM     27  C   UNL     1     -13.653 -45.265  26.570  1.00  0.00     0.010 A 
ATOM     28  C   UNL     1     -11.693 -44.147  28.208  1.00  0.00     0.001 A 
ATOM     29  C   UNL     1     -12.928 -46.073  27.447  1.00  0.00     0.001 A 
ATOM     30  C   UNL     1     -11.947 -45.515  28.261  1.00  0.00     0.000 A 
ENDBRANCH  24  25
ENDBRANCH  23  24
ENDBRANCH  17  18
ENDBRANCH   1  17
TORSDOF 8
ENDMDL
MODEL 6
REMARK VINA RESULT:    -9.215      1.899      2.802
REMARK INTER + INTRA:         -14.247
REMARK INTER:                 -13.701
REMARK INTRA:                  -0.546
REMARK UNBOUND:                -0.723
REMARK SMILES COc1cc2c(cc1OC)S[C@H](C(=O)CCc1cc[n+](Cc3ccccc3)cc1)C2
REMARK SMILES IDX 15 1 13 2 14 3 12 4 3 5 4 6 8 7 5 8 7 9 6 10 30 11 11 12
REMARK SMILES IDX 2 13 1 14 9 15 10 16 16 17 17 18 18 19 29 20 19 21 28 22
REMARK SMILES IDX 20 23 21 24 22 25 23 26 27 27 24 28 26 29 25 30
REMARK H PARENT
ROOT
ATOM      1  C   UNL     1     -14.963 -43.749  25.988  1.00  0.00     0.081 C 
ENDROOT
BRANCH   1   2
ATOM      2  C   UNL     1     -15.401 -43.393  24.573  1.00  0.00     0.146 C 
ATOM      3  O   UNL     1     -14.949 -44.015  23.608  1.00  0.00    -0.298 OA
BRANCH   2   4
ATOM      4  C   UNL     1     -16.433 -42.285  24.411  1.00  0.00     0.123 C 
ATOM      5  C   UNL     1     -20.929 -41.102  23.112  1.00  0.00     0.161 A 
ATOM      6  C   UNL     1     -20.168 -41.826  24.039  1.00  0.00     0.055 A 
ATOM      7  C   UNL     1     -20.298 -40.495  21.999  1.00  0.00     0.161 A 
ATOM      8  C   UNL     1     -18.794 -41.941  23.849  1.00  0.00    -0.029 A 
ATOM      9  C   UNL     1     -18.919 -40.633  21.811  1.00  0.00     0.065 A 
ATOM     10  C   UNL     1     -18.188 -41.360  22.738  1.00  0.00     0.015 A 
ATOM     11  C   UNL     1     -17.869 -42.743  24.721  1.00  0.00     0.059 C 
ATOM     12  S   UNL     1     -16.455 -41.695  22.674  1.00  0.00    -0.114 SA
BRANCH   5  13
ATOM     13  O   UNL     1     -22.289 -40.930  23.194  1.00  0.00    -0.493 OA
ATOM     14  C   UNL     1     -23.120 -41.958  22.671  1.00  0.00     0.278 C 
ENDBRANCH   5  13
BRANCH   7  15
ATOM     15  O   UNL     1     -21.121 -39.826  21.127  1.00  0.00    -0.493 OA
ATOM     16  C   UNL     1     -20.519 -38.847  20.290  1.00  0.00     0.278 C 
ENDBRANCH   7  15
ENDBRANCH   2   4
ENDBRANCH   1   2
BRANCH   1  17
ATOM     17  C   UNL     1     -13.791 -44.734  25.991  1.00  0.00     0.044 C 
BRANCH  17  18
ATOM     18  C   UNL     1     -13.109 -44.830  27.340  1.00  0.00    -0.036 A 
ATOM     19  C   UNL     1     -12.205 -43.847  27.742  1.00  0.00     0.074 A 
ATOM     20  C   UNL     1     -13.417 -45.854  28.234  1.00  0.00     0.074 A 
ATOM     21  C   UNL     1     -11.658 -43.887  29.018  1.00  0.00     0.308 A 
ATOM     22  C   UNL     1     -12.849 -45.853  29.504  1.00  0.00     0.308 A 
ATOM     23  N   UNL     1     -11.997 -44.873  29.881  1.00  0.00    -0.201 N 
BRANCH  23  24
ATOM     24  C   UNL     1     -11.421 -44.875  31.250  1.00  0.00     0.393 C 
BRANCH  24  25
ATOM     25  C   UNL     1     -12.179 -43.958  32.175  1.00  0.00     0.017 A 
ATOM     26  C   UNL     1     -11.515 -42.979  32.931  1.00  0.00     0.010 A 
ATOM     27  C   UNL     1     -13.576 -44.064  32.280  1.00  0.00     0.010 A 
ATOM     28  C   UNL     1     -12.231 -42.142  33.788  1.00  0.00     0.001 A 
ATOM     29  C   UNL     1     -14.286 -43.223  33.138  1.00  0.00     0.001 A 
ATOM     30  C   UNL     1     -13.614 -42.267  33.893  1.00  0.00     0.000 A 
ENDBRANCH  24  25
ENDBRANCH  23  24
ENDBRANCH  17  18
ENDBRANCH   1  17
TORSDOF 8
ENDMDL
MODEL 7
REMARK VINA RESULT:    -9.145      2.920      5.114
REMARK INTER + INTRA:         -14.144
REMARK INTER:                 -13.658
REMARK INTRA:                  -0.486
REMARK UNBOUND:                -0.723
REMARK SMILES COc1cc2c(cc1OC)S[C@H](C(=O)CCc1cc[n+](Cc3ccccc3)cc1)C2
REMARK SMILES IDX 15 1 13 2 14 3 12 4 3 5 4 6 8 7 5 8 7 9 6 10 30 11 11 12
REMARK SMILES IDX 2 13 1 14 9 15 10 16 16 17 17 18 18 19 29 20 19 21 28 22
REMARK SMILES IDX 20 23 21 24 22 25 23 26 27 27 24 28 26 29 25 30
REMARK H PARENT
ROOT
ATOM      1  C   UNL     1     -18.257 -41.998  24.568  1.00  0.00     0.081 C 
ENDROOT
BRANCH   1   2
ATOM      2  C   UNL     1     -19.458 -42.379  23.712  1.00  0.00     0.146 C 
ATOM      3  O   UNL     1     -20.317 -43.148  24.153  1.00  0.00    -0.298 OA
BRANCH   2   4
ATOM      4  C   UNL     1     -19.568 -41.750  22.330  1.00  0.00     0.123 C 
ATOM      5  C   UNL     1     -21.737 -38.455  19.547  1.00  0.00     0.161 A 
ATOM      6  C   UNL     1     -20.901 -38.631  20.658  1.00  0.00     0.055 A 
ATOM      7  C   UNL     1     -22.350 -39.577  18.938  1.00  0.00     0.161 A 
ATOM      8  C   UNL     1     -20.687 -39.915  21.151  1.00  0.00    -0.029 A 
ATOM      9  C   UNL     1     -22.139 -40.860  19.455  1.00  0.00     0.065 A 
ATOM     10  C   UNL     1     -21.314 -41.009  20.559  1.00  0.00     0.015 A 
ATOM     11  C   UNL     1     -19.876 -40.242  22.373  1.00  0.00     0.059 C 
ATOM     12  S   UNL     1     -20.947 -42.520  21.396  1.00  0.00    -0.114 SA
BRANCH   5  13
ATOM     13  O   UNL     1     -22.026 -37.238  18.981  1.00  0.00    -0.493 OA
ATOM     14  C   UNL     1     -23.040 -36.449  19.588  1.00  0.00     0.278 C 
ENDBRANCH   5  13
BRANCH   7  15
ATOM     15  O   UNL     1     -23.172 -39.313  17.871  1.00  0.00    -0.493 OA
ATOM     16  C   UNL     1     -23.965 -40.388  17.383  1.00  0.00     0.278 C 
ENDBRANCH   7  15
ENDBRANCH   2   4
ENDBRANCH   1   2
BRANCH   1  17
ATOM     17  C   UNL     1     -16.942 -42.496  23.960  1.00  0.00     0.044 C 
BRANCH  17  18
ATOM     18  C   UNL     1     -15.995 -43.064  24.996  1.00  0.00    -0.036 A 
ATOM     19  C   UNL     1     -16.184 -42.783  26.350  1.00  0.00     0.074 A 
ATOM     20  C   UNL     1     -14.964 -43.930  24.636  1.00  0.00     0.074 A 
ATOM     21  C   UNL     1     -15.372 -43.385  27.303  1.00  0.00     0.308 A 
ATOM     22  C   UNL     1     -14.177 -44.514  25.623  1.00  0.00     0.308 A 
ATOM     23  N   UNL     1     -14.398 -44.249  26.931  1.00  0.00    -0.201 N 
BRANCH  23  24
ATOM     24  C   UNL     1     -13.565 -44.902  27.972  1.00  0.00     0.393 C 
BRANCH  24  25
ATOM     25  C   UNL     1     -12.193 -44.285  28.056  1.00  0.00     0.017 A 
ATOM     26  C   UNL     1     -11.102 -45.007  28.567  1.00  0.00     0.010 A 
ATOM     27  C   UNL     1     -11.984 -42.971  27.604  1.00  0.00     0.010 A 
ATOM     28  C   UNL     1      -9.839 -44.419  28.644  1.00  0.00     0.001 A 
ATOM     29  C   UNL     1     -10.718 -42.390  27.683  1.00  0.00     0.001 A 
ATOM     30  C   UNL     1      -9.648 -43.111  28.205  1.00  0.00     0.000 A 
ENDBRANCH  24  25
ENDBRANCH  23  24
ENDBRANCH  17  18
ENDBRANCH   1  17
TORSDOF 8
ENDMDL
MODEL 8
REMARK VINA RESULT:    -9.144      2.765      4.334
REMARK INTER + INTRA:         -14.143
REMARK INTER:                 -12.967
REMARK INTRA:                  -1.176
REMARK UNBOUND:                -0.723
REMARK SMILES COc1cc2c(cc1OC)S[C@H](C(=O)CCc1cc[n+](Cc3ccccc3)cc1)C2
REMARK SMILES IDX 15 1 13 2 14 3 12 4 3 5 4 6 8 7 5 8 7 9 6 10 30 11 11 12
REMARK SMILES IDX 2 13 1 14 9 15 10 16 16 17 17 18 18 19 29 20 19 21 28 22
REMARK SMILES IDX 20 23 21 24 22 25 23 26 27 27 24 28 26 29 25 30
REMARK H PARENT
ROOT
ATOM      1  C   UNL     1     -16.860 -42.636  22.949  1.00  0.00     0.081 C 
ENDROOT
BRANCH   1   2
ATOM      2  C   UNL     1     -17.912 -41.538  22.850  1.00  0.00     0.146 C 
ATOM      3  O   UNL     1     -17.749 -40.590  22.076  1.00  0.00    -0.298 OA
BRANCH   2   4
ATOM      4  C   UNL     1     -19.165 -41.683  23.701  1.00  0.00     0.123 C 
ATOM      5  C   UNL     1     -22.007 -44.640  26.247  1.00  0.00     0.161 A 
ATOM      6  C   UNL     1     -20.730 -44.068  26.185  1.00  0.00     0.055 A 
ATOM      7  C   UNL     1     -22.916 -44.460  25.177  1.00  0.00     0.161 A 
ATOM      8  C   UNL     1     -20.371 -43.328  25.061  1.00  0.00    -0.029 A 
ATOM      9  C   UNL     1     -22.536 -43.729  24.047  1.00  0.00     0.065 A 
ATOM     10  C   UNL     1     -21.265 -43.178  24.004  1.00  0.00     0.015 A 
ATOM     11  C   UNL     1     -19.016 -42.720  24.829  1.00  0.00     0.059 C 
ATOM     12  S   UNL     1     -20.566 -42.260  22.666  1.00  0.00    -0.114 SA
BRANCH   5  13
ATOM     13  O   UNL     1     -22.466 -45.394  27.299  1.00  0.00    -0.493 OA
ATOM     14  C   UNL     1     -22.518 -44.783  28.581  1.00  0.00     0.278 C 
ENDBRANCH   5  13
BRANCH   7  15
ATOM     15  O   UNL     1     -24.137 -45.076  25.309  1.00  0.00    -0.493 OA
ATOM     16  C   UNL     1     -25.286 -44.239  25.320  1.00  0.00     0.278 C 
ENDBRANCH   7  15
ENDBRANCH   2   4
ENDBRANCH   1   2
BRANCH   1  17
ATOM     17  C   UNL     1     -15.584 -42.142  23.638  1.00  0.00     0.044 C 
BRANCH  17  18
ATOM     18  C   UNL     1     -15.252 -42.927  24.889  1.00  0.00    -0.036 A 
ATOM     19  C   UNL     1     -14.535 -44.121  24.800  1.00  0.00     0.074 A 
ATOM     20  C   UNL     1     -15.587 -42.448  26.154  1.00  0.00     0.074 A 
ATOM     21  C   UNL     1     -14.148 -44.786  25.957  1.00  0.00     0.308 A 
ATOM     22  C   UNL     1     -15.176 -43.143  27.286  1.00  0.00     0.308 A 
ATOM     23  N   UNL     1     -14.457 -44.284  27.175  1.00  0.00    -0.201 N 
BRANCH  23  24
ATOM     24  C   UNL     1     -14.005 -44.998  28.395  1.00  0.00     0.393 C 
BRANCH  24  25
ATOM     25  C   UNL     1     -12.501 -45.057  28.482  1.00  0.00     0.017 A 
ATOM     26  C   UNL     1     -11.727 -43.885  28.454  1.00  0.00     0.010 A 
ATOM     27  C   UNL     1     -11.852 -46.295  28.608  1.00  0.00     0.010 A 
ATOM     28  C   UNL     1     -10.335 -43.957  28.529  1.00  0.00     0.001 A 
ATOM     29  C   UNL     1     -10.460 -46.360  28.683  1.00  0.00     0.001 A 
ATOM     30  C   UNL     1      -9.703 -45.193  28.640  1.00  0.00     0.000 A 
ENDBRANCH  24  25
ENDBRANCH  23  24
ENDBRANCH  17  18
ENDBRANCH   1  17
TORSDOF 8
ENDMDL
MODEL 9
REMARK VINA RESULT:    -9.016      2.083      3.737
REMARK INTER + INTRA:         -13.955
REMARK INTER:                 -13.220
REMARK INTRA:                  -0.735
REMARK UNBOUND:                -0.723
REMARK SMILES COc1cc2c(cc1OC)S[C@H](C(=O)CCc1cc[n+](Cc3ccccc3)cc1)C2
REMARK SMILES IDX 15 1 13 2 14 3 12 4 3 5 4 6 8 7 5 8 7 9 6 10 30 11 11 12
REMARK SMILES IDX 2 13 1 14 9 15 10 16 16 17 17 18 18 19 29 20 19 21 28 22
REMARK SMILES IDX 20 23 21 24 22 25 23 26 27 27 24 28 26 29 25 30
REMARK H PARENT
ROOT
ATOM      1  C   UNL     1     -16.663 -43.114  24.650  1.00  0.00     0.081 C 
ENDROOT
BRANCH   1   2
ATOM      2  C   UNL     1     -17.999 -42.595  25.166  1.00  0.00     0.146 C 
ATOM      3  O   UNL     1     -18.166 -42.403  26.373  1.00  0.00    -0.298 OA
BRANCH   2   4
ATOM      4  C   UNL     1     -19.082 -42.293  24.140  1.00  0.00     0.123 C 
ATOM      5  C   UNL     1     -21.071 -39.018  21.204  1.00  0.00     0.161 A 
ATOM      6  C   UNL     1     -19.913 -39.765  21.453  1.00  0.00     0.055 A 
ATOM      7  C   UNL     1     -22.142 -39.043  22.130  1.00  0.00     0.161 A 
ATOM      8  C   UNL     1     -19.830 -40.523  22.618  1.00  0.00    -0.029 A 
ATOM      9  C   UNL     1     -22.038 -39.796  23.305  1.00  0.00     0.065 A 
ATOM     10  C   UNL     1     -20.879 -40.521  23.533  1.00  0.00     0.015 A 
ATOM     11  C   UNL     1     -18.624 -41.313  23.045  1.00  0.00     0.059 C 
ATOM     12  S   UNL     1     -20.520 -41.499  24.959  1.00  0.00    -0.114 SA
BRANCH   5  13
ATOM     13  O   UNL     1     -21.260 -38.230  20.096  1.00  0.00    -0.493 OA
ATOM     14  C   UNL     1     -21.617 -38.871  18.878  1.00  0.00     0.278 C 
ENDBRANCH   5  13
BRANCH   7  15
ATOM     15  O   UNL     1     -23.229 -38.263  21.820  1.00  0.00    -0.493 OA
ATOM     16  C   UNL     1     -24.415 -38.936  21.417  1.00  0.00     0.278 C 
ENDBRANCH   7  15
ENDBRANCH   2   4
ENDBRANCH   1   2
BRANCH   1  17
ATOM     17  C   UNL     1     -15.484 -42.554  25.453  1.00  0.00     0.044 C 
BRANCH  17  18
ATOM     18  C   UNL     1     -14.905 -43.561  26.423  1.00  0.00    -0.036 A 
ATOM     19  C   UNL     1     -14.068 -44.579  25.964  1.00  0.00     0.074 A 
ATOM     20  C   UNL     1     -15.132 -43.458  27.794  1.00  0.00     0.074 A 
ATOM     21  C   UNL     1     -13.461 -45.440  26.869  1.00  0.00     0.308 A 
ATOM     22  C   UNL     1     -14.500 -44.339  28.666  1.00  0.00     0.308 A 
ATOM     23  N   UNL     1     -13.670 -45.300  28.199  1.00  0.00    -0.201 N 
BRANCH  23  24
ATOM     24  C   UNL     1     -12.985 -46.214  29.146  1.00  0.00     0.393 C 
BRANCH  24  25
ATOM     25  C   UNL     1     -11.766 -45.571  29.758  1.00  0.00     0.017 A 
ATOM     26  C   UNL     1     -10.841 -44.871  28.966  1.00  0.00     0.010 A 
ATOM     27  C   UNL     1     -11.549 -45.653  31.143  1.00  0.00     0.010 A 
ATOM     28  C   UNL     1      -9.714 -44.287  29.547  1.00  0.00     0.001 A 
ATOM     29  C   UNL     1     -10.420 -45.066  31.717  1.00  0.00     0.001 A 
ATOM     30  C   UNL     1      -9.503 -44.387  30.920  1.00  0.00     0.000 A 
ENDBRANCH  24  25
ENDBRANCH  23  24
ENDBRANCH  17  18
ENDBRANCH   1  17
TORSDOF 8
ENDMDL
