MODEL 1
REMARK VINA RESULT:   -14.064      0.000      0.000
REMARK INTER + INTRA:         -18.217
REMARK INTER:                 -17.353
REMARK INTRA:                  -0.864
REMARK UNBOUND:                -0.864
REMARK SMILES Cc1cccc(C(=O)Nc2ccc3c(c2)CN(C(=O)c2cccc(Cl)c2)C(=O)C3)c1
REMARK SMILES IDX 10 1 11 2 12 3 13 4 14 5 15 6 16 7 17 8 27 9 28 10 29 11
REMARK SMILES IDX 9 12 7 13 8 14 6 16 2 17 3 18 30 19 4 20 5 21 1 22 18 23
REMARK SMILES IDX 19 24 20 25 21 26 26 27 22 28 24 29 23 30 25 31
REMARK H PARENT 9 15
ROOT
ATOM      1  C   UNL     1     -13.224 -44.719  27.324  1.00  0.00     0.041 A 
ATOM      2  C   UNL     1     -13.078 -46.112  27.297  1.00  0.00     0.026 A 
ATOM      3  C   UNL     1     -11.942 -46.724  27.833  1.00  0.00     0.007 A 
ATOM      4  C   UNL     1     -10.943 -45.947  28.423  1.00  0.00    -0.033 A 
ATOM      5  C   UNL     1     -11.081 -44.557  28.460  1.00  0.00    -0.022 A 
ATOM      6  C   UNL     1     -12.216 -43.947  27.906  1.00  0.00     0.032 A 
ATOM      7  C   UNL     1      -9.961 -43.750  29.053  1.00  0.00     0.164 C 
ATOM      8  N   UNL     1      -9.374 -44.418  30.206  1.00  0.00    -0.274 N 
ATOM      9  C   UNL     1      -9.005 -45.756  30.071  1.00  0.00     0.234 C 
ATOM     10  O   UNL     1      -8.171 -46.313  30.788  1.00  0.00    -0.274 OA
ATOM     11  C   UNL     1      -9.685 -46.561  28.970  1.00  0.00     0.136 C 
ENDROOT
BRANCH   1  12
ATOM     12  N   UNL     1     -14.399 -44.184  26.760  1.00  0.00    -0.322 N 
ATOM     13  C   UNL     1     -14.506 -43.413  25.615  1.00  0.00     0.255 C 
ATOM     14  O   UNL     1     -13.602 -43.116  24.843  1.00  0.00    -0.269 OA
ATOM     15  H   UNL     1     -15.265 -44.455  27.208  1.00  0.00     0.170 HD
BRANCH  13  16
ATOM     16  C   UNL     1     -15.887 -42.953  25.298  1.00  0.00     0.040 A 
ATOM     17  C   UNL     1     -18.124 -42.281  25.979  1.00  0.00    -0.050 A 
ATOM     18  C   UNL     1     -18.453 -42.076  24.633  1.00  0.00     0.003 A 
ATOM     19  C   UNL     1     -16.829 -42.706  26.308  1.00  0.00     0.017 A 
ATOM     20  C   UNL     1     -17.512 -42.302  23.629  1.00  0.00     0.001 A 
ATOM     21  C   UNL     1     -16.229 -42.736  23.959  1.00  0.00     0.014 A 
ATOM     22  C   UNL     1     -19.122 -41.979  27.058  1.00  0.00     0.044 C 
ENDBRANCH  13  16
ENDBRANCH   1  12
BRANCH   8  23
ATOM     23  C   UNL     1      -8.679 -43.578  31.079  1.00  0.00     0.260 C 
ATOM     24  O   UNL     1      -7.538 -43.176  30.852  1.00  0.00    -0.269 OA
BRANCH  23  25
ATOM     25  C   UNL     1      -9.354 -43.133  32.330  1.00  0.00     0.041 A 
ATOM     26  C   UNL     1      -8.563 -42.773  33.430  1.00  0.00     0.014 A 
ATOM     27  C   UNL     1     -10.746 -43.003  32.400  1.00  0.00     0.034 A 
ATOM     28  C   UNL     1      -9.161 -42.321  34.607  1.00  0.00     0.002 A 
ATOM     29  C   UNL     1     -11.334 -42.551  33.580  1.00  0.00     0.041 A 
ATOM     30  C   UNL     1     -10.550 -42.213  34.682  1.00  0.00     0.020 A 
ATOM     31  Cl  UNL     1     -13.047 -42.399  33.673  1.00  0.00    -0.084 Cl
ENDBRANCH  23  25
ENDBRANCH   8  23
TORSDOF 4
ENDMDL
MODEL 2
REMARK VINA RESULT:   -11.910      1.968      2.504
REMARK INTER + INTRA:         -15.559
REMARK INTER:                 -15.752
REMARK INTRA:                   0.193
REMARK UNBOUND:                -0.864
REMARK SMILES Cc1cccc(C(=O)Nc2ccc3c(c2)CN(C(=O)c2cccc(Cl)c2)C(=O)C3)c1
REMARK SMILES IDX 10 1 11 2 12 3 13 4 14 5 15 6 16 7 17 8 27 9 28 10 29 11
REMARK SMILES IDX 9 12 7 13 8 14 6 16 2 17 3 18 30 19 4 20 5 21 1 22 18 23
REMARK SMILES IDX 19 24 20 25 21 26 26 27 22 28 24 29 23 30 25 31
REMARK H PARENT 9 15
ROOT
ATOM      1  C   UNL     1     -13.845 -44.344  26.430  1.00  0.00     0.041 A 
ATOM      2  C   UNL     1     -13.577 -45.697  26.184  1.00  0.00     0.026 A 
ATOM      3  C   UNL     1     -12.752 -46.430  27.039  1.00  0.00     0.007 A 
ATOM      4  C   UNL     1     -12.196 -45.822  28.166  1.00  0.00    -0.033 A 
ATOM      5  C   UNL     1     -12.460 -44.474  28.423  1.00  0.00    -0.022 A 
ATOM      6  C   UNL     1     -13.278 -43.738  27.552  1.00  0.00     0.032 A 
ATOM      7  C   UNL     1     -11.802 -43.839  29.614  1.00  0.00     0.164 C 
ATOM      8  N   UNL     1     -11.735 -44.758  30.742  1.00  0.00    -0.274 N 
ATOM      9  C   UNL     1     -11.226 -46.036  30.516  1.00  0.00     0.234 C 
ATOM     10  O   UNL     1     -10.754 -46.753  31.401  1.00  0.00    -0.274 OA
ATOM     11  C   UNL     1     -11.266 -46.562  29.086  1.00  0.00     0.136 C 
ENDROOT
BRANCH   1  12
ATOM     12  N   UNL     1     -14.687 -43.678  25.516  1.00  0.00    -0.322 N 
ATOM     13  C   UNL     1     -15.845 -42.974  25.800  1.00  0.00     0.255 C 
ATOM     14  O   UNL     1     -16.310 -42.743  26.909  1.00  0.00    -0.269 OA
ATOM     15  H   UNL     1     -14.366 -43.658  24.557  1.00  0.00     0.170 HD
BRANCH  13  16
ATOM     16  C   UNL     1     -16.546 -42.421  24.609  1.00  0.00     0.040 A 
ATOM     17  C   UNL     1     -18.578 -41.831  23.406  1.00  0.00    -0.050 A 
ATOM     18  C   UNL     1     -17.794 -41.354  22.349  1.00  0.00     0.003 A 
ATOM     19  C   UNL     1     -17.946 -42.351  24.545  1.00  0.00     0.017 A 
ATOM     20  C   UNL     1     -16.401 -41.404  22.418  1.00  0.00     0.001 A 
ATOM     21  C   UNL     1     -15.777 -41.933  23.547  1.00  0.00     0.014 A 
ATOM     22  C   UNL     1     -20.074 -41.720  23.351  1.00  0.00     0.044 C 
ENDBRANCH  13  16
ENDBRANCH   1  12
BRANCH   8  23
ATOM     23  C   UNL     1     -11.582 -44.147  31.988  1.00  0.00     0.260 C 
ATOM     24  O   UNL     1     -12.528 -43.926  32.745  1.00  0.00    -0.269 OA
BRANCH  23  25
ATOM     25  C   UNL     1     -10.212 -43.762  32.431  1.00  0.00     0.041 A 
ATOM     26  C   UNL     1      -9.118 -44.154  31.649  1.00  0.00     0.014 A 
ATOM     27  C   UNL     1     -10.012 -42.966  33.565  1.00  0.00     0.034 A 
ATOM     28  C   UNL     1      -7.823 -43.783  32.017  1.00  0.00     0.002 A 
ATOM     29  C   UNL     1      -8.715 -42.602  33.925  1.00  0.00     0.041 A 
ATOM     30  C   UNL     1      -7.623 -43.009  33.160  1.00  0.00     0.020 A 
ATOM     31  Cl  UNL     1      -8.462 -41.630  35.324  1.00  0.00    -0.084 Cl
ENDBRANCH  23  25
ENDBRANCH   8  23
TORSDOF 4
ENDMDL
MODEL 3
REMARK VINA RESULT:   -11.601      4.779     10.881
REMARK INTER + INTRA:         -15.178
REMARK INTER:                 -14.627
REMARK INTRA:                  -0.551
REMARK UNBOUND:                -0.864
REMARK SMILES Cc1cccc(C(=O)Nc2ccc3c(c2)CN(C(=O)c2cccc(Cl)c2)C(=O)C3)c1
REMARK SMILES IDX 10 1 11 2 12 3 13 4 14 5 15 6 16 7 17 8 27 9 28 10 29 11
REMARK SMILES IDX 9 12 7 13 8 14 6 16 2 17 3 18 30 19 4 20 5 21 1 22 18 23
REMARK SMILES IDX 19 24 20 25 21 26 26 27 22 28 24 29 23 30 25 31
REMARK H PARENT 9 15
ROOT
ATOM      1  C   UNL     1     -15.813 -43.012  24.653  1.00  0.00     0.041 A 
ATOM      2  C   UNL     1     -15.090 -42.086  23.888  1.00  0.00     0.026 A 
ATOM      3  C   UNL     1     -15.734 -41.272  22.954  1.00  0.00     0.007 A 
ATOM      4  C   UNL     1     -17.117 -41.360  22.786  1.00  0.00    -0.033 A 
ATOM      5  C   UNL     1     -17.848 -42.276  23.547  1.00  0.00    -0.022 A 
ATOM      6  C   UNL     1     -17.194 -43.103  24.473  1.00  0.00     0.032 A 
ATOM      7  C   UNL     1     -19.326 -42.381  23.301  1.00  0.00     0.164 C 
ATOM      8  N   UNL     1     -19.917 -41.078  23.032  1.00  0.00    -0.274 N 
ATOM      9  C   UNL     1     -19.310 -40.268  22.072  1.00  0.00     0.234 C 
ATOM     10  O   UNL     1     -19.890 -39.359  21.475  1.00  0.00    -0.274 OA
ATOM     11  C   UNL     1     -17.842 -40.535  21.760  1.00  0.00     0.136 C 
ENDROOT
BRANCH   1  12
ATOM     12  N   UNL     1     -15.084 -43.795  25.571  1.00  0.00    -0.322 N 
ATOM     13  C   UNL     1     -15.020 -43.637  26.945  1.00  0.00     0.255 C 
ATOM     14  O   UNL     1     -15.643 -42.827  27.620  1.00  0.00    -0.269 OA
ATOM     15  H   UNL     1     -14.614 -44.603  25.184  1.00  0.00     0.170 HD
BRANCH  13  16
ATOM     16  C   UNL     1     -14.121 -44.598  27.642  1.00  0.00     0.040 A 
ATOM     17  C   UNL     1     -13.237 -45.613  29.670  1.00  0.00    -0.050 A 
ATOM     18  C   UNL     1     -12.422 -46.435  28.882  1.00  0.00     0.003 A 
ATOM     19  C   UNL     1     -14.100 -44.703  29.041  1.00  0.00     0.017 A 
ATOM     20  C   UNL     1     -12.456 -46.346  27.490  1.00  0.00     0.001 A 
ATOM     21  C   UNL     1     -13.306 -45.432  26.870  1.00  0.00     0.014 A 
ATOM     22  C   UNL     1     -13.240 -45.755  31.163  1.00  0.00     0.044 C 
ENDBRANCH  13  16
ENDBRANCH   1  12
BRANCH   8  23
ATOM     23  C   UNL     1     -21.294 -41.002  23.251  1.00  0.00     0.260 C 
ATOM     24  O   UNL     1     -22.123 -41.167  22.356  1.00  0.00    -0.269 OA
BRANCH  23  25
ATOM     25  C   UNL     1     -21.784 -40.730  24.631  1.00  0.00     0.041 A 
ATOM     26  C   UNL     1     -21.001 -41.146  25.717  1.00  0.00     0.014 A 
ATOM     27  C   UNL     1     -22.964 -40.011  24.856  1.00  0.00     0.034 A 
ATOM     28  C   UNL     1     -21.414 -40.879  27.023  1.00  0.00     0.002 A 
ATOM     29  C   UNL     1     -23.367 -39.750  26.164  1.00  0.00     0.041 A 
ATOM     30  C   UNL     1     -22.601 -40.182  27.246  1.00  0.00     0.020 A 
ATOM     31  Cl  UNL     1     -24.823 -38.874  26.446  1.00  0.00    -0.084 Cl
ENDBRANCH  23  25
ENDBRANCH   8  23
TORSDOF 4
ENDMDL
MODEL 4
REMARK VINA RESULT:   -11.528      2.529      9.260
REMARK INTER + INTRA:         -15.088
REMARK INTER:                 -14.732
REMARK INTRA:                  -0.356
REMARK UNBOUND:                -0.864
REMARK SMILES Cc1cccc(C(=O)Nc2ccc3c(c2)CN(C(=O)c2cccc(Cl)c2)C(=O)C3)c1
REMARK SMILES IDX 10 1 11 2 12 3 13 4 14 5 15 6 16 7 17 8 27 9 28 10 29 11
REMARK SMILES IDX 9 12 7 13 8 14 6 16 2 17 3 18 30 19 4 20 5 21 1 22 18 23
REMARK SMILES IDX 19 24 20 25 21 26 26 27 22 28 24 29 23 30 25 31
REMARK H PARENT 9 15
ROOT
ATOM      1  C   UNL     1     -11.911 -44.428  28.986  1.00  0.00     0.041 A 
ATOM      2  C   UNL     1     -11.651 -45.712  28.489  1.00  0.00     0.026 A 
ATOM      3  C   UNL     1     -12.315 -46.189  27.357  1.00  0.00     0.007 A 
ATOM      4  C   UNL     1     -13.238 -45.377  26.694  1.00  0.00    -0.033 A 
ATOM      5  C   UNL     1     -13.501 -44.093  27.179  1.00  0.00    -0.022 A 
ATOM      6  C   UNL     1     -12.842 -43.625  28.326  1.00  0.00     0.032 A 
ATOM      7  C   UNL     1     -14.539 -43.269  26.472  1.00  0.00     0.164 C 
ATOM      8  N   UNL     1     -14.488 -43.467  25.030  1.00  0.00    -0.274 N 
ATOM      9  C   UNL     1     -14.480 -44.776  24.549  1.00  0.00     0.234 C 
ATOM     10  O   UNL     1     -14.829 -45.089  23.408  1.00  0.00    -0.274 OA
ATOM     11  C   UNL     1     -14.007 -45.868  25.500  1.00  0.00     0.136 C 
ENDROOT
BRANCH   1  12
ATOM     12  N   UNL     1     -11.198 -44.026  30.134  1.00  0.00    -0.322 N 
ATOM     13  C   UNL     1     -11.723 -43.594  31.340  1.00  0.00     0.255 C 
ATOM     14  O   UNL     1     -12.907 -43.551  31.652  1.00  0.00    -0.269 OA
ATOM     15  H   UNL     1     -10.193 -44.133  30.088  1.00  0.00     0.170 HD
BRANCH  13  16
ATOM     16  C   UNL     1     -10.709 -43.189  32.353  1.00  0.00     0.040 A 
ATOM     17  C   UNL     1      -8.414 -43.083  33.156  1.00  0.00    -0.050 A 
ATOM     18  C   UNL     1      -8.859 -42.384  34.285  1.00  0.00     0.003 A 
ATOM     19  C   UNL     1      -9.345 -43.470  32.182  1.00  0.00     0.017 A 
ATOM     20  C   UNL     1     -10.212 -42.086  34.448  1.00  0.00     0.001 A 
ATOM     21  C   UNL     1     -11.136 -42.484  33.483  1.00  0.00     0.014 A 
ATOM     22  C   UNL     1      -6.950 -43.348  32.957  1.00  0.00     0.044 C 
ENDBRANCH  13  16
ENDBRANCH   1  12
BRANCH   8  23
ATOM     23  C   UNL     1     -15.061 -42.440  24.277  1.00  0.00     0.260 C 
ATOM     24  O   UNL     1     -14.400 -41.682  23.569  1.00  0.00    -0.269 OA
BRANCH  23  25
ATOM     25  C   UNL     1     -16.541 -42.267  24.316  1.00  0.00     0.041 A 
ATOM     26  C   UNL     1     -17.227 -42.073  23.110  1.00  0.00     0.014 A 
ATOM     27  C   UNL     1     -17.253 -42.363  25.517  1.00  0.00     0.034 A 
ATOM     28  C   UNL     1     -18.617 -41.940  23.106  1.00  0.00     0.002 A 
ATOM     29  C   UNL     1     -18.640 -42.227  25.503  1.00  0.00     0.041 A 
ATOM     30  C   UNL     1     -19.323 -42.013  24.306  1.00  0.00     0.020 A 
ATOM     31  Cl  UNL     1     -19.520 -42.334  26.980  1.00  0.00    -0.084 Cl
ENDBRANCH  23  25
ENDBRANCH   8  23
TORSDOF 4
ENDMDL
MODEL 5
REMARK VINA RESULT:   -11.143      4.123     10.273
REMARK INTER + INTRA:         -14.613
REMARK INTER:                 -14.155
REMARK INTRA:                  -0.458
REMARK UNBOUND:                -0.864
REMARK SMILES Cc1cccc(C(=O)Nc2ccc3c(c2)CN(C(=O)c2cccc(Cl)c2)C(=O)C3)c1
REMARK SMILES IDX 10 1 11 2 12 3 13 4 14 5 15 6 16 7 17 8 27 9 28 10 29 11
REMARK SMILES IDX 9 12 7 13 8 14 6 16 2 17 3 18 30 19 4 20 5 21 1 22 18 23
REMARK SMILES IDX 19 24 20 25 21 26 26 27 22 28 24 29 23 30 25 31
REMARK H PARENT 9 15
ROOT
ATOM      1  C   UNL     1     -14.607 -43.192  26.059  1.00  0.00     0.041 A 
ATOM      2  C   UNL     1     -13.803 -42.370  25.259  1.00  0.00     0.026 A 
ATOM      3  C   UNL     1     -14.310 -41.786  24.095  1.00  0.00     0.007 A 
ATOM      4  C   UNL     1     -15.639 -42.005  23.726  1.00  0.00    -0.033 A 
ATOM      5  C   UNL     1     -16.450 -42.821  24.519  1.00  0.00    -0.022 A 
ATOM      6  C   UNL     1     -15.931 -43.416  25.679  1.00  0.00     0.032 A 
ATOM      7  C   UNL     1     -17.858 -43.077  24.063  1.00  0.00     0.164 C 
ATOM      8  N   UNL     1     -18.449 -41.891  23.459  1.00  0.00    -0.274 N 
ATOM      9  C   UNL     1     -17.720 -41.225  22.474  1.00  0.00     0.234 C 
ATOM     10  O   UNL     1     -18.227 -40.484  21.629  1.00  0.00    -0.274 OA
ATOM     11  C   UNL     1     -16.211 -41.435  22.459  1.00  0.00     0.136 C 
ENDROOT
BRANCH   1  12
ATOM     12  N   UNL     1     -14.015 -43.742  27.215  1.00  0.00    -0.322 N 
ATOM     13  C   UNL     1     -13.505 -45.020  27.371  1.00  0.00     0.255 C 
ATOM     14  O   UNL     1     -13.411 -45.883  26.507  1.00  0.00    -0.269 OA
ATOM     15  H   UNL     1     -13.891 -43.105  27.990  1.00  0.00     0.170 HD
BRANCH  13  16
ATOM     16  C   UNL     1     -12.987 -45.322  28.734  1.00  0.00     0.040 A 
ATOM     17  C   UNL     1     -11.229 -46.088  30.232  1.00  0.00    -0.050 A 
ATOM     18  C   UNL     1     -12.077 -45.852  31.321  1.00  0.00     0.003 A 
ATOM     19  C   UNL     1     -11.685 -45.804  28.937  1.00  0.00     0.017 A 
ATOM     20  C   UNL     1     -13.365 -45.354  31.123  1.00  0.00     0.001 A 
ATOM     21  C   UNL     1     -13.820 -45.085  29.833  1.00  0.00     0.014 A 
ATOM     22  C   UNL     1      -9.824 -46.566  30.455  1.00  0.00     0.044 C 
ENDBRANCH  13  16
ENDBRANCH   1  12
BRANCH   8  23
ATOM     23  C   UNL     1     -19.845 -41.879  23.435  1.00  0.00     0.260 C 
ATOM     24  O   UNL     1     -20.499 -42.235  22.455  1.00  0.00    -0.269 OA
BRANCH  23  25
ATOM     25  C   UNL     1     -20.577 -41.435  24.654  1.00  0.00     0.041 A 
ATOM     26  C   UNL     1     -19.973 -41.621  25.905  1.00  0.00     0.014 A 
ATOM     27  C   UNL     1     -21.810 -40.780  24.564  1.00  0.00     0.034 A 
ATOM     28  C   UNL     1     -20.616 -41.188  27.066  1.00  0.00     0.002 A 
ATOM     29  C   UNL     1     -22.444 -40.351  25.729  1.00  0.00     0.041 A 
ATOM     30  C   UNL     1     -21.856 -40.555  26.976  1.00  0.00     0.020 A 
ATOM     31  Cl  UNL     1     -23.967 -39.553  25.624  1.00  0.00    -0.084 Cl
ENDBRANCH  23  25
ENDBRANCH   8  23
TORSDOF 4
ENDMDL
