MODEL 1
REMARK VINA RESULT:    -9.917      0.000      0.000
REMARK INTER + INTRA:         -14.761
REMARK INTER:                 -13.686
REMARK INTRA:                  -1.075
REMARK UNBOUND:                -1.075
REMARK SMILES COc1cccc([C@@H]2C=C(c3cc(F)cc(F)c3)NN2c2ccc(S(N)(=O)=O)cc2)c1OC
REMARK SMILES IDX 21 1 22 2 23 3 24 4 29 5 30 6 20 7 19 8 10 9 9 10 8 11 11 13
REMARK SMILES IDX 12 14 18 15 13 16 16 17 15 18 14 19 17 20 7 21 6 22 31 23
REMARK SMILES IDX 5 24 3 25 4 26 32 27 33 28 2 29 1 30 25 31 27 32 28 33 26 34
REMARK H PARENT 19 12 26 35 26 36
ROOT
ATOM      1  C   UNL     1     -17.620 -42.474  25.067  1.00  0.00     0.058 A 
ATOM      2  C   UNL     1     -16.577 -43.034  24.311  1.00  0.00     0.029 A 
ATOM      3  C   UNL     1     -15.406 -43.509  24.913  1.00  0.00     0.024 A 
ATOM      4  C   UNL     1     -15.266 -43.435  26.298  1.00  0.00     0.082 A 
ATOM      5  C   UNL     1     -16.273 -42.872  27.079  1.00  0.00     0.024 A 
ATOM      6  C   UNL     1     -17.437 -42.403  26.460  1.00  0.00     0.029 A 
ENDROOT
BRANCH   1   7
ATOM      7  N   UNL     1     -18.794 -41.998  24.486  1.00  0.00    -0.276 N 
ATOM      8  N   UNL     1     -18.966 -41.696  23.144  1.00  0.00    -0.297 N 
ATOM      9  C   UNL     1     -20.197 -41.076  22.956  1.00  0.00     0.060 C 
ATOM     10  C   UNL     1     -20.873 -41.037  24.115  1.00  0.00     0.033 C 
ATOM     11  C   UNL     1     -20.044 -41.653  25.231  1.00  0.00     0.165 C 
ATOM     12  H   UNL     1     -18.211 -41.159  22.715  1.00  0.00     0.188 HD
BRANCH   9  13
ATOM     13  C   UNL     1     -20.606 -40.552  21.650  1.00  0.00     0.005 A 
ATOM     14  C   UNL     1     -21.368 -41.342  20.777  1.00  0.00     0.049 A 
ATOM     15  C   UNL     1     -20.240 -39.265  21.233  1.00  0.00     0.049 A 
ATOM     16  C   UNL     1     -21.749 -40.849  19.530  1.00  0.00     0.126 A 
ATOM     17  C   UNL     1     -20.632 -38.792  19.982  1.00  0.00     0.126 A 
ATOM     18  C   UNL     1     -21.387 -39.575  19.121  1.00  0.00     0.078 A 
ATOM     19  F   UNL     1     -22.478 -41.621  18.714  1.00  0.00    -0.207 F 
ATOM     20  F   UNL     1     -20.268 -37.560  19.602  1.00  0.00    -0.207 F 
ENDBRANCH   9  13
BRANCH  11  21
ATOM     21  C   UNL     1     -20.743 -42.853  25.844  1.00  0.00     0.026 A 
ATOM     22  C   UNL     1     -20.583 -44.145  25.301  1.00  0.00     0.010 A 
ATOM     23  C   UNL     1     -21.593 -42.694  26.953  1.00  0.00     0.166 A 
ATOM     24  C   UNL     1     -21.237 -45.247  25.854  1.00  0.00     0.004 A 
ATOM     25  C   UNL     1     -22.293 -43.798  27.465  1.00  0.00     0.161 A 
ATOM     26  C   UNL     1     -22.089 -45.075  26.940  1.00  0.00     0.050 A 
BRANCH  23  27
ATOM     27  O   UNL     1     -21.741 -41.422  27.451  1.00  0.00    -0.492 OA
ATOM     28  C   UNL     1     -22.988 -40.822  27.095  1.00  0.00     0.278 C 
ENDBRANCH  23  27
BRANCH  25  29
ATOM     29  O   UNL     1     -23.175 -43.683  28.508  1.00  0.00    -0.493 OA
ATOM     30  C   UNL     1     -23.546 -44.983  28.971  1.00  0.00     0.278 C 
ENDBRANCH  25  29
ENDBRANCH  11  21
ENDBRANCH   1   7
BRANCH   4  31
ATOM     31  S   UNL     1     -13.781 -44.032  27.058  1.00  0.00     0.238 S 
ATOM     32  O   UNL     1     -13.464 -45.323  26.498  1.00  0.00    -0.207 OA
ATOM     33  O   UNL     1     -12.826 -42.950  27.115  1.00  0.00    -0.207 OA
BRANCH  31  34
ATOM     34  N   UNL     1     -14.292 -44.266  28.647  1.00  0.00    -0.225 NA
ATOM     35  H   UNL     1     -13.557 -44.618  29.258  1.00  0.00     0.137 HD
ATOM     36  H   UNL     1     -15.110 -44.877  28.642  1.00  0.00     0.137 HD
ENDBRANCH  31  34
ENDBRANCH   4  31
TORSDOF 7
ENDMDL
MODEL 2
REMARK VINA RESULT:    -9.880      0.077      1.430
REMARK INTER + INTRA:         -14.710
REMARK INTER:                 -13.625
REMARK INTRA:                  -1.085
REMARK UNBOUND:                -1.075
REMARK SMILES COc1cccc([C@@H]2C=C(c3cc(F)cc(F)c3)NN2c2ccc(S(N)(=O)=O)cc2)c1OC
REMARK SMILES IDX 21 1 22 2 23 3 24 4 29 5 30 6 20 7 19 8 10 9 9 10 8 11 11 13
REMARK SMILES IDX 12 14 18 15 13 16 16 17 15 18 14 19 17 20 7 21 6 22 31 23
REMARK SMILES IDX 5 24 3 25 4 26 32 27 33 28 2 29 1 30 25 31 27 32 28 33 26 34
REMARK H PARENT 19 12 26 35 26 36
ROOT
ATOM      1  C   UNL     1     -17.600 -42.502  25.054  1.00  0.00     0.058 A 
ATOM      2  C   UNL     1     -16.558 -43.073  24.306  1.00  0.00     0.029 A 
ATOM      3  C   UNL     1     -15.387 -43.541  24.912  1.00  0.00     0.024 A 
ATOM      4  C   UNL     1     -15.246 -43.448  26.296  1.00  0.00     0.082 A 
ATOM      5  C   UNL     1     -16.251 -42.874  27.070  1.00  0.00     0.024 A 
ATOM      6  C   UNL     1     -17.416 -42.412  26.446  1.00  0.00     0.029 A 
ENDROOT
BRANCH   1   7
ATOM      7  N   UNL     1     -18.775 -42.033  24.468  1.00  0.00    -0.276 N 
ATOM      8  N   UNL     1     -18.953 -41.765  23.120  1.00  0.00    -0.297 N 
ATOM      9  C   UNL     1     -20.180 -41.141  22.923  1.00  0.00     0.060 C 
ATOM     10  C   UNL     1     -20.849 -41.068  24.085  1.00  0.00     0.033 C 
ATOM     11  C   UNL     1     -20.018 -41.661  25.211  1.00  0.00     0.165 C 
ATOM     12  H   UNL     1     -18.196 -41.243  22.673  1.00  0.00     0.188 HD
BRANCH   9  13
ATOM     13  C   UNL     1     -20.594 -40.647  21.607  1.00  0.00     0.005 A 
ATOM     14  C   UNL     1     -20.214 -39.366  21.180  1.00  0.00     0.049 A 
ATOM     15  C   UNL     1     -21.385 -41.426  20.751  1.00  0.00     0.049 A 
ATOM     16  C   UNL     1     -20.617 -38.891  19.933  1.00  0.00     0.126 A 
ATOM     17  C   UNL     1     -21.776 -40.930  19.509  1.00  0.00     0.126 A 
ATOM     18  C   UNL     1     -21.398 -39.665  19.088  1.00  0.00     0.078 A 
ATOM     19  F   UNL     1     -20.241 -37.666  19.544  1.00  0.00    -0.207 F 
ATOM     20  F   UNL     1     -22.535 -41.691  18.708  1.00  0.00    -0.207 F 
ENDBRANCH   9  13
BRANCH  11  21
ATOM     21  C   UNL     1     -20.722 -42.841  25.859  1.00  0.00     0.026 A 
ATOM     22  C   UNL     1     -20.588 -44.144  25.336  1.00  0.00     0.010 A 
ATOM     23  C   UNL     1     -21.549 -42.650  26.980  1.00  0.00     0.166 A 
ATOM     24  C   UNL     1     -21.246 -45.227  25.921  1.00  0.00     0.004 A 
ATOM     25  C   UNL     1     -22.253 -43.736  27.524  1.00  0.00     0.161 A 
ATOM     26  C   UNL     1     -22.076 -45.024  27.018  1.00  0.00     0.050 A 
BRANCH  23  27
ATOM     27  O   UNL     1     -21.671 -41.368  27.458  1.00  0.00    -0.492 OA
ATOM     28  C   UNL     1     -22.923 -40.764  27.128  1.00  0.00     0.278 C 
ENDBRANCH  23  27
BRANCH  25  29
ATOM     29  O   UNL     1     -23.114 -43.591  28.581  1.00  0.00    -0.493 OA
ATOM     30  C   UNL     1     -23.637 -44.867  28.956  1.00  0.00     0.278 C 
ENDBRANCH  25  29
ENDBRANCH  11  21
ENDBRANCH   1   7
BRANCH   4  31
ATOM     31  S   UNL     1     -13.761 -44.036  27.063  1.00  0.00     0.238 S 
ATOM     32  O   UNL     1     -13.425 -45.318  26.494  1.00  0.00    -0.207 OA
ATOM     33  O   UNL     1     -12.817 -42.944  27.138  1.00  0.00    -0.207 OA
BRANCH  31  34
ATOM     34  N   UNL     1     -14.281 -44.290  28.645  1.00  0.00    -0.225 NA
ATOM     35  H   UNL     1     -15.108 -44.881  28.707  1.00  0.00     0.137 HD
ATOM     36  H   UNL     1     -14.425 -43.384  29.093  1.00  0.00     0.137 HD
ENDBRANCH  31  34
ENDBRANCH   4  31
TORSDOF 7
ENDMDL
MODEL 3
REMARK VINA RESULT:    -9.010      3.610      6.340
REMARK INTER + INTRA:         -13.509
REMARK INTER:                 -12.426
REMARK INTRA:                  -1.083
REMARK UNBOUND:                -1.075
REMARK SMILES COc1cccc([C@@H]2C=C(c3cc(F)cc(F)c3)NN2c2ccc(S(N)(=O)=O)cc2)c1OC
REMARK SMILES IDX 21 1 22 2 23 3 24 4 29 5 30 6 20 7 19 8 10 9 9 10 8 11 11 13
REMARK SMILES IDX 12 14 18 15 13 16 16 17 15 18 14 19 17 20 7 21 6 22 31 23
REMARK SMILES IDX 5 24 3 25 4 26 32 27 33 28 2 29 1 30 25 31 27 32 28 33 26 34
REMARK H PARENT 19 12 26 35 26 36
ROOT
ATOM      1  C   UNL     1     -18.930 -42.034  25.850  1.00  0.00     0.058 A 
ATOM      2  C   UNL     1     -18.203 -42.289  24.676  1.00  0.00     0.029 A 
ATOM      3  C   UNL     1     -16.863 -42.691  24.714  1.00  0.00     0.024 A 
ATOM      4  C   UNL     1     -16.228 -42.851  25.945  1.00  0.00     0.082 A 
ATOM      5  C   UNL     1     -16.912 -42.592  27.129  1.00  0.00     0.024 A 
ATOM      6  C   UNL     1     -18.253 -42.192  27.072  1.00  0.00     0.029 A 
ENDROOT
BRANCH   1   7
ATOM      7  N   UNL     1     -20.266 -41.635  25.832  1.00  0.00    -0.276 N 
ATOM      8  N   UNL     1     -20.913 -40.936  26.839  1.00  0.00    -0.297 N 
ATOM      9  C   UNL     1     -22.276 -40.873  26.567  1.00  0.00     0.060 C 
ATOM     10  C   UNL     1     -22.531 -41.434  25.374  1.00  0.00     0.033 C 
ATOM     11  C   UNL     1     -21.250 -41.969  24.756  1.00  0.00     0.165 C 
ATOM     12  H   UNL     1     -20.740 -41.273  27.788  1.00  0.00     0.188 HD
BRANCH   9  13
ATOM     13  C   UNL     1     -23.226 -40.281  27.512  1.00  0.00     0.005 A 
ATOM     14  C   UNL     1     -23.337 -38.887  27.625  1.00  0.00     0.049 A 
ATOM     15  C   UNL     1     -24.033 -41.081  28.333  1.00  0.00     0.049 A 
ATOM     16  C   UNL     1     -24.232 -38.323  28.531  1.00  0.00     0.126 A 
ATOM     17  C   UNL     1     -24.922 -40.494  29.232  1.00  0.00     0.126 A 
ATOM     18  C   UNL     1     -25.031 -39.116  29.340  1.00  0.00     0.078 A 
ATOM     19  F   UNL     1     -24.323 -36.990  28.621  1.00  0.00    -0.207 F 
ATOM     20  F   UNL     1     -25.682 -41.277  30.009  1.00  0.00    -0.207 F 
ENDBRANCH   9  13
BRANCH  11  21
ATOM     21  C   UNL     1     -20.952 -41.301  23.425  1.00  0.00     0.026 A 
ATOM     22  C   UNL     1     -20.569 -39.945  23.361  1.00  0.00     0.010 A 
ATOM     23  C   UNL     1     -21.086 -42.017  22.222  1.00  0.00     0.166 A 
ATOM     24  C   UNL     1     -20.310 -39.325  22.138  1.00  0.00     0.004 A 
ATOM     25  C   UNL     1     -20.882 -41.368  20.994  1.00  0.00     0.161 A 
ATOM     26  C   UNL     1     -20.463 -40.038  20.953  1.00  0.00     0.050 A 
BRANCH  23  27
ATOM     27  O   UNL     1     -21.475 -43.330  22.315  1.00  0.00    -0.492 OA
ATOM     28  C   UNL     1     -22.881 -43.513  22.136  1.00  0.00     0.278 C 
ENDBRANCH  23  27
BRANCH  25  29
ATOM     29  O   UNL     1     -21.054 -42.007  19.794  1.00  0.00    -0.493 OA
ATOM     30  C   UNL     1     -22.188 -41.465  19.116  1.00  0.00     0.278 C 
ENDBRANCH  25  29
ENDBRANCH  11  21
ENDBRANCH   1   7
BRANCH   4  31
ATOM     31  S   UNL     1     -14.530 -43.355  25.992  1.00  0.00     0.238 S 
ATOM     32  O   UNL     1     -13.795 -42.421  26.810  1.00  0.00    -0.207 OA
ATOM     33  O   UNL     1     -14.478 -44.783  26.201  1.00  0.00    -0.207 OA
BRANCH  31  34
ATOM     34  N   UNL     1     -14.068 -43.116  24.389  1.00  0.00    -0.225 NA
ATOM     35  H   UNL     1     -13.806 -42.154  24.185  1.00  0.00     0.137 HD
ATOM     36  H   UNL     1     -14.817 -43.447  23.779  1.00  0.00     0.137 HD
ENDBRANCH  31  34
ENDBRANCH   4  31
TORSDOF 7
ENDMDL
MODEL 4
REMARK VINA RESULT:    -8.910      5.431      8.618
REMARK INTER + INTRA:         -13.370
REMARK INTER:                 -11.885
REMARK INTRA:                  -1.485
REMARK UNBOUND:                -1.075
REMARK SMILES COc1cccc([C@@H]2C=C(c3cc(F)cc(F)c3)NN2c2ccc(S(N)(=O)=O)cc2)c1OC
REMARK SMILES IDX 21 1 22 2 23 3 24 4 29 5 30 6 20 7 19 8 10 9 9 10 8 11 11 13
REMARK SMILES IDX 12 14 18 15 13 16 16 17 15 18 14 19 17 20 7 21 6 22 31 23
REMARK SMILES IDX 5 24 3 25 4 26 32 27 33 28 2 29 1 30 25 31 27 32 28 33 26 34
REMARK H PARENT 19 12 26 35 26 36
ROOT
ATOM      1  C   UNL     1     -21.669 -43.488  21.933  1.00  0.00     0.058 A 
ATOM      2  C   UNL     1     -22.749 -44.237  22.428  1.00  0.00     0.029 A 
ATOM      3  C   UNL     1     -23.546 -45.022  21.586  1.00  0.00     0.024 A 
ATOM      4  C   UNL     1     -23.264 -45.072  20.222  1.00  0.00     0.082 A 
ATOM      5  C   UNL     1     -22.211 -44.330  19.693  1.00  0.00     0.024 A 
ATOM      6  C   UNL     1     -21.423 -43.552  20.550  1.00  0.00     0.029 A 
ENDROOT
BRANCH   1   7
ATOM      7  N   UNL     1     -20.862 -42.704  22.756  1.00  0.00    -0.276 N 
ATOM      8  N   UNL     1     -19.743 -43.144  23.446  1.00  0.00    -0.297 N 
ATOM      9  C   UNL     1     -19.298 -42.145  24.305  1.00  0.00     0.060 C 
ATOM     10  C   UNL     1     -20.036 -41.036  24.140  1.00  0.00     0.033 C 
ATOM     11  C   UNL     1     -21.118 -41.271  23.098  1.00  0.00     0.165 C 
ATOM     12  H   UNL     1     -19.852 -44.033  23.937  1.00  0.00     0.188 HD
BRANCH   9  13
ATOM     13  C   UNL     1     -18.189 -42.365  25.238  1.00  0.00     0.005 A 
ATOM     14  C   UNL     1     -18.395 -42.257  26.621  1.00  0.00     0.049 A 
ATOM     15  C   UNL     1     -16.900 -42.671  24.779  1.00  0.00     0.049 A 
ATOM     16  C   UNL     1     -17.339 -42.455  27.508  1.00  0.00     0.126 A 
ATOM     17  C   UNL     1     -15.859 -42.865  25.686  1.00  0.00     0.126 A 
ATOM     18  C   UNL     1     -16.066 -42.760  27.052  1.00  0.00     0.078 A 
ATOM     19  F   UNL     1     -17.560 -42.350  28.825  1.00  0.00    -0.207 F 
ATOM     20  F   UNL     1     -14.635 -43.154  25.225  1.00  0.00    -0.207 F 
ENDBRANCH   9  13
BRANCH  11  21
ATOM     21  C   UNL     1     -20.971 -40.323  21.920  1.00  0.00     0.026 A 
ATOM     22  C   UNL     1     -19.737 -40.177  21.253  1.00  0.00     0.010 A 
ATOM     23  C   UNL     1     -22.061 -39.546  21.490  1.00  0.00     0.166 A 
ATOM     24  C   UNL     1     -19.596 -39.296  20.181  1.00  0.00     0.004 A 
ATOM     25  C   UNL     1     -21.893 -38.619  20.449  1.00  0.00     0.161 A 
ATOM     26  C   UNL     1     -20.676 -38.519  19.775  1.00  0.00     0.050 A 
BRANCH  23  27
ATOM     27  O   UNL     1     -23.246 -39.699  22.168  1.00  0.00    -0.492 OA
ATOM     28  C   UNL     1     -24.156 -40.587  21.516  1.00  0.00     0.278 C 
ENDBRANCH  23  27
BRANCH  25  29
ATOM     29  O   UNL     1     -22.910 -37.800  20.032  1.00  0.00    -0.493 OA
ATOM     30  C   UNL     1     -22.827 -37.610  18.618  1.00  0.00     0.278 C 
ENDBRANCH  25  29
ENDBRANCH  11  21
ENDBRANCH   1   7
BRANCH   4  31
ATOM     31  S   UNL     1     -24.277 -46.061  19.157  1.00  0.00     0.238 S 
ATOM     32  O   UNL     1     -24.916 -47.084  19.948  1.00  0.00    -0.207 OA
ATOM     33  O   UNL     1     -25.012 -45.183  18.275  1.00  0.00    -0.207 OA
BRANCH  31  34
ATOM     34  N   UNL     1     -23.116 -46.803  18.188  1.00  0.00    -0.225 NA
ATOM     35  H   UNL     1     -22.897 -46.274  17.345  1.00  0.00     0.137 HD
ATOM     36  H   UNL     1     -23.425 -47.752  17.974  1.00  0.00     0.137 HD
ENDBRANCH  31  34
ENDBRANCH   4  31
TORSDOF 7
ENDMDL
MODEL 5
REMARK VINA RESULT:    -8.422      5.075      7.931
REMARK INTER + INTRA:         -12.698
REMARK INTER:                 -11.117
REMARK INTRA:                  -1.581
REMARK UNBOUND:                -1.075
REMARK SMILES COc1cccc([C@@H]2C=C(c3cc(F)cc(F)c3)NN2c2ccc(S(N)(=O)=O)cc2)c1OC
REMARK SMILES IDX 21 1 22 2 23 3 24 4 29 5 30 6 20 7 19 8 10 9 9 10 8 11 11 13
REMARK SMILES IDX 12 14 18 15 13 16 16 17 15 18 14 19 17 20 7 21 6 22 31 23
REMARK SMILES IDX 5 24 3 25 4 26 32 27 33 28 2 29 1 30 25 31 27 32 28 33 26 34
REMARK H PARENT 19 12 26 35 26 36
ROOT
ATOM      1  C   UNL     1     -21.231 -40.538  22.037  1.00  0.00     0.058 A 
ATOM      2  C   UNL     1     -21.329 -41.147  20.775  1.00  0.00     0.029 A 
ATOM      3  C   UNL     1     -21.829 -40.459  19.664  1.00  0.00     0.024 A 
ATOM      4  C   UNL     1     -22.238 -39.133  19.803  1.00  0.00     0.082 A 
ATOM      5  C   UNL     1     -22.171 -38.502  21.042  1.00  0.00     0.024 A 
ATOM      6  C   UNL     1     -21.666 -39.205  22.143  1.00  0.00     0.029 A 
ENDROOT
BRANCH   1   7
ATOM      7  N   UNL     1     -20.732 -41.206  23.154  1.00  0.00    -0.276 N 
ATOM      8  N   UNL     1     -19.408 -41.216  23.564  1.00  0.00    -0.297 N 
ATOM      9  C   UNL     1     -19.244 -42.128  24.601  1.00  0.00     0.060 C 
ATOM     10  C   UNL     1     -20.431 -42.654  24.941  1.00  0.00     0.033 C 
ATOM     11  C   UNL     1     -21.531 -42.095  24.053  1.00  0.00     0.165 C 
ATOM     12  H   UNL     1     -18.721 -41.370  22.823  1.00  0.00     0.188 HD
BRANCH   9  13
ATOM     13  C   UNL     1     -17.925 -42.426  25.167  1.00  0.00     0.005 A 
ATOM     14  C   UNL     1     -17.743 -42.463  26.557  1.00  0.00     0.049 A 
ATOM     15  C   UNL     1     -16.816 -42.666  24.344  1.00  0.00     0.049 A 
ATOM     16  C   UNL     1     -16.487 -42.735  27.097  1.00  0.00     0.126 A 
ATOM     17  C   UNL     1     -15.569 -42.936  24.907  1.00  0.00     0.126 A 
ATOM     18  C   UNL     1     -15.392 -42.973  26.281  1.00  0.00     0.078 A 
ATOM     19  F   UNL     1     -16.337 -42.767  28.427  1.00  0.00    -0.207 F 
ATOM     20  F   UNL     1     -14.522 -43.159  24.102  1.00  0.00    -0.207 F 
ENDBRANCH   9  13
BRANCH  11  21
ATOM     21  C   UNL     1     -22.582 -41.359  24.867  1.00  0.00     0.026 A 
ATOM     22  C   UNL     1     -22.218 -40.542  25.957  1.00  0.00     0.010 A 
ATOM     23  C   UNL     1     -23.948 -41.503  24.565  1.00  0.00     0.166 A 
ATOM     24  C   UNL     1     -23.182 -39.877  26.715  1.00  0.00     0.004 A 
ATOM     25  C   UNL     1     -24.913 -40.878  25.370  1.00  0.00     0.161 A 
ATOM     26  C   UNL     1     -24.531 -40.042  26.419  1.00  0.00     0.050 A 
BRANCH  23  27
ATOM     27  O   UNL     1     -24.273 -42.317  23.507  1.00  0.00    -0.492 OA
ATOM     28  C   UNL     1     -24.692 -41.592  22.350  1.00  0.00     0.278 C 
ENDBRANCH  23  27
BRANCH  25  29
ATOM     29  O   UNL     1     -26.257 -41.034  25.151  1.00  0.00    -0.493 OA
ATOM     30  C   UNL     1     -26.918 -39.776  25.292  1.00  0.00     0.278 C 
ENDBRANCH  25  29
ENDBRANCH  11  21
ENDBRANCH   1   7
BRANCH   4  31
ATOM     31  S   UNL     1     -22.878 -38.265  18.397  1.00  0.00     0.238 S 
ATOM     32  O   UNL     1     -22.927 -39.174  17.277  1.00  0.00    -0.207 OA
ATOM     33  O   UNL     1     -24.018 -37.483  18.818  1.00  0.00    -0.207 OA
BRANCH  31  34
ATOM     34  N   UNL     1     -21.649 -37.149  18.107  1.00  0.00    -0.225 NA
ATOM     35  H   UNL     1     -20.889 -37.526  17.544  1.00  0.00     0.137 HD
ATOM     36  H   UNL     1     -21.318 -36.786  19.002  1.00  0.00     0.137 HD
ENDBRANCH  31  34
ENDBRANCH   4  31
TORSDOF 7
ENDMDL
MODEL 6
REMARK VINA RESULT:    -8.163      4.621      7.855
REMARK INTER + INTRA:         -12.341
REMARK INTER:                 -10.917
REMARK INTRA:                  -1.423
REMARK UNBOUND:                -1.075
REMARK SMILES COc1cccc([C@@H]2C=C(c3cc(F)cc(F)c3)NN2c2ccc(S(N)(=O)=O)cc2)c1OC
REMARK SMILES IDX 21 1 22 2 23 3 24 4 29 5 30 6 20 7 19 8 10 9 9 10 8 11 11 13
REMARK SMILES IDX 12 14 18 15 13 16 16 17 15 18 14 19 17 20 7 21 6 22 31 23
REMARK SMILES IDX 5 24 3 25 4 26 32 27 33 28 2 29 1 30 25 31 27 32 28 33 26 34
REMARK H PARENT 19 12 26 35 26 36
ROOT
ATOM      1  C   UNL     1     -21.749 -41.666  26.411  1.00  0.00     0.058 A 
ATOM      2  C   UNL     1     -22.564 -42.751  26.771  1.00  0.00     0.029 A 
ATOM      3  C   UNL     1     -23.718 -42.580  27.545  1.00  0.00     0.024 A 
ATOM      4  C   UNL     1     -24.077 -41.302  27.970  1.00  0.00     0.082 A 
ATOM      5  C   UNL     1     -23.285 -40.203  27.646  1.00  0.00     0.024 A 
ATOM      6  C   UNL     1     -22.135 -40.393  26.870  1.00  0.00     0.029 A 
ENDROOT
BRANCH   1   7
ATOM      7  N   UNL     1     -20.599 -41.816  25.638  1.00  0.00    -0.276 N 
ATOM      8  N   UNL     1     -19.464 -42.520  26.009  1.00  0.00    -0.297 N 
ATOM      9  C   UNL     1     -18.452 -42.304  25.079  1.00  0.00     0.060 C 
ATOM     10  C   UNL     1     -18.913 -41.550  24.068  1.00  0.00     0.033 C 
ATOM     11  C   UNL     1     -20.365 -41.171  24.310  1.00  0.00     0.165 C 
ATOM     12  H   UNL     1     -19.134 -42.351  26.961  1.00  0.00     0.188 HD
BRANCH   9  13
ATOM     13  C   UNL     1     -17.102 -42.842  25.266  1.00  0.00     0.005 A 
ATOM     14  C   UNL     1     -16.386 -43.354  24.174  1.00  0.00     0.049 A 
ATOM     15  C   UNL     1     -16.499 -42.875  26.531  1.00  0.00     0.049 A 
ATOM     16  C   UNL     1     -15.106 -43.876  24.353  1.00  0.00     0.126 A 
ATOM     17  C   UNL     1     -15.218 -43.402  26.686  1.00  0.00     0.126 A 
ATOM     18  C   UNL     1     -14.512 -43.906  25.604  1.00  0.00     0.078 A 
ATOM     19  F   UNL     1     -14.440 -44.357  23.295  1.00  0.00    -0.207 F 
ATOM     20  F   UNL     1     -14.662 -43.427  27.904  1.00  0.00    -0.207 F 
ENDBRANCH   9  13
BRANCH  11  21
ATOM     21  C   UNL     1     -21.268 -41.694  23.206  1.00  0.00     0.026 A 
ATOM     22  C   UNL     1     -21.516 -43.075  23.062  1.00  0.00     0.010 A 
ATOM     23  C   UNL     1     -21.852 -40.809  22.283  1.00  0.00     0.166 A 
ATOM     24  C   UNL     1     -22.333 -43.559  22.040  1.00  0.00     0.004 A 
ATOM     25  C   UNL     1     -22.623 -41.311  21.223  1.00  0.00     0.161 A 
ATOM     26  C   UNL     1     -22.890 -42.676  21.121  1.00  0.00     0.050 A 
BRANCH  23  27
ATOM     27  O   UNL     1     -21.580 -39.472  22.439  1.00  0.00    -0.492 OA
ATOM     28  C   UNL     1     -20.487 -39.023  21.635  1.00  0.00     0.278 C 
ENDBRANCH  23  27
BRANCH  25  29
ATOM     29  O   UNL     1     -23.166 -40.493  20.266  1.00  0.00    -0.493 OA
ATOM     30  C   UNL     1     -22.585 -40.786  18.994  1.00  0.00     0.278 C 
ENDBRANCH  25  29
ENDBRANCH  11  21
ENDBRANCH   1   7
BRANCH   4  31
ATOM     31  S   UNL     1     -25.534 -41.087  28.955  1.00  0.00     0.238 S 
ATOM     32  O   UNL     1     -25.330 -39.964  29.839  1.00  0.00    -0.207 OA
ATOM     33  O   UNL     1     -26.691 -41.206  28.099  1.00  0.00    -0.207 OA
BRANCH  31  34
ATOM     34  N   UNL     1     -25.515 -42.491  29.887  1.00  0.00    -0.225 NA
ATOM     35  H   UNL     1     -24.579 -42.775  30.168  1.00  0.00     0.137 HD
ATOM     36  H   UNL     1     -26.002 -43.229  29.377  1.00  0.00     0.137 HD
ENDBRANCH  31  34
ENDBRANCH   4  31
TORSDOF 7
ENDMDL
MODEL 7
REMARK VINA RESULT:    -7.867      1.741      2.625
REMARK INTER + INTRA:         -11.932
REMARK INTER:                 -11.643
REMARK INTRA:                  -0.290
REMARK UNBOUND:                -1.075
REMARK SMILES COc1cccc([C@@H]2C=C(c3cc(F)cc(F)c3)NN2c2ccc(S(N)(=O)=O)cc2)c1OC
REMARK SMILES IDX 21 1 22 2 23 3 24 4 29 5 30 6 20 7 19 8 10 9 9 10 8 11 11 13
REMARK SMILES IDX 12 14 18 15 13 16 16 17 15 18 14 19 17 20 7 21 6 22 31 23
REMARK SMILES IDX 5 24 3 25 4 26 32 27 33 28 2 29 1 30 25 31 27 32 28 33 26 34
REMARK H PARENT 19 12 26 35 26 36
ROOT
ATOM      1  C   UNL     1     -18.643 -41.885  24.574  1.00  0.00     0.058 A 
ATOM      2  C   UNL     1     -17.505 -42.225  23.824  1.00  0.00     0.029 A 
ATOM      3  C   UNL     1     -16.336 -42.693  24.433  1.00  0.00     0.024 A 
ATOM      4  C   UNL     1     -16.292 -42.834  25.819  1.00  0.00     0.082 A 
ATOM      5  C   UNL     1     -17.395 -42.492  26.597  1.00  0.00     0.024 A 
ATOM      6  C   UNL     1     -18.557 -42.026  25.971  1.00  0.00     0.029 A 
ENDROOT
BRANCH   1   7
ATOM      7  N   UNL     1     -19.818 -41.420  23.985  1.00  0.00    -0.276 N 
ATOM      8  N   UNL     1     -19.992 -41.150  22.636  1.00  0.00    -0.297 N 
ATOM      9  C   UNL     1     -21.222 -40.532  22.437  1.00  0.00     0.060 C 
ATOM     10  C   UNL     1     -21.895 -40.464  23.596  1.00  0.00     0.033 C 
ATOM     11  C   UNL     1     -21.065 -41.055  24.725  1.00  0.00     0.165 C 
ATOM     12  H   UNL     1     -19.237 -40.624  22.193  1.00  0.00     0.188 HD
BRANCH   9  13
ATOM     13  C   UNL     1     -21.634 -40.038  21.120  1.00  0.00     0.005 A 
ATOM     14  C   UNL     1     -21.334 -38.724  20.731  1.00  0.00     0.049 A 
ATOM     15  C   UNL     1     -22.347 -40.850  20.226  1.00  0.00     0.049 A 
ATOM     16  C   UNL     1     -21.735 -38.249  19.483  1.00  0.00     0.126 A 
ATOM     17  C   UNL     1     -22.737 -40.353  18.984  1.00  0.00     0.126 A 
ATOM     18  C   UNL     1     -22.437 -39.055  18.601  1.00  0.00     0.078 A 
ATOM     19  F   UNL     1     -21.435 -36.993  19.132  1.00  0.00    -0.207 F 
ATOM     20  F   UNL     1     -23.420 -41.146  18.146  1.00  0.00    -0.207 F 
ENDBRANCH   9  13
BRANCH  11  21
ATOM     21  C   UNL     1     -21.765 -42.240  25.368  1.00  0.00     0.026 A 
ATOM     22  C   UNL     1     -22.276 -42.159  26.680  1.00  0.00     0.010 A 
ATOM     23  C   UNL     1     -21.890 -43.457  24.674  1.00  0.00     0.166 A 
ATOM     24  C   UNL     1     -22.905 -43.251  27.278  1.00  0.00     0.004 A 
ATOM     25  C   UNL     1     -22.472 -44.567  25.306  1.00  0.00     0.161 A 
ATOM     26  C   UNL     1     -23.007 -44.456  26.590  1.00  0.00     0.050 A 
BRANCH  23  27
ATOM     27  O   UNL     1     -21.370 -43.510  23.404  1.00  0.00    -0.492 OA
ATOM     28  C   UNL     1     -22.333 -43.889  22.418  1.00  0.00     0.278 C 
ENDBRANCH  23  27
BRANCH  25  29
ATOM     29  O   UNL     1     -22.566 -45.789  24.693  1.00  0.00    -0.493 OA
ATOM     30  C   UNL     1     -23.880 -46.319  24.871  1.00  0.00     0.278 C 
ENDBRANCH  25  29
ENDBRANCH  11  21
ENDBRANCH   1   7
BRANCH   4  31
ATOM     31  S   UNL     1     -14.808 -43.420  26.590  1.00  0.00     0.238 S 
ATOM     32  O   UNL     1     -14.480 -44.711  26.036  1.00  0.00    -0.207 OA
ATOM     33  O   UNL     1     -13.859 -42.333  26.651  1.00  0.00    -0.207 OA
BRANCH  31  34
ATOM     34  N   UNL     1     -15.327 -43.654  28.176  1.00  0.00    -0.225 NA
ATOM     35  H   UNL     1     -14.563 -43.808  28.831  1.00  0.00     0.137 HD
ATOM     36  H   UNL     1     -16.003 -44.418  28.191  1.00  0.00     0.137 HD
ENDBRANCH  31  34
ENDBRANCH   4  31
TORSDOF 7
ENDMDL
MODEL 8
REMARK VINA RESULT:    -7.782      5.770      9.136
REMARK INTER + INTRA:         -11.814
REMARK INTER:                 -10.293
REMARK INTRA:                  -1.521
REMARK UNBOUND:                -1.075
REMARK SMILES COc1cccc([C@@H]2C=C(c3cc(F)cc(F)c3)NN2c2ccc(S(N)(=O)=O)cc2)c1OC
REMARK SMILES IDX 21 1 22 2 23 3 24 4 29 5 30 6 20 7 19 8 10 9 9 10 8 11 11 13
REMARK SMILES IDX 12 14 18 15 13 16 16 17 15 18 14 19 17 20 7 21 6 22 31 23
REMARK SMILES IDX 5 24 3 25 4 26 32 27 33 28 2 29 1 30 25 31 27 32 28 33 26 34
REMARK H PARENT 19 12 26 35 26 36
ROOT
ATOM      1  C   UNL     1     -22.861 -42.736  21.200  1.00  0.00     0.058 A 
ATOM      2  C   UNL     1     -22.719 -43.004  19.829  1.00  0.00     0.029 A 
ATOM      3  C   UNL     1     -23.709 -43.677  19.104  1.00  0.00     0.024 A 
ATOM      4  C   UNL     1     -24.873 -44.091  19.752  1.00  0.00     0.082 A 
ATOM      5  C   UNL     1     -25.042 -43.857  21.114  1.00  0.00     0.024 A 
ATOM      6  C   UNL     1     -24.041 -43.181  21.822  1.00  0.00     0.029 A 
ENDROOT
BRANCH   1   7
ATOM      7  N   UNL     1     -21.887 -42.065  21.937  1.00  0.00    -0.276 N 
ATOM      8  N   UNL     1     -20.741 -42.635  22.469  1.00  0.00    -0.297 N 
ATOM      9  C   UNL     1     -20.099 -41.717  23.295  1.00  0.00     0.060 C 
ATOM     10  C   UNL     1     -20.740 -40.538  23.255  1.00  0.00     0.033 C 
ATOM     11  C   UNL     1     -21.958 -40.629  22.350  1.00  0.00     0.165 C 
ATOM     12  H   UNL     1     -20.876 -43.529  22.944  1.00  0.00     0.188 HD
BRANCH   9  13
ATOM     13  C   UNL     1     -18.912 -42.078  24.075  1.00  0.00     0.005 A 
ATOM     14  C   UNL     1     -17.731 -42.466  23.427  1.00  0.00     0.049 A 
ATOM     15  C   UNL     1     -18.927 -42.060  25.476  1.00  0.00     0.049 A 
ATOM     16  C   UNL     1     -16.604 -42.820  24.168  1.00  0.00     0.126 A 
ATOM     17  C   UNL     1     -17.789 -42.417  26.196  1.00  0.00     0.126 A 
ATOM     18  C   UNL     1     -16.622 -42.800  25.554  1.00  0.00     0.078 A 
ATOM     19  F   UNL     1     -15.486 -43.186  23.528  1.00  0.00    -0.207 F 
ATOM     20  F   UNL     1     -17.827 -42.396  27.535  1.00  0.00    -0.207 F 
ENDBRANCH   9  13
BRANCH  11  21
ATOM     21  C   UNL     1     -21.864 -39.652  21.190  1.00  0.00     0.026 A 
ATOM     22  C   UNL     1     -20.622 -39.344  20.598  1.00  0.00     0.010 A 
ATOM     23  C   UNL     1     -23.016 -39.011  20.703  1.00  0.00     0.166 A 
ATOM     24  C   UNL     1     -20.531 -38.436  19.543  1.00  0.00     0.004 A 
ATOM     25  C   UNL     1     -22.906 -38.054  19.681  1.00  0.00     0.161 A 
ATOM     26  C   UNL     1     -21.674 -37.793  19.081  1.00  0.00     0.050 A 
BRANCH  23  27
ATOM     27  O   UNL     1     -24.209 -39.320  21.309  1.00  0.00    -0.492 OA
ATOM     28  C   UNL     1     -25.125 -39.987  20.439  1.00  0.00     0.278 C 
ENDBRANCH  23  27
BRANCH  25  29
ATOM     29  O   UNL     1     -23.992 -37.361  19.211  1.00  0.00    -0.493 OA
ATOM     30  C   UNL     1     -24.013 -36.052  19.784  1.00  0.00     0.278 C 
ENDBRANCH  25  29
ENDBRANCH  11  21
ENDBRANCH   1   7
BRANCH   4  31
ATOM     31  S   UNL     1     -26.123 -44.948  18.835  1.00  0.00     0.238 S 
ATOM     32  O   UNL     1     -26.158 -46.322  19.277  1.00  0.00    -0.207 OA
ATOM     33  O   UNL     1     -27.304 -44.118  18.778  1.00  0.00    -0.207 OA
BRANCH  31  34
ATOM     34  N   UNL     1     -25.475 -44.919  17.280  1.00  0.00    -0.225 NA
ATOM     35  H   UNL     1     -25.469 -45.832  16.830  1.00  0.00     0.137 HD
ATOM     36  H   UNL     1     -24.542 -44.507  17.321  1.00  0.00     0.137 HD
ENDBRANCH  31  34
ENDBRANCH   4  31
TORSDOF 7
ENDMDL
MODEL 9
REMARK VINA RESULT:    -7.545      5.443      8.380
REMARK INTER + INTRA:         -11.488
REMARK INTER:                  -9.963
REMARK INTRA:                  -1.525
REMARK UNBOUND:                -1.075
REMARK SMILES COc1cccc([C@@H]2C=C(c3cc(F)cc(F)c3)NN2c2ccc(S(N)(=O)=O)cc2)c1OC
REMARK SMILES IDX 21 1 22 2 23 3 24 4 29 5 30 6 20 7 19 8 10 9 9 10 8 11 11 13
REMARK SMILES IDX 12 14 18 15 13 16 16 17 15 18 14 19 17 20 7 21 6 22 31 23
REMARK SMILES IDX 5 24 3 25 4 26 32 27 33 28 2 29 1 30 25 31 27 32 28 33 26 34
REMARK H PARENT 19 12 26 35 26 36
ROOT
ATOM      1  C   UNL     1     -23.027 -40.601  27.208  1.00  0.00     0.058 A 
ATOM      2  C   UNL     1     -24.082 -41.470  27.529  1.00  0.00     0.029 A 
ATOM      3  C   UNL     1     -25.232 -41.019  28.188  1.00  0.00     0.024 A 
ATOM      4  C   UNL     1     -25.343 -39.673  28.533  1.00  0.00     0.082 A 
ATOM      5  C   UNL     1     -24.310 -38.785  28.245  1.00  0.00     0.024 A 
ATOM      6  C   UNL     1     -23.168 -39.253  27.584  1.00  0.00     0.029 A 
ENDROOT
BRANCH   1   7
ATOM      7  N   UNL     1     -21.876 -41.031  26.549  1.00  0.00    -0.276 N 
ATOM      8  N   UNL     1     -20.759 -41.585  27.154  1.00  0.00    -0.297 N 
ATOM      9  C   UNL     1     -19.738 -41.722  26.220  1.00  0.00     0.060 C 
ATOM     10  C   UNL     1     -20.176 -41.356  25.005  1.00  0.00     0.033 C 
ATOM     11  C   UNL     1     -21.621 -40.889  25.082  1.00  0.00     0.165 C 
ATOM     12  H   UNL     1     -20.431 -41.103  27.993  1.00  0.00     0.188 HD
BRANCH   9  13
ATOM     13  C   UNL     1     -18.401 -42.188  26.598  1.00  0.00     0.005 A 
ATOM     14  C   UNL     1     -18.074 -42.378  27.949  1.00  0.00     0.049 A 
ATOM     15  C   UNL     1     -17.415 -42.439  25.634  1.00  0.00     0.049 A 
ATOM     16  C   UNL     1     -16.799 -42.810  28.311  1.00  0.00     0.126 A 
ATOM     17  C   UNL     1     -16.147 -42.870  26.020  1.00  0.00     0.126 A 
ATOM     18  C   UNL     1     -15.827 -43.059  27.355  1.00  0.00     0.078 A 
ATOM     19  F   UNL     1     -16.510 -42.987  29.607  1.00  0.00    -0.207 F 
ATOM     20  F   UNL     1     -15.220 -43.101  25.081  1.00  0.00    -0.207 F 
ENDBRANCH   9  13
BRANCH  11  21
ATOM     21  C   UNL     1     -22.529 -41.745  24.216  1.00  0.00     0.026 A 
ATOM     22  C   UNL     1     -22.451 -43.152  24.249  1.00  0.00     0.010 A 
ATOM     23  C   UNL     1     -23.448 -41.145  23.337  1.00  0.00     0.166 A 
ATOM     24  C   UNL     1     -23.274 -43.940  23.443  1.00  0.00     0.004 A 
ATOM     25  C   UNL     1     -24.229 -41.944  22.487  1.00  0.00     0.161 A 
ATOM     26  C   UNL     1     -24.167 -43.336  22.564  1.00  0.00     0.050 A 
BRANCH  23  27
ATOM     27  O   UNL     1     -23.490 -39.772  23.316  1.00  0.00    -0.492 OA
ATOM     28  C   UNL     1     -24.543 -39.230  24.116  1.00  0.00     0.278 C 
ENDBRANCH  23  27
BRANCH  25  29
ATOM     29  O   UNL     1     -25.098 -41.405  21.574  1.00  0.00    -0.493 OA
ATOM     30  C   UNL     1     -25.452 -42.392  20.604  1.00  0.00     0.278 C 
ENDBRANCH  25  29
ENDBRANCH  11  21
ENDBRANCH   1   7
BRANCH   4  31
ATOM     31  S   UNL     1     -26.795 -39.104  29.373  1.00  0.00     0.238 S 
ATOM     32  O   UNL     1     -26.735 -37.666  29.475  1.00  0.00    -0.207 OA
ATOM     33  O   UNL     1     -27.941 -39.801  28.835  1.00  0.00    -0.207 OA
BRANCH  31  34
ATOM     34  N   UNL     1     -26.561 -39.745  30.914  1.00  0.00    -0.225 NA
ATOM     35  H   UNL     1     -25.728 -39.385  31.376  1.00  0.00     0.137 HD
ATOM     36  H   UNL     1     -26.552 -40.763  30.847  1.00  0.00     0.137 HD
ENDBRANCH  31  34
ENDBRANCH   4  31
TORSDOF 7
ENDMDL
