MODEL 1
REMARK VINA RESULT:   -11.716      0.000      0.000
REMARK INTER + INTRA:         -18.998
REMARK INTER:                 -18.566
REMARK INTRA:                  -0.432
REMARK UNBOUND:                -0.432
REMARK SMILES CC[N@@H+](CCCOc1ccc2c(=O)c3ccccc3oc2c1)Cc1cccc(OC(=O)NC)c1
REMARK SMILES IDX 3 1 2 3 1 4 4 5 5 6 6 7 7 8 8 9 9 10 22 11 10 12 21 13 11 14
REMARK SMILES IDX 20 15 12 16 19 17 14 18 18 19 15 20 17 21 16 22 13 23 23 24
REMARK SMILES IDX 24 25 25 26 34 27 26 28 28 29 27 30 29 31 30 32 32 33 31 34
REMARK SMILES IDX 33 35
REMARK H PARENT 3 2 32 36
ROOT
ATOM      1  N   UNL     1     -10.349 -45.228  29.950  1.00  0.00    -0.331 N 
ATOM      2  H   UNL     1      -9.885 -45.622  29.123  1.00  0.00     0.348 HD
ENDROOT
BRANCH   1   3
ATOM      3  C   UNL     1     -10.149 -46.283  31.021  1.00  0.00     0.259 C 
ATOM      4  C   UNL     1      -8.729 -46.810  31.131  1.00  0.00     0.071 C 
ENDBRANCH   1   3
BRANCH   1   5
ATOM      5  C   UNL     1     -11.786 -44.981  29.513  1.00  0.00     0.266 C 
BRANCH   5   6
ATOM      6  C   UNL     1     -12.100 -45.739  28.232  1.00  0.00     0.103 C 
BRANCH   6   7
ATOM      7  C   UNL     1     -13.448 -45.298  27.659  1.00  0.00     0.235 C 
BRANCH   7   8
ATOM      8  O   UNL     1     -13.270 -44.148  26.836  1.00  0.00    -0.493 OA
BRANCH   8   9
ATOM      9  C   UNL     1     -14.308 -43.705  26.066  1.00  0.00     0.123 A 
ATOM     10  C   UNL     1     -14.338 -43.644  24.672  1.00  0.00     0.047 A 
ATOM     11  C   UNL     1     -15.429 -43.289  26.796  1.00  0.00     0.094 A 
ATOM     12  C   UNL     1     -15.482 -43.180  24.015  1.00  0.00     0.020 A 
ATOM     13  C   UNL     1     -16.572 -42.823  26.144  1.00  0.00     0.142 A 
ATOM     14  C   UNL     1     -16.595 -42.774  24.755  1.00  0.00     0.066 A 
ATOM     15  O   UNL     1     -17.622 -42.436  26.940  1.00  0.00    -0.456 OA
ATOM     16  C   UNL     1     -17.809 -42.292  24.083  1.00  0.00     0.200 A 
ATOM     17  C   UNL     1     -18.758 -41.961  26.332  1.00  0.00     0.138 A 
ATOM     18  C   UNL     1     -18.916 -41.864  24.950  1.00  0.00     0.065 A 
ATOM     19  C   UNL     1     -19.797 -41.562  27.173  1.00  0.00     0.048 A 
ATOM     20  C   UNL     1     -20.105 -41.372  24.400  1.00  0.00     0.016 A 
ATOM     21  C   UNL     1     -20.986 -41.069  26.631  1.00  0.00     0.004 A 
ATOM     22  C   UNL     1     -21.140 -40.974  25.246  1.00  0.00     0.001 A 
ATOM     23  O   UNL     1     -17.886 -42.257  22.862  1.00  0.00    -0.288 OA
ENDBRANCH   8   9
ENDBRANCH   7   8
ENDBRANCH   6   7
ENDBRANCH   5   6
ENDBRANCH   1   5
BRANCH   1  24
ATOM     24  C   UNL     1      -9.556 -43.943  30.191  1.00  0.00     0.299 C 
BRANCH  24  25
ATOM     25  C   UNL     1      -9.676 -43.342  31.563  1.00  0.00     0.010 A 
ATOM     26  C   UNL     1      -8.585 -43.308  32.446  1.00  0.00     0.010 A 
ATOM     27  C   UNL     1     -10.909 -42.842  31.999  1.00  0.00     0.056 A 
ATOM     28  C   UNL     1      -8.744 -42.835  33.752  1.00  0.00     0.004 A 
ATOM     29  C   UNL     1     -11.077 -42.446  33.324  1.00  0.00     0.133 A 
ATOM     30  C   UNL     1      -9.996 -42.414  34.199  1.00  0.00     0.047 A 
BRANCH  29  31
ATOM     31  O   UNL     1     -12.326 -42.041  33.823  1.00  0.00    -0.410 OA
BRANCH  31  32
ATOM     32  C   UNL     1     -13.463 -42.531  33.185  1.00  0.00     0.412 C 
ATOM     33  N   UNL     1     -14.455 -41.596  33.249  1.00  0.00    -0.324 N 
ATOM     34  O   UNL     1     -13.563 -43.622  32.634  1.00  0.00    -0.224 OA
ATOM     35  C   UNL     1     -15.737 -41.768  32.618  1.00  0.00     0.146 C 
ATOM     36  H   UNL     1     -14.217 -40.703  33.663  1.00  0.00     0.166 HD
ENDBRANCH  31  32
ENDBRANCH  29  31
ENDBRANCH  24  25
ENDBRANCH   1  24
TORSDOF 10
ENDMDL
MODEL 2
REMARK VINA RESULT:   -11.659      1.443      2.649
REMARK INTER + INTRA:         -18.907
REMARK INTER:                 -18.388
REMARK INTRA:                  -0.519
REMARK UNBOUND:                -0.432
REMARK SMILES CC[N@@H+](CCCOc1ccc2c(=O)c3ccccc3oc2c1)Cc1cccc(OC(=O)NC)c1
REMARK SMILES IDX 3 1 2 3 1 4 4 5 5 6 6 7 7 8 8 9 9 10 22 11 10 12 21 13 11 14
REMARK SMILES IDX 20 15 12 16 19 17 14 18 18 19 15 20 17 21 16 22 13 23 23 24
REMARK SMILES IDX 24 25 25 26 34 27 26 28 28 29 27 30 29 31 30 32 32 33 31 34
REMARK SMILES IDX 33 35
REMARK H PARENT 3 2 32 36
ROOT
ATOM      1  N   UNL     1     -10.668 -45.539  29.929  1.00  0.00    -0.331 N 
ATOM      2  H   UNL     1     -10.304 -44.676  30.353  1.00  0.00     0.348 HD
ENDROOT
BRANCH   1   3
ATOM      3  C   UNL     1      -9.536 -46.535  30.096  1.00  0.00     0.259 C 
ATOM      4  C   UNL     1      -8.717 -46.354  31.361  1.00  0.00     0.071 C 
ENDBRANCH   1   3
BRANCH   1   5
ATOM      5  C   UNL     1     -11.017 -45.155  28.498  1.00  0.00     0.266 C 
BRANCH   5   6
ATOM      6  C   UNL     1     -12.346 -45.768  28.082  1.00  0.00     0.103 C 
BRANCH   6   7
ATOM      7  C   UNL     1     -13.416 -44.686  27.927  1.00  0.00     0.235 C 
BRANCH   7   8
ATOM      8  O   UNL     1     -13.202 -43.964  26.717  1.00  0.00    -0.493 OA
BRANCH   8   9
ATOM      9  C   UNL     1     -14.277 -43.567  25.973  1.00  0.00     0.123 A 
ATOM     10  C   UNL     1     -14.353 -43.532  24.579  1.00  0.00     0.047 A 
ATOM     11  C   UNL     1     -15.386 -43.169  26.730  1.00  0.00     0.094 A 
ATOM     12  C   UNL     1     -15.530 -43.114  23.951  1.00  0.00     0.020 A 
ATOM     13  C   UNL     1     -16.563 -42.749  26.108  1.00  0.00     0.142 A 
ATOM     14  C   UNL     1     -16.631 -42.727  24.719  1.00  0.00     0.066 A 
ATOM     15  O   UNL     1     -17.598 -42.379  26.930  1.00  0.00    -0.456 OA
ATOM     16  C   UNL     1     -17.879 -42.293  24.078  1.00  0.00     0.200 A 
ATOM     17  C   UNL     1     -18.766 -41.949  26.349  1.00  0.00     0.138 A 
ATOM     18  C   UNL     1     -18.971 -41.882  24.972  1.00  0.00     0.065 A 
ATOM     19  C   UNL     1     -19.789 -41.564  27.216  1.00  0.00     0.048 A 
ATOM     20  C   UNL     1     -20.190 -41.435  24.452  1.00  0.00     0.016 A 
ATOM     21  C   UNL     1     -21.010 -41.117  26.703  1.00  0.00     0.004 A 
ATOM     22  C   UNL     1     -21.210 -41.052  25.323  1.00  0.00     0.001 A 
ATOM     23  O   UNL     1     -17.995 -42.283  22.860  1.00  0.00    -0.288 OA
ENDBRANCH   8   9
ENDBRANCH   7   8
ENDBRANCH   6   7
ENDBRANCH   5   6
ENDBRANCH   1   5
BRANCH   1  24
ATOM     24  C   UNL     1     -11.891 -45.839  30.795  1.00  0.00     0.299 C 
BRANCH  24  25
ATOM     25  C   UNL     1     -12.333 -44.738  31.717  1.00  0.00     0.010 A 
ATOM     26  C   UNL     1     -13.691 -44.503  31.979  1.00  0.00     0.010 A 
ATOM     27  C   UNL     1     -11.380 -43.892  32.298  1.00  0.00     0.056 A 
ATOM     28  C   UNL     1     -14.084 -43.412  32.760  1.00  0.00     0.004 A 
ATOM     29  C   UNL     1     -11.784 -42.764  33.008  1.00  0.00     0.133 A 
ATOM     30  C   UNL     1     -13.130 -42.530  33.266  1.00  0.00     0.047 A 
BRANCH  29  31
ATOM     31  O   UNL     1     -10.857 -41.836  33.511  1.00  0.00    -0.410 OA
BRANCH  31  32
ATOM     32  C   UNL     1      -9.644 -42.329  33.986  1.00  0.00     0.412 C 
ATOM     33  N   UNL     1      -8.890 -42.761  32.934  1.00  0.00    -0.324 N 
ATOM     34  O   UNL     1      -9.292 -42.359  35.160  1.00  0.00    -0.224 OA
ATOM     35  C   UNL     1      -7.549 -43.260  33.084  1.00  0.00     0.146 C 
ATOM     36  H   UNL     1      -9.265 -42.606  32.007  1.00  0.00     0.166 HD
ENDBRANCH  31  32
ENDBRANCH  29  31
ENDBRANCH  24  25
ENDBRANCH   1  24
TORSDOF 10
ENDMDL
MODEL 3
REMARK VINA RESULT:   -11.596      1.984      3.865
REMARK INTER + INTRA:         -18.807
REMARK INTER:                 -18.109
REMARK INTRA:                  -0.697
REMARK UNBOUND:                -0.432
REMARK SMILES CC[N@@H+](CCCOc1ccc2c(=O)c3ccccc3oc2c1)Cc1cccc(OC(=O)NC)c1
REMARK SMILES IDX 3 1 2 3 1 4 4 5 5 6 6 7 7 8 8 9 9 10 22 11 10 12 21 13 11 14
REMARK SMILES IDX 20 15 12 16 19 17 14 18 18 19 15 20 17 21 16 22 13 23 23 24
REMARK SMILES IDX 24 25 25 26 34 27 26 28 28 29 27 30 29 31 30 32 32 33 31 34
REMARK SMILES IDX 33 35
REMARK H PARENT 3 2 32 36
ROOT
ATOM      1  N   UNL     1     -13.152 -44.016  32.383  1.00  0.00    -0.331 N 
ATOM      2  H   UNL     1     -12.863 -44.529  33.225  1.00  0.00     0.348 HD
ENDROOT
BRANCH   1   3
ATOM      3  C   UNL     1     -14.532 -43.491  32.730  1.00  0.00     0.259 C 
ATOM      4  C   UNL     1     -14.541 -42.125  33.392  1.00  0.00     0.071 C 
ENDBRANCH   1   3
BRANCH   1   5
ATOM      5  C   UNL     1     -13.087 -45.039  31.258  1.00  0.00     0.266 C 
BRANCH   5   6
ATOM      6  C   UNL     1     -14.092 -44.707  30.166  1.00  0.00     0.103 C 
BRANCH   6   7
ATOM      7  C   UNL     1     -13.540 -45.085  28.790  1.00  0.00     0.235 C 
BRANCH   7   8
ATOM      8  O   UNL     1     -13.338 -43.908  28.011  1.00  0.00    -0.493 OA
BRANCH   8   9
ATOM      9  C   UNL     1     -14.228 -43.595  27.023  1.00  0.00     0.123 A 
ATOM     10  C   UNL     1     -14.009 -43.699  25.648  1.00  0.00     0.047 A 
ATOM     11  C   UNL     1     -15.467 -43.135  27.488  1.00  0.00     0.094 A 
ATOM     12  C   UNL     1     -15.024 -43.355  24.749  1.00  0.00     0.020 A 
ATOM     13  C   UNL     1     -16.481 -42.789  26.594  1.00  0.00     0.142 A 
ATOM     14  C   UNL     1     -16.256 -42.904  25.227  1.00  0.00     0.066 A 
ATOM     15  O   UNL     1     -17.662 -42.349  27.141  1.00  0.00    -0.456 OA
ATOM     16  C   UNL     1     -17.337 -42.547  24.299  1.00  0.00     0.200 A 
ATOM     17  C   UNL     1     -18.677 -41.989  26.288  1.00  0.00     0.138 A 
ATOM     18  C   UNL     1     -18.587 -42.059  24.899  1.00  0.00     0.065 A 
ATOM     19  C   UNL     1     -19.855 -41.530  26.879  1.00  0.00     0.048 A 
ATOM     20  C   UNL     1     -19.665 -41.677  24.093  1.00  0.00     0.016 A 
ATOM     21  C   UNL     1     -20.935 -41.146  26.080  1.00  0.00     0.004 A 
ATOM     22  C   UNL     1     -20.840 -41.219  24.689  1.00  0.00     0.001 A 
ATOM     23  O   UNL     1     -17.195 -42.658  23.089  1.00  0.00    -0.288 OA
ENDBRANCH   8   9
ENDBRANCH   7   8
ENDBRANCH   6   7
ENDBRANCH   5   6
ENDBRANCH   1   5
BRANCH   1  24
ATOM     24  C   UNL     1     -12.084 -42.927  32.280  1.00  0.00     0.299 C 
BRANCH  24  25
ATOM     25  C   UNL     1     -10.763 -43.353  31.703  1.00  0.00     0.010 A 
ATOM     26  C   UNL     1      -9.660 -43.630  32.525  1.00  0.00     0.010 A 
ATOM     27  C   UNL     1     -10.603 -43.435  30.315  1.00  0.00     0.056 A 
ATOM     28  C   UNL     1      -8.414 -43.928  31.965  1.00  0.00     0.004 A 
ATOM     29  C   UNL     1      -9.342 -43.654  29.765  1.00  0.00     0.133 A 
ATOM     30  C   UNL     1      -8.249 -43.927  30.580  1.00  0.00     0.047 A 
BRANCH  29  31
ATOM     31  O   UNL     1      -9.127 -43.634  28.377  1.00  0.00    -0.410 OA
BRANCH  31  32
ATOM     32  C   UNL     1      -9.045 -42.390  27.755  1.00  0.00     0.412 C 
ATOM     33  N   UNL     1      -7.788 -42.218  27.253  1.00  0.00    -0.324 N 
ATOM     34  O   UNL     1      -9.958 -41.579  27.654  1.00  0.00    -0.224 OA
ATOM     35  C   UNL     1      -7.402 -41.062  26.488  1.00  0.00     0.146 C 
ATOM     36  H   UNL     1      -7.150 -42.999  27.336  1.00  0.00     0.166 HD
ENDBRANCH  31  32
ENDBRANCH  29  31
ENDBRANCH  24  25
ENDBRANCH   1  24
TORSDOF 10
ENDMDL
MODEL 4
REMARK VINA RESULT:   -11.306      1.627      2.406
REMARK INTER + INTRA:         -18.348
REMARK INTER:                 -17.356
REMARK INTRA:                  -0.992
REMARK UNBOUND:                -0.432
REMARK SMILES CC[N@@H+](CCCOc1ccc2c(=O)c3ccccc3oc2c1)Cc1cccc(OC(=O)NC)c1
REMARK SMILES IDX 3 1 2 3 1 4 4 5 5 6 6 7 7 8 8 9 9 10 22 11 10 12 21 13 11 14
REMARK SMILES IDX 20 15 12 16 19 17 14 18 18 19 15 20 17 21 16 22 13 23 23 24
REMARK SMILES IDX 24 25 25 26 34 27 26 28 28 29 27 30 29 31 30 32 32 33 31 34
REMARK SMILES IDX 33 35
REMARK H PARENT 3 2 32 36
ROOT
ATOM      1  N   UNL     1      -9.366 -42.641  28.700  1.00  0.00    -0.331 N 
ATOM      2  H   UNL     1      -9.981 -41.850  28.925  1.00  0.00     0.348 HD
ENDROOT
BRANCH   1   3
ATOM      3  C   UNL     1      -8.147 -41.992  28.073  1.00  0.00     0.259 C 
ATOM      4  C   UNL     1      -8.160 -41.957  26.555  1.00  0.00     0.071 C 
ENDBRANCH   1   3
BRANCH   1   5
ATOM      5  C   UNL     1     -10.193 -43.534  27.787  1.00  0.00     0.266 C 
BRANCH   5   6
ATOM      6  C   UNL     1     -11.610 -42.999  27.645  1.00  0.00     0.103 C 
BRANCH   6   7
ATOM      7  C   UNL     1     -12.611 -44.147  27.504  1.00  0.00     0.235 C 
BRANCH   7   8
ATOM      8  O   UNL     1     -13.922 -43.687  27.822  1.00  0.00    -0.493 OA
BRANCH   8   9
ATOM      9  C   UNL     1     -14.795 -43.396  26.812  1.00  0.00     0.123 A 
ATOM     10  C   UNL     1     -14.557 -43.543  25.444  1.00  0.00     0.047 A 
ATOM     11  C   UNL     1     -16.035 -42.911  27.244  1.00  0.00     0.094 A 
ATOM     12  C   UNL     1     -15.554 -43.218  24.519  1.00  0.00     0.020 A 
ATOM     13  C   UNL     1     -17.033 -42.582  26.325  1.00  0.00     0.142 A 
ATOM     14  C   UNL     1     -16.790 -42.741  24.966  1.00  0.00     0.066 A 
ATOM     15  O   UNL     1     -18.217 -42.115  26.840  1.00  0.00    -0.456 OA
ATOM     16  C   UNL     1     -17.853 -42.401  24.011  1.00  0.00     0.200 A 
ATOM     17  C   UNL     1     -19.216 -41.771  25.962  1.00  0.00     0.138 A 
ATOM     18  C   UNL     1     -19.107 -41.885  24.577  1.00  0.00     0.065 A 
ATOM     19  C   UNL     1     -20.398 -41.284  26.521  1.00  0.00     0.048 A 
ATOM     20  C   UNL     1     -20.169 -41.517  23.744  1.00  0.00     0.016 A 
ATOM     21  C   UNL     1     -21.462 -40.914  25.695  1.00  0.00     0.004 A 
ATOM     22  C   UNL     1     -21.348 -41.030  24.308  1.00  0.00     0.001 A 
ATOM     23  O   UNL     1     -17.694 -42.551  22.807  1.00  0.00    -0.288 OA
ENDBRANCH   8   9
ENDBRANCH   7   8
ENDBRANCH   6   7
ENDBRANCH   5   6
ENDBRANCH   1   5
BRANCH   1  24
ATOM     24  C   UNL     1      -9.102 -43.253  30.076  1.00  0.00     0.299 C 
BRANCH  24  25
ATOM     25  C   UNL     1     -10.244 -44.013  30.689  1.00  0.00     0.010 A 
ATOM     26  C   UNL     1     -10.161 -45.393  30.929  1.00  0.00     0.010 A 
ATOM     27  C   UNL     1     -11.440 -43.350  30.990  1.00  0.00     0.056 A 
ATOM     28  C   UNL     1     -11.269 -46.099  31.408  1.00  0.00     0.004 A 
ATOM     29  C   UNL     1     -12.561 -44.073  31.391  1.00  0.00     0.133 A 
ATOM     30  C   UNL     1     -12.478 -45.441  31.627  1.00  0.00     0.047 A 
BRANCH  29  31
ATOM     31  O   UNL     1     -13.805 -43.454  31.597  1.00  0.00    -0.410 OA
BRANCH  31  32
ATOM     32  C   UNL     1     -14.227 -43.278  32.913  1.00  0.00     0.412 C 
ATOM     33  N   UNL     1     -14.030 -41.979  33.280  1.00  0.00    -0.324 N 
ATOM     34  O   UNL     1     -14.717 -44.143  33.631  1.00  0.00    -0.224 OA
ATOM     35  C   UNL     1     -14.431 -41.457  34.559  1.00  0.00     0.146 C 
ATOM     36  H   UNL     1     -13.691 -41.347  32.566  1.00  0.00     0.166 HD
ENDBRANCH  31  32
ENDBRANCH  29  31
ENDBRANCH  24  25
ENDBRANCH   1  24
TORSDOF 10
ENDMDL
MODEL 5
REMARK VINA RESULT:   -10.788      2.105      2.736
REMARK INTER + INTRA:         -17.526
REMARK INTER:                 -16.571
REMARK INTRA:                  -0.956
REMARK UNBOUND:                -0.432
REMARK SMILES CC[N@@H+](CCCOc1ccc2c(=O)c3ccccc3oc2c1)Cc1cccc(OC(=O)NC)c1
REMARK SMILES IDX 3 1 2 3 1 4 4 5 5 6 6 7 7 8 8 9 9 10 22 11 10 12 21 13 11 14
REMARK SMILES IDX 20 15 12 16 19 17 14 18 18 19 15 20 17 21 16 22 13 23 23 24
REMARK SMILES IDX 24 25 25 26 34 27 26 28 28 29 27 30 29 31 30 32 32 33 31 34
REMARK SMILES IDX 33 35
REMARK H PARENT 3 2 32 36
ROOT
ATOM      1  N   UNL     1     -11.545 -43.240  28.685  1.00  0.00    -0.331 N 
ATOM      2  H   UNL     1     -12.223 -42.746  29.279  1.00  0.00     0.348 HD
ENDROOT
BRANCH   1   3
ATOM      3  C   UNL     1     -10.294 -42.388  28.769  1.00  0.00     0.259 C 
ATOM      4  C   UNL     1      -9.284 -42.638  27.664  1.00  0.00     0.071 C 
ENDBRANCH   1   3
BRANCH   1   5
ATOM      5  C   UNL     1     -12.209 -43.324  27.318  1.00  0.00     0.266 C 
BRANCH   5   6
ATOM      6  C   UNL     1     -12.878 -44.676  27.123  1.00  0.00     0.103 C 
BRANCH   6   7
ATOM      7  C   UNL     1     -14.294 -44.505  26.570  1.00  0.00     0.235 C 
BRANCH   7   8
ATOM      8  O   UNL     1     -14.285 -43.558  25.504  1.00  0.00    -0.493 OA
BRANCH   8   9
ATOM      9  C   UNL     1     -15.468 -43.177  24.935  1.00  0.00     0.123 A 
ATOM     10  C   UNL     1     -15.774 -43.194  23.573  1.00  0.00     0.047 A 
ATOM     11  C   UNL     1     -16.433 -42.740  25.850  1.00  0.00     0.094 A 
ATOM     12  C   UNL     1     -17.038 -42.787  23.133  1.00  0.00     0.020 A 
ATOM     13  C   UNL     1     -17.695 -42.331  25.416  1.00  0.00     0.142 A 
ATOM     14  C   UNL     1     -17.994 -42.360  24.059  1.00  0.00     0.066 A 
ATOM     15  O   UNL     1     -18.577 -41.919  26.384  1.00  0.00    -0.456 OA
ATOM     16  C   UNL     1     -19.329 -41.937  23.618  1.00  0.00     0.200 A 
ATOM     17  C   UNL     1     -19.824 -41.498  25.990  1.00  0.00     0.138 A 
ATOM     18  C   UNL     1     -20.255 -41.481  24.664  1.00  0.00     0.065 A 
ATOM     19  C   UNL     1     -20.687 -41.071  27.000  1.00  0.00     0.048 A 
ATOM     20  C   UNL     1     -21.542 -41.041  24.338  1.00  0.00     0.016 A 
ATOM     21  C   UNL     1     -21.974 -40.630  26.680  1.00  0.00     0.004 A 
ATOM     22  C   UNL     1     -22.401 -40.615  25.351  1.00  0.00     0.001 A 
ATOM     23  O   UNL     1     -19.647 -41.971  22.437  1.00  0.00    -0.288 OA
ENDBRANCH   8   9
ENDBRANCH   7   8
ENDBRANCH   6   7
ENDBRANCH   5   6
ENDBRANCH   1   5
BRANCH   1  24
ATOM     24  C   UNL     1     -11.422 -44.593  29.386  1.00  0.00     0.299 C 
BRANCH  24  25
ATOM     25  C   UNL     1     -12.321 -44.806  30.571  1.00  0.00     0.010 A 
ATOM     26  C   UNL     1     -12.550 -46.087  31.096  1.00  0.00     0.010 A 
ATOM     27  C   UNL     1     -12.986 -43.716  31.146  1.00  0.00     0.056 A 
ATOM     28  C   UNL     1     -13.467 -46.275  32.135  1.00  0.00     0.004 A 
ATOM     29  C   UNL     1     -13.955 -43.922  32.125  1.00  0.00     0.133 A 
ATOM     30  C   UNL     1     -14.183 -45.192  32.644  1.00  0.00     0.047 A 
BRANCH  29  31
ATOM     31  O   UNL     1     -14.717 -42.863  32.646  1.00  0.00    -0.410 OA
BRANCH  31  32
ATOM     32  C   UNL     1     -14.155 -42.108  33.673  1.00  0.00     0.412 C 
ATOM     33  N   UNL     1     -15.146 -41.460  34.351  1.00  0.00    -0.324 N 
ATOM     34  O   UNL     1     -12.961 -42.043  33.944  1.00  0.00    -0.224 OA
ATOM     35  C   UNL     1     -14.899 -40.654  35.517  1.00  0.00     0.146 C 
ATOM     36  H   UNL     1     -16.098 -41.663  34.076  1.00  0.00     0.166 HD
ENDBRANCH  31  32
ENDBRANCH  29  31
ENDBRANCH  24  25
ENDBRANCH   1  24
TORSDOF 10
ENDMDL
MODEL 6
REMARK VINA RESULT:   -10.413      2.970      5.367
REMARK INTER + INTRA:         -16.933
REMARK INTER:                 -16.135
REMARK INTRA:                  -0.798
REMARK UNBOUND:                -0.432
REMARK SMILES CC[N@@H+](CCCOc1ccc2c(=O)c3ccccc3oc2c1)Cc1cccc(OC(=O)NC)c1
REMARK SMILES IDX 3 1 2 3 1 4 4 5 5 6 6 7 7 8 8 9 9 10 22 11 10 12 21 13 11 14
REMARK SMILES IDX 20 15 12 16 19 17 14 18 18 19 15 20 17 21 16 22 13 23 23 24
REMARK SMILES IDX 24 25 25 26 34 27 26 28 28 29 27 30 29 31 30 32 32 33 31 34
REMARK SMILES IDX 33 35
REMARK H PARENT 3 2 32 36
ROOT
ATOM      1  N   UNL     1     -13.189 -43.261  27.275  1.00  0.00    -0.331 N 
ATOM      2  H   UNL     1     -13.376 -42.874  28.208  1.00  0.00     0.348 HD
ENDROOT
BRANCH   1   3
ATOM      3  C   UNL     1     -11.776 -42.808  26.967  1.00  0.00     0.259 C 
ATOM      4  C   UNL     1     -10.976 -42.364  28.178  1.00  0.00     0.071 C 
ENDBRANCH   1   3
BRANCH   1   5
ATOM      5  C   UNL     1     -14.286 -42.689  26.387  1.00  0.00     0.266 C 
BRANCH   5   6
ATOM      6  C   UNL     1     -14.197 -43.262  24.981  1.00  0.00     0.103 C 
BRANCH   6   7
ATOM      7  C   UNL     1     -15.441 -42.899  24.169  1.00  0.00     0.235 C 
BRANCH   7   8
ATOM      8  O   UNL     1     -16.613 -43.143  24.944  1.00  0.00    -0.493 OA
BRANCH   8   9
ATOM      9  C   UNL     1     -17.767 -42.476  24.645  1.00  0.00     0.123 A 
ATOM     10  C   UNL     1     -18.890 -42.357  25.466  1.00  0.00     0.047 A 
ATOM     11  C   UNL     1     -17.771 -41.868  23.384  1.00  0.00     0.094 A 
ATOM     12  C   UNL     1     -20.002 -41.628  25.031  1.00  0.00     0.020 A 
ATOM     13  C   UNL     1     -18.878 -41.140  22.946  1.00  0.00     0.142 A 
ATOM     14  C   UNL     1     -19.988 -41.020  23.773  1.00  0.00     0.066 A 
ATOM     15  O   UNL     1     -18.792 -40.577  21.696  1.00  0.00    -0.456 OA
ATOM     16  C   UNL     1     -21.142 -40.242  23.303  1.00  0.00     0.200 A 
ATOM     17  C   UNL     1     -19.869 -39.865  21.229  1.00  0.00     0.138 A 
ATOM     18  C   UNL     1     -21.041 -39.663  21.956  1.00  0.00     0.065 A 
ATOM     19  C   UNL     1     -19.751 -39.323  19.948  1.00  0.00     0.048 A 
ATOM     20  C   UNL     1     -22.098 -38.923  21.416  1.00  0.00     0.016 A 
ATOM     21  C   UNL     1     -20.804 -38.583  19.402  1.00  0.00     0.004 A 
ATOM     22  C   UNL     1     -21.975 -38.384  20.135  1.00  0.00     0.001 A 
ATOM     23  O   UNL     1     -22.130 -40.086  24.007  1.00  0.00    -0.288 OA
ENDBRANCH   8   9
ENDBRANCH   7   8
ENDBRANCH   6   7
ENDBRANCH   5   6
ENDBRANCH   1   5
BRANCH   1  24
ATOM     24  C   UNL     1     -13.320 -44.766  27.512  1.00  0.00     0.299 C 
BRANCH  24  25
ATOM     25  C   UNL     1     -12.828 -45.269  28.839  1.00  0.00     0.010 A 
ATOM     26  C   UNL     1     -13.588 -45.116  30.009  1.00  0.00     0.010 A 
ATOM     27  C   UNL     1     -11.565 -45.867  28.933  1.00  0.00     0.056 A 
ATOM     28  C   UNL     1     -13.069 -45.502  31.248  1.00  0.00     0.004 A 
ATOM     29  C   UNL     1     -11.025 -46.176  30.179  1.00  0.00     0.133 A 
ATOM     30  C   UNL     1     -11.778 -46.021  31.338  1.00  0.00     0.047 A 
BRANCH  29  31
ATOM     31  O   UNL     1      -9.720 -46.675  30.317  1.00  0.00    -0.410 OA
BRANCH  31  32
ATOM     32  C   UNL     1      -8.758 -45.823  30.856  1.00  0.00     0.412 C 
ATOM     33  N   UNL     1      -8.842 -44.604  30.250  1.00  0.00    -0.324 N 
ATOM     34  O   UNL     1      -7.967 -46.109  31.749  1.00  0.00    -0.224 OA
ATOM     35  C   UNL     1      -8.032 -43.480  30.634  1.00  0.00     0.146 C 
ATOM     36  H   UNL     1      -9.593 -44.475  29.583  1.00  0.00     0.166 HD
ENDBRANCH  31  32
ENDBRANCH  29  31
ENDBRANCH  24  25
ENDBRANCH   1  24
TORSDOF 10
ENDMDL
MODEL 7
REMARK VINA RESULT:   -10.204      3.641      6.506
REMARK INTER + INTRA:         -16.601
REMARK INTER:                 -15.671
REMARK INTRA:                  -0.930
REMARK UNBOUND:                -0.432
REMARK SMILES CC[N@@H+](CCCOc1ccc2c(=O)c3ccccc3oc2c1)Cc1cccc(OC(=O)NC)c1
REMARK SMILES IDX 3 1 2 3 1 4 4 5 5 6 6 7 7 8 8 9 9 10 22 11 10 12 21 13 11 14
REMARK SMILES IDX 20 15 12 16 19 17 14 18 18 19 15 20 17 21 16 22 13 23 23 24
REMARK SMILES IDX 24 25 25 26 34 27 26 28 28 29 27 30 29 31 30 32 32 33 31 34
REMARK SMILES IDX 33 35
REMARK H PARENT 3 2 32 36
ROOT
ATOM      1  N   UNL     1     -15.661 -43.241  26.490  1.00  0.00    -0.331 N 
ATOM      2  H   UNL     1     -15.784 -44.260  26.515  1.00  0.00     0.348 HD
ENDROOT
BRANCH   1   3
ATOM      3  C   UNL     1     -16.099 -42.784  27.868  1.00  0.00     0.259 C 
ATOM      4  C   UNL     1     -17.573 -42.438  27.980  1.00  0.00     0.071 C 
ENDBRANCH   1   3
BRANCH   1   5
ATOM      5  C   UNL     1     -16.519 -42.771  25.323  1.00  0.00     0.266 C 
BRANCH   5   6
ATOM      6  C   UNL     1     -15.873 -43.135  23.995  1.00  0.00     0.103 C 
BRANCH   6   7
ATOM      7  C   UNL     1     -16.888 -43.038  22.855  1.00  0.00     0.235 C 
BRANCH   7   8
ATOM      8  O   UNL     1     -17.111 -41.671  22.521  1.00  0.00    -0.493 OA
BRANCH   8   9
ATOM      9  C   UNL     1     -18.379 -41.164  22.575  1.00  0.00     0.123 A 
ATOM     10  C   UNL     1     -19.312 -41.376  23.592  1.00  0.00     0.047 A 
ATOM     11  C   UNL     1     -18.725 -40.357  21.484  1.00  0.00     0.094 A 
ATOM     12  C   UNL     1     -20.574 -40.778  23.522  1.00  0.00     0.020 A 
ATOM     13  C   UNL     1     -19.984 -39.760  21.408  1.00  0.00     0.142 A 
ATOM     14  C   UNL     1     -20.903 -39.970  22.430  1.00  0.00     0.066 A 
ATOM     15  O   UNL     1     -20.234 -38.985  20.303  1.00  0.00    -0.456 OA
ATOM     16  C   UNL     1     -22.220 -39.326  22.342  1.00  0.00     0.200 A 
ATOM     17  C   UNL     1     -21.468 -38.393  20.191  1.00  0.00     0.138 A 
ATOM     18  C   UNL     1     -22.478 -38.516  21.143  1.00  0.00     0.065 A 
ATOM     19  C   UNL     1     -21.691 -37.627  19.046  1.00  0.00     0.048 A 
ATOM     20  C   UNL     1     -23.711 -37.880  20.963  1.00  0.00     0.016 A 
ATOM     21  C   UNL     1     -22.921 -36.990  18.859  1.00  0.00     0.004 A 
ATOM     22  C   UNL     1     -23.929 -37.116  19.816  1.00  0.00     0.001 A 
ATOM     23  O   UNL     1     -23.051 -39.459  23.230  1.00  0.00    -0.288 OA
ENDBRANCH   8   9
ENDBRANCH   7   8
ENDBRANCH   6   7
ENDBRANCH   5   6
ENDBRANCH   1   5
BRANCH   1  24
ATOM     24  C   UNL     1     -14.160 -43.097  26.238  1.00  0.00     0.299 C 
BRANCH  24  25
ATOM     25  C   UNL     1     -13.275 -44.076  26.956  1.00  0.00     0.010 A 
ATOM     26  C   UNL     1     -13.436 -45.462  26.800  1.00  0.00     0.010 A 
ATOM     27  C   UNL     1     -12.292 -43.610  27.838  1.00  0.00     0.056 A 
ATOM     28  C   UNL     1     -12.668 -46.355  27.552  1.00  0.00     0.004 A 
ATOM     29  C   UNL     1     -11.588 -44.505  28.641  1.00  0.00     0.133 A 
ATOM     30  C   UNL     1     -11.750 -45.878  28.486  1.00  0.00     0.047 A 
BRANCH  29  31
ATOM     31  O   UNL     1     -10.674 -44.066  29.612  1.00  0.00    -0.410 OA
BRANCH  31  32
ATOM     32  C   UNL     1     -11.068 -44.137  30.946  1.00  0.00     0.412 C 
ATOM     33  N   UNL     1     -11.858 -43.065  31.242  1.00  0.00    -0.324 N 
ATOM     34  O   UNL     1     -10.771 -45.028  31.735  1.00  0.00    -0.224 OA
ATOM     35  C   UNL     1     -12.488 -42.885  32.523  1.00  0.00     0.146 C 
ATOM     36  H   UNL     1     -12.092 -42.443  30.478  1.00  0.00     0.166 HD
ENDBRANCH  31  32
ENDBRANCH  29  31
ENDBRANCH  24  25
ENDBRANCH   1  24
TORSDOF 10
ENDMDL
MODEL 8
REMARK VINA RESULT:   -10.097      3.577     10.471
REMARK INTER + INTRA:         -16.432
REMARK INTER:                 -15.762
REMARK INTRA:                  -0.671
REMARK UNBOUND:                -0.432
REMARK SMILES CC[N@@H+](CCCOc1ccc2c(=O)c3ccccc3oc2c1)Cc1cccc(OC(=O)NC)c1
REMARK SMILES IDX 3 1 2 3 1 4 4 5 5 6 6 7 7 8 8 9 9 10 22 11 10 12 21 13 11 14
REMARK SMILES IDX 20 15 12 16 19 17 14 18 18 19 15 20 17 21 16 22 13 23 23 24
REMARK SMILES IDX 24 25 25 26 34 27 26 28 28 29 27 30 29 31 30 32 32 33 31 34
REMARK SMILES IDX 33 35
REMARK H PARENT 3 2 32 36
ROOT
ATOM      1  N   UNL     1     -18.176 -42.431  24.326  1.00  0.00    -0.331 N 
ATOM      2  H   UNL     1     -18.785 -43.252  24.229  1.00  0.00     0.348 HD
ENDROOT
BRANCH   1   3
ATOM      3  C   UNL     1     -18.573 -41.541  23.163  1.00  0.00     0.259 C 
ATOM      4  C   UNL     1     -20.008 -41.712  22.699  1.00  0.00     0.071 C 
ENDBRANCH   1   3
BRANCH   1   5
ATOM      5  C   UNL     1     -16.759 -42.986  24.291  1.00  0.00     0.266 C 
BRANCH   5   6
ATOM      6  C   UNL     1     -16.192 -43.113  25.697  1.00  0.00     0.103 C 
BRANCH   6   7
ATOM      7  C   UNL     1     -14.936 -42.255  25.853  1.00  0.00     0.235 C 
BRANCH   7   8
ATOM      8  O   UNL     1     -13.774 -43.075  25.746  1.00  0.00    -0.493 OA
BRANCH   8   9
ATOM      9  C   UNL     1     -13.304 -43.721  26.854  1.00  0.00     0.123 A 
ATOM     10  C   UNL     1     -13.972 -44.705  27.585  1.00  0.00     0.047 A 
ATOM     11  C   UNL     1     -12.021 -43.325  27.251  1.00  0.00     0.094 A 
ATOM     12  C   UNL     1     -13.358 -45.293  28.696  1.00  0.00     0.020 A 
ATOM     13  C   UNL     1     -11.404 -43.907  28.359  1.00  0.00     0.142 A 
ATOM     14  C   UNL     1     -12.075 -44.892  29.076  1.00  0.00     0.066 A 
ATOM     15  O   UNL     1     -10.146 -43.456  28.674  1.00  0.00    -0.456 OA
ATOM     16  C   UNL     1     -11.409 -45.503  30.233  1.00  0.00     0.200 A 
ATOM     17  C   UNL     1      -9.516 -44.000  29.766  1.00  0.00     0.138 A 
ATOM     18  C   UNL     1     -10.071 -44.996  30.568  1.00  0.00     0.065 A 
ATOM     19  C   UNL     1      -8.246 -43.505  30.065  1.00  0.00     0.048 A 
ATOM     20  C   UNL     1      -9.368 -45.505  31.665  1.00  0.00     0.016 A 
ATOM     21  C   UNL     1      -7.538 -44.008  31.160  1.00  0.00     0.004 A 
ATOM     22  C   UNL     1      -8.099 -45.006  31.959  1.00  0.00     0.001 A 
ATOM     23  O   UNL     1     -11.949 -46.393  30.877  1.00  0.00    -0.288 OA
ENDBRANCH   8   9
ENDBRANCH   7   8
ENDBRANCH   6   7
ENDBRANCH   5   6
ENDBRANCH   1   5
BRANCH   1  24
ATOM     24  C   UNL     1     -18.581 -41.880  25.693  1.00  0.00     0.299 C 
BRANCH  24  25
ATOM     25  C   UNL     1     -20.018 -42.077  26.083  1.00  0.00     0.010 A 
ATOM     26  C   UNL     1     -20.912 -40.997  26.156  1.00  0.00     0.010 A 
ATOM     27  C   UNL     1     -20.479 -43.354  26.427  1.00  0.00     0.056 A 
ATOM     28  C   UNL     1     -22.219 -41.187  26.616  1.00  0.00     0.004 A 
ATOM     29  C   UNL     1     -21.756 -43.521  26.958  1.00  0.00     0.133 A 
ATOM     30  C   UNL     1     -22.640 -42.450  27.032  1.00  0.00     0.047 A 
BRANCH  29  31
ATOM     31  O   UNL     1     -22.210 -44.769  27.414  1.00  0.00    -0.410 OA
BRANCH  31  32
ATOM     32  C   UNL     1     -22.872 -44.805  28.639  1.00  0.00     0.412 C 
ATOM     33  N   UNL     1     -24.075 -45.430  28.485  1.00  0.00    -0.324 N 
ATOM     34  O   UNL     1     -22.443 -44.364  29.699  1.00  0.00    -0.224 OA
ATOM     35  C   UNL     1     -24.968 -45.693  29.581  1.00  0.00     0.146 C 
ATOM     36  H   UNL     1     -24.276 -45.819  27.572  1.00  0.00     0.166 HD
ENDBRANCH  31  32
ENDBRANCH  29  31
ENDBRANCH  24  25
ENDBRANCH   1  24
TORSDOF 10
ENDMDL
MODEL 9
REMARK VINA RESULT:    -9.979      5.695     10.525
REMARK INTER + INTRA:         -16.245
REMARK INTER:                 -13.419
REMARK INTRA:                  -2.826
REMARK UNBOUND:                -0.432
REMARK SMILES CC[N@@H+](CCCOc1ccc2c(=O)c3ccccc3oc2c1)Cc1cccc(OC(=O)NC)c1
REMARK SMILES IDX 3 1 2 3 1 4 4 5 5 6 6 7 7 8 8 9 9 10 22 11 10 12 21 13 11 14
REMARK SMILES IDX 20 15 12 16 19 17 14 18 18 19 15 20 17 21 16 22 13 23 23 24
REMARK SMILES IDX 24 25 25 26 34 27 26 28 28 29 27 30 29 31 30 32 32 33 31 34
REMARK SMILES IDX 33 35
REMARK H PARENT 3 2 32 36
ROOT
ATOM      1  N   UNL     1     -22.412 -44.612  22.477  1.00  0.00    -0.331 N 
ATOM      2  H   UNL     1     -21.541 -44.993  22.867  1.00  0.00     0.348 HD
ENDROOT
BRANCH   1   3
ATOM      3  C   UNL     1     -22.997 -45.766  21.687  1.00  0.00     0.259 C 
ATOM      4  C   UNL     1     -22.791 -47.132  22.317  1.00  0.00     0.071 C 
ENDBRANCH   1   3
BRANCH   1   5
ATOM      5  C   UNL     1     -21.981 -43.396  21.670  1.00  0.00     0.266 C 
BRANCH   5   6
ATOM      6  C   UNL     1     -22.767 -42.162  22.087  1.00  0.00     0.103 C 
BRANCH   6   7
ATOM      7  C   UNL     1     -21.824 -41.052  22.553  1.00  0.00     0.235 C 
BRANCH   7   8
ATOM      8  O   UNL     1     -21.976 -40.845  23.955  1.00  0.00    -0.493 OA
BRANCH   8   9
ATOM      9  C   UNL     1     -20.954 -41.178  24.798  1.00  0.00     0.123 A 
ATOM     10  C   UNL     1     -20.972 -41.100  26.192  1.00  0.00     0.047 A 
ATOM     11  C   UNL     1     -19.801 -41.640  24.152  1.00  0.00     0.094 A 
ATOM     12  C   UNL     1     -19.850 -41.490  26.931  1.00  0.00     0.020 A 
ATOM     13  C   UNL     1     -18.678 -42.029  24.884  1.00  0.00     0.142 A 
ATOM     14  C   UNL     1     -18.709 -41.956  26.272  1.00  0.00     0.066 A 
ATOM     15  O   UNL     1     -17.594 -42.469  24.166  1.00  0.00    -0.456 OA
ATOM     16  C   UNL     1     -17.524 -42.379  27.030  1.00  0.00     0.200 A 
ATOM     17  C   UNL     1     -16.469 -42.848  24.856  1.00  0.00     0.138 A 
ATOM     18  C   UNL     1     -16.366 -42.829  26.246  1.00  0.00     0.065 A 
ATOM     19  C   UNL     1     -15.382 -43.273  24.091  1.00  0.00     0.048 A 
ATOM     20  C   UNL     1     -15.187 -43.233  26.880  1.00  0.00     0.016 A 
ATOM     21  C   UNL     1     -14.200 -43.677  24.719  1.00  0.00     0.004 A 
ATOM     22  C   UNL     1     -14.103 -43.656  26.111  1.00  0.00     0.001 A 
ATOM     23  O   UNL     1     -17.515 -42.358  28.254  1.00  0.00    -0.288 OA
ENDBRANCH   8   9
ENDBRANCH   7   8
ENDBRANCH   6   7
ENDBRANCH   5   6
ENDBRANCH   1   5
BRANCH   1  24
ATOM     24  C   UNL     1     -23.206 -44.258  23.735  1.00  0.00     0.299 C 
BRANCH  24  25
ATOM     25  C   UNL     1     -22.482 -44.428  25.041  1.00  0.00     0.010 A 
ATOM     26  C   UNL     1     -21.252 -45.099  25.115  1.00  0.00     0.010 A 
ATOM     27  C   UNL     1     -23.060 -43.952  26.224  1.00  0.00     0.056 A 
ATOM     28  C   UNL     1     -20.644 -45.333  26.352  1.00  0.00     0.004 A 
ATOM     29  C   UNL     1     -22.488 -44.258  27.457  1.00  0.00     0.133 A 
ATOM     30  C   UNL     1     -21.269 -44.924  27.530  1.00  0.00     0.047 A 
BRANCH  29  31
ATOM     31  O   UNL     1     -23.098 -43.890  28.668  1.00  0.00    -0.410 OA
BRANCH  31  32
ATOM     32  C   UNL     1     -24.284 -44.533  29.013  1.00  0.00     0.412 C 
ATOM     33  N   UNL     1     -24.136 -45.878  28.842  1.00  0.00    -0.324 N 
ATOM     34  O   UNL     1     -25.302 -43.987  29.425  1.00  0.00    -0.224 OA
ATOM     35  C   UNL     1     -25.160 -46.829  29.182  1.00  0.00     0.146 C 
ATOM     36  H   UNL     1     -23.217 -46.207  28.572  1.00  0.00     0.166 HD
ENDBRANCH  31  32
ENDBRANCH  29  31
ENDBRANCH  24  25
ENDBRANCH   1  24
TORSDOF 10
ENDMDL
