MODEL 1
REMARK VINA RESULT:    -8.456      0.000      0.000
REMARK INTER + INTRA:         -10.391
REMARK INTER:                 -10.187
REMARK INTRA:                  -0.204
REMARK UNBOUND:                -0.204
REMARK SMILES CN(C)S(=O)(=O)N[C@H]1CCc2cc(O)ccc2C1
REMARK SMILES IDX 7 1 4 3 5 4 6 5 2 6 1 7 3 8 8 9 9 10 18 11 10 12 17 13 11 14
REMARK SMILES IDX 16 15 12 16 15 17 13 18 14 19
REMARK H PARENT 7 2 14 20
ROOT
ATOM      1  N   UNL     1     -13.951 -43.985  28.081  1.00  0.00    -0.199 NA
ATOM      2  H   UNL     1     -14.458 -44.744  28.526  1.00  0.00     0.142 HD
ENDROOT
BRANCH   1   3
ATOM      3  S   UNL     1     -12.304 -44.051  28.298  1.00  0.00     0.279 S 
ATOM      4  O   UNL     1     -11.746 -42.858  27.708  1.00  0.00    -0.195 OA
ATOM      5  O   UNL     1     -11.856 -45.373  27.937  1.00  0.00    -0.195 OA
BRANCH   3   6
ATOM      6  N   UNL     1     -12.229 -43.885  29.981  1.00  0.00    -0.195 NA
ATOM      7  C   UNL     1     -11.058 -43.144  30.495  1.00  0.00     0.125 C 
ATOM      8  C   UNL     1     -12.413 -45.167  30.701  1.00  0.00     0.125 C 
ENDBRANCH   3   6
ENDBRANCH   1   3
BRANCH   1   9
ATOM      9  C   UNL     1     -14.484 -43.413  26.833  1.00  0.00     0.075 C 
ATOM     10  C   UNL     1     -14.263 -44.407  25.692  1.00  0.00     0.025 C 
ATOM     11  C   UNL     1     -15.985 -43.131  26.999  1.00  0.00     0.056 C 
ATOM     12  C   UNL     1     -14.741 -43.812  24.370  1.00  0.00     0.037 C 
ATOM     13  C   UNL     1     -16.688 -42.845  25.692  1.00  0.00    -0.043 A 
ATOM     14  C   UNL     1     -16.117 -43.203  24.457  1.00  0.00    -0.041 A 
ATOM     15  C   UNL     1     -17.963 -42.258  25.720  1.00  0.00     0.008 A 
ATOM     16  C   UNL     1     -16.818 -42.933  23.273  1.00  0.00     0.050 A 
ATOM     17  C   UNL     1     -18.657 -42.004  24.537  1.00  0.00     0.046 A 
ATOM     18  C   UNL     1     -18.075 -42.342  23.321  1.00  0.00     0.115 A 
BRANCH  18  19
ATOM     19  O   UNL     1     -18.713 -42.108  22.139  1.00  0.00    -0.508 OA
ATOM     20  H   UNL     1     -19.299 -41.341  22.253  1.00  0.00     0.293 HD
ENDBRANCH  18  19
ENDBRANCH   1   9
TORSDOF 4
ENDMDL
MODEL 2
REMARK VINA RESULT:    -8.350      3.851      9.054
REMARK INTER + INTRA:         -10.263
REMARK INTER:                 -10.923
REMARK INTRA:                   0.660
REMARK UNBOUND:                -0.204
REMARK SMILES CN(C)S(=O)(=O)N[C@H]1CCc2cc(O)ccc2C1
REMARK SMILES IDX 7 1 4 3 5 4 6 5 2 6 1 7 3 8 8 9 9 10 18 11 10 12 17 13 11 14
REMARK SMILES IDX 16 15 12 16 15 17 13 18 14 19
REMARK H PARENT 7 2 14 20
ROOT
ATOM      1  N   UNL     1     -12.542 -46.140  30.304  1.00  0.00    -0.199 NA
ATOM      2  H   UNL     1     -13.271 -46.728  30.696  1.00  0.00     0.142 HD
ENDROOT
BRANCH   1   3
ATOM      3  S   UNL     1     -13.111 -44.809  29.485  1.00  0.00     0.279 S 
ATOM      4  O   UNL     1     -11.977 -43.961  29.208  1.00  0.00    -0.195 OA
ATOM      5  O   UNL     1     -14.286 -44.329  30.169  1.00  0.00    -0.195 OA
BRANCH   3   6
ATOM      6  N   UNL     1     -13.580 -45.544  28.034  1.00  0.00    -0.195 NA
ATOM      7  C   UNL     1     -12.565 -46.414  27.405  1.00  0.00     0.125 C 
ATOM      8  C   UNL     1     -14.151 -44.589  27.056  1.00  0.00     0.125 C 
ENDBRANCH   3   6
ENDBRANCH   1   3
BRANCH   1   9
ATOM      9  C   UNL     1     -11.251 -46.048  31.007  1.00  0.00     0.075 C 
ATOM     10  C   UNL     1     -10.120 -46.332  30.017  1.00  0.00     0.025 C 
ATOM     11  C   UNL     1     -11.089 -44.639  31.598  1.00  0.00     0.056 C 
ATOM     12  C   UNL     1      -8.772 -46.314  30.733  1.00  0.00     0.037 C 
ATOM     13  C   UNL     1      -9.681 -44.342  32.058  1.00  0.00    -0.043 A 
ATOM     14  C   UNL     1      -8.587 -45.108  31.618  1.00  0.00    -0.041 A 
ATOM     15  C   UNL     1      -9.459 -43.242  32.902  1.00  0.00     0.008 A 
ATOM     16  C   UNL     1      -7.297 -44.780  32.060  1.00  0.00     0.050 A 
ATOM     17  C   UNL     1      -8.171 -42.917  33.327  1.00  0.00     0.046 A 
ATOM     18  C   UNL     1      -7.099 -43.694  32.904  1.00  0.00     0.115 A 
BRANCH  18  19
ATOM     19  O   UNL     1      -5.823 -43.418  33.297  1.00  0.00    -0.508 OA
ATOM     20  H   UNL     1      -5.212 -43.806  32.649  1.00  0.00     0.293 HD
ENDBRANCH  18  19
ENDBRANCH   1   9
TORSDOF 4
ENDMDL
MODEL 3
REMARK VINA RESULT:    -8.209      4.776      8.422
REMARK INTER + INTRA:         -10.092
REMARK INTER:                  -9.809
REMARK INTRA:                  -0.283
REMARK UNBOUND:                -0.204
REMARK SMILES CN(C)S(=O)(=O)N[C@H]1CCc2cc(O)ccc2C1
REMARK SMILES IDX 7 1 4 3 5 4 6 5 2 6 1 7 3 8 8 9 9 10 18 11 10 12 17 13 11 14
REMARK SMILES IDX 16 15 12 16 15 17 13 18 14 19
REMARK H PARENT 7 2 14 20
ROOT
ATOM      1  N   UNL     1     -19.253 -41.742  21.763  1.00  0.00    -0.199 NA
ATOM      2  H   UNL     1     -19.844 -42.553  21.607  1.00  0.00     0.142 HD
ENDROOT
BRANCH   1   3
ATOM      3  S   UNL     1     -19.842 -40.335  21.100  1.00  0.00     0.279 S 
ATOM      4  O   UNL     1     -19.102 -40.093  19.885  1.00  0.00    -0.195 OA
ATOM      5  O   UNL     1     -19.946 -39.353  22.149  1.00  0.00    -0.195 OA
BRANCH   3   6
ATOM      6  N   UNL     1     -21.396 -40.849  20.670  1.00  0.00    -0.195 NA
ATOM      7  C   UNL     1     -22.252 -41.289  21.792  1.00  0.00     0.125 C 
ATOM      8  C   UNL     1     -21.398 -41.841  19.570  1.00  0.00     0.125 C 
ENDBRANCH   3   6
ENDBRANCH   1   3
BRANCH   1   9
ATOM      9  C   UNL     1     -18.463 -41.669  23.005  1.00  0.00     0.075 C 
ATOM     10  C   UNL     1     -19.322 -42.156  24.173  1.00  0.00     0.025 C 
ATOM     11  C   UNL     1     -17.214 -42.553  22.869  1.00  0.00     0.056 C 
ATOM     12  C   UNL     1     -18.554 -42.026  25.486  1.00  0.00     0.037 C 
ATOM     13  C   UNL     1     -16.510 -42.800  24.183  1.00  0.00    -0.043 A 
ATOM     14  C   UNL     1     -17.157 -42.588  25.414  1.00  0.00    -0.041 A 
ATOM     15  C   UNL     1     -15.199 -43.303  24.168  1.00  0.00     0.008 A 
ATOM     16  C   UNL     1     -16.467 -42.850  26.606  1.00  0.00     0.050 A 
ATOM     17  C   UNL     1     -14.525 -43.571  25.360  1.00  0.00     0.046 A 
ATOM     18  C   UNL     1     -15.166 -43.338  26.571  1.00  0.00     0.115 A 
BRANCH  18  19
ATOM     19  O   UNL     1     -14.545 -43.580  27.761  1.00  0.00    -0.508 OA
ATOM     20  H   UNL     1     -15.055 -43.148  28.466  1.00  0.00     0.293 HD
ENDBRANCH  18  19
ENDBRANCH   1   9
TORSDOF 4
ENDMDL
MODEL 4
REMARK VINA RESULT:    -8.146      3.857      5.485
REMARK INTER + INTRA:         -10.016
REMARK INTER:                  -9.880
REMARK INTRA:                  -0.136
REMARK UNBOUND:                -0.204
REMARK SMILES CN(C)S(=O)(=O)N[C@H]1CCc2cc(O)ccc2C1
REMARK SMILES IDX 7 1 4 3 5 4 6 5 2 6 1 7 3 8 8 9 9 10 18 11 10 12 17 13 11 14
REMARK SMILES IDX 16 15 12 16 15 17 13 18 14 19
REMARK H PARENT 7 2 14 20
ROOT
ATOM      1  N   UNL     1      -8.624 -44.228  30.106  1.00  0.00    -0.199 NA
ATOM      2  H   UNL     1      -7.760 -43.811  29.774  1.00  0.00     0.142 HD
ENDROOT
BRANCH   1   3
ATOM      3  S   UNL     1      -8.583 -44.699  31.700  1.00  0.00     0.279 S 
ATOM      4  O   UNL     1      -7.463 -45.597  31.852  1.00  0.00    -0.195 OA
ATOM      5  O   UNL     1      -9.921 -45.059  32.098  1.00  0.00    -0.195 OA
BRANCH   3   6
ATOM      6  N   UNL     1      -8.171 -43.226  32.424  1.00  0.00    -0.195 NA
ATOM      7  C   UNL     1      -6.787 -43.133  32.934  1.00  0.00     0.125 C 
ATOM      8  C   UNL     1      -9.151 -42.784  33.444  1.00  0.00     0.125 C 
ENDBRANCH   3   6
ENDBRANCH   1   3
BRANCH   1   9
ATOM      9  C   UNL     1      -9.900 -43.766  29.531  1.00  0.00     0.075 C 
ATOM     10  C   UNL     1      -9.613 -42.711  28.461  1.00  0.00     0.025 C 
ATOM     11  C   UNL     1     -10.641 -44.958  28.906  1.00  0.00     0.056 C 
ATOM     12  C   UNL     1     -10.920 -42.160  27.897  1.00  0.00     0.037 C 
ATOM     13  C   UNL     1     -11.794 -44.547  28.020  1.00  0.00    -0.043 A 
ATOM     14  C   UNL     1     -11.901 -43.238  27.514  1.00  0.00    -0.041 A 
ATOM     15  C   UNL     1     -12.747 -45.510  27.653  1.00  0.00     0.008 A 
ATOM     16  C   UNL     1     -12.980 -42.912  26.680  1.00  0.00     0.050 A 
ATOM     17  C   UNL     1     -13.810 -45.177  26.814  1.00  0.00     0.046 A 
ATOM     18  C   UNL     1     -13.919 -43.877  26.336  1.00  0.00     0.115 A 
BRANCH  18  19
ATOM     19  O   UNL     1     -14.944 -43.504  25.517  1.00  0.00    -0.508 OA
ATOM     20  H   UNL     1     -14.862 -42.553  25.338  1.00  0.00     0.293 HD
ENDBRANCH  18  19
ENDBRANCH   1   9
TORSDOF 4
ENDMDL
MODEL 5
REMARK VINA RESULT:    -8.075      2.867      8.091
REMARK INTER + INTRA:          -9.931
REMARK INTER:                  -9.748
REMARK INTRA:                  -0.183
REMARK UNBOUND:                -0.204
REMARK SMILES CN(C)S(=O)(=O)N[C@H]1CCc2cc(O)ccc2C1
REMARK SMILES IDX 7 1 4 3 5 4 6 5 2 6 1 7 3 8 8 9 9 10 18 11 10 12 17 13 11 14
REMARK SMILES IDX 16 15 12 16 15 17 13 18 14 19
REMARK H PARENT 7 2 14 20
ROOT
ATOM      1  N   UNL     1     -12.801 -43.197  27.456  1.00  0.00    -0.199 NA
ATOM      2  H   UNL     1     -12.848 -42.503  26.716  1.00  0.00     0.142 HD
ENDROOT
BRANCH   1   3
ATOM      3  S   UNL     1     -13.995 -44.352  27.379  1.00  0.00     0.279 S 
ATOM      4  O   UNL     1     -14.774 -44.244  28.589  1.00  0.00    -0.195 OA
ATOM      5  O   UNL     1     -13.393 -45.592  26.956  1.00  0.00    -0.195 OA
BRANCH   3   6
ATOM      6  N   UNL     1     -14.918 -43.726  26.106  1.00  0.00    -0.195 NA
ATOM      7  C   UNL     1     -14.146 -43.182  24.969  1.00  0.00     0.125 C 
ATOM      8  C   UNL     1     -15.959 -42.772  26.556  1.00  0.00     0.125 C 
ENDBRANCH   3   6
ENDBRANCH   1   3
BRANCH   1   9
ATOM      9  C   UNL     1     -11.482 -43.569  27.997  1.00  0.00     0.075 C 
ATOM     10  C   UNL     1     -10.514 -42.400  27.802  1.00  0.00     0.025 C 
ATOM     11  C   UNL     1     -11.615 -43.894  29.493  1.00  0.00     0.056 C 
ATOM     12  C   UNL     1      -9.118 -42.781  28.288  1.00  0.00     0.037 C 
ATOM     13  C   UNL     1     -10.286 -43.975  30.208  1.00  0.00    -0.043 A 
ATOM     14  C   UNL     1      -9.120 -43.415  29.655  1.00  0.00    -0.041 A 
ATOM     15  C   UNL     1     -10.231 -44.577  31.475  1.00  0.00     0.008 A 
ATOM     16  C   UNL     1      -7.914 -43.500  30.367  1.00  0.00     0.050 A 
ATOM     17  C   UNL     1      -9.029 -44.646  32.179  1.00  0.00     0.046 A 
ATOM     18  C   UNL     1      -7.878 -44.109  31.616  1.00  0.00     0.115 A 
BRANCH  18  19
ATOM     19  O   UNL     1      -6.680 -44.158  32.265  1.00  0.00    -0.508 OA
ATOM     20  H   UNL     1      -6.317 -45.054  32.171  1.00  0.00     0.293 HD
ENDBRANCH  18  19
ENDBRANCH   1   9
TORSDOF 4
ENDMDL
MODEL 6
REMARK VINA RESULT:    -7.919      4.974      8.937
REMARK INTER + INTRA:          -9.744
REMARK INTER:                  -9.529
REMARK INTRA:                  -0.214
REMARK UNBOUND:                -0.204
REMARK SMILES CN(C)S(=O)(=O)N[C@H]1CCc2cc(O)ccc2C1
REMARK SMILES IDX 7 1 4 3 5 4 6 5 2 6 1 7 3 8 8 9 9 10 18 11 10 12 17 13 11 14
REMARK SMILES IDX 16 15 12 16 15 17 13 18 14 19
REMARK H PARENT 7 2 14 20
ROOT
ATOM      1  N   UNL     1     -12.833 -44.947  30.112  1.00  0.00    -0.199 NA
ATOM      2  H   UNL     1     -13.704 -45.365  30.428  1.00  0.00     0.142 HD
ENDROOT
BRANCH   1   3
ATOM      3  S   UNL     1     -12.697 -44.830  28.459  1.00  0.00     0.279 S 
ATOM      4  O   UNL     1     -11.661 -43.865  28.182  1.00  0.00    -0.195 OA
ATOM      5  O   UNL     1     -14.024 -44.718  27.906  1.00  0.00    -0.195 OA
BRANCH   3   6
ATOM      6  N   UNL     1     -12.084 -46.369  28.112  1.00  0.00    -0.195 NA
ATOM      7  C   UNL     1     -10.616 -46.505  28.214  1.00  0.00     0.125 C 
ATOM      8  C   UNL     1     -12.589 -46.922  26.833  1.00  0.00     0.125 C 
ENDBRANCH   3   6
ENDBRANCH   1   3
BRANCH   1   9
ATOM      9  C   UNL     1     -12.192 -43.923  30.955  1.00  0.00     0.075 C 
ATOM     10  C   UNL     1     -13.016 -43.738  32.231  1.00  0.00     0.025 C 
ATOM     11  C   UNL     1     -10.767 -44.372  31.312  1.00  0.00     0.056 C 
ATOM     12  C   UNL     1     -12.416 -42.631  33.094  1.00  0.00     0.037 C 
ATOM     13  C   UNL     1     -10.143 -43.558  32.421  1.00  0.00    -0.043 A 
ATOM     14  C   UNL     1     -10.927 -42.769  33.284  1.00  0.00    -0.041 A 
ATOM     15  C   UNL     1      -8.756 -43.635  32.624  1.00  0.00     0.008 A 
ATOM     16  C   UNL     1     -10.302 -42.046  34.310  1.00  0.00     0.050 A 
ATOM     17  C   UNL     1      -8.146 -42.920  33.655  1.00  0.00     0.046 A 
ATOM     18  C   UNL     1      -8.926 -42.128  34.489  1.00  0.00     0.115 A 
BRANCH  18  19
ATOM     19  O   UNL     1      -8.373 -41.407  35.506  1.00  0.00    -0.508 OA
ATOM     20  H   UNL     1      -8.687 -40.491  35.438  1.00  0.00     0.293 HD
ENDBRANCH  18  19
ENDBRANCH   1   9
TORSDOF 4
ENDMDL
MODEL 7
REMARK VINA RESULT:    -7.774      3.588      5.078
REMARK INTER + INTRA:          -9.569
REMARK INTER:                 -10.101
REMARK INTRA:                   0.532
REMARK UNBOUND:                -0.204
REMARK SMILES CN(C)S(=O)(=O)N[C@H]1CCc2cc(O)ccc2C1
REMARK SMILES IDX 7 1 4 3 5 4 6 5 2 6 1 7 3 8 8 9 9 10 18 11 10 12 17 13 11 14
REMARK SMILES IDX 16 15 12 16 15 17 13 18 14 19
REMARK H PARENT 7 2 14 20
ROOT
ATOM      1  N   UNL     1      -9.125 -45.200  30.007  1.00  0.00    -0.199 NA
ATOM      2  H   UNL     1      -8.260 -45.725  29.912  1.00  0.00     0.142 HD
ENDROOT
BRANCH   1   3
ATOM      3  S   UNL     1      -8.961 -43.766  30.831  1.00  0.00     0.279 S 
ATOM      4  O   UNL     1     -10.269 -43.403  31.322  1.00  0.00    -0.195 OA
ATOM      5  O   UNL     1      -8.164 -42.874  30.027  1.00  0.00    -0.195 OA
BRANCH   3   6
ATOM      6  N   UNL     1      -8.038 -44.294  32.147  1.00  0.00    -0.195 NA
ATOM      7  C   UNL     1      -7.355 -43.230  32.913  1.00  0.00     0.125 C 
ATOM      8  C   UNL     1      -7.104 -45.391  31.800  1.00  0.00     0.125 C 
ENDBRANCH   3   6
ENDBRANCH   1   3
BRANCH   1   9
ATOM      9  C   UNL     1     -10.134 -45.299  28.938  1.00  0.00     0.075 C 
ATOM     10  C   UNL     1     -11.279 -46.196  29.411  1.00  0.00     0.025 C 
ATOM     11  C   UNL     1     -10.670 -43.897  28.608  1.00  0.00     0.056 C 
ATOM     12  C   UNL     1     -12.307 -46.376  28.297  1.00  0.00     0.037 C 
ATOM     13  C   UNL     1     -11.921 -43.919  27.762  1.00  0.00    -0.043 A 
ATOM     14  C   UNL     1     -12.712 -45.077  27.649  1.00  0.00    -0.041 A 
ATOM     15  C   UNL     1     -12.328 -42.739  27.120  1.00  0.00     0.008 A 
ATOM     16  C   UNL     1     -13.875 -45.040  26.867  1.00  0.00     0.050 A 
ATOM     17  C   UNL     1     -13.493 -42.710  26.353  1.00  0.00     0.046 A 
ATOM     18  C   UNL     1     -14.256 -43.865  26.230  1.00  0.00     0.115 A 
BRANCH  18  19
ATOM     19  O   UNL     1     -15.399 -43.886  25.487  1.00  0.00    -0.508 OA
ATOM     20  H   UNL     1     -15.894 -44.692  25.709  1.00  0.00     0.293 HD
ENDBRANCH  18  19
ENDBRANCH   1   9
TORSDOF 4
ENDMDL
MODEL 8
REMARK VINA RESULT:    -7.443      2.406      3.175
REMARK INTER + INTRA:          -9.171
REMARK INTER:                  -8.978
REMARK INTRA:                  -0.193
REMARK UNBOUND:                -0.204
REMARK SMILES CN(C)S(=O)(=O)N[C@H]1CCc2cc(O)ccc2C1
REMARK SMILES IDX 7 1 4 3 5 4 6 5 2 6 1 7 3 8 8 9 9 10 18 11 10 12 17 13 11 14
REMARK SMILES IDX 16 15 12 16 15 17 13 18 14 19
REMARK H PARENT 7 2 14 20
ROOT
ATOM      1  N   UNL     1     -11.991 -45.031  29.877  1.00  0.00    -0.199 NA
ATOM      2  H   UNL     1     -11.808 -45.962  30.241  1.00  0.00     0.142 HD
ENDROOT
BRANCH   1   3
ATOM      3  S   UNL     1     -11.157 -43.822  30.655  1.00  0.00     0.279 S 
ATOM      4  O   UNL     1     -12.122 -43.038  31.388  1.00  0.00    -0.195 OA
ATOM      5  O   UNL     1     -10.238 -43.232  29.713  1.00  0.00    -0.195 OA
BRANCH   3   6
ATOM      6  N   UNL     1     -10.282 -44.748  31.770  1.00  0.00    -0.195 NA
ATOM      7  C   UNL     1      -8.966 -44.199  32.157  1.00  0.00     0.125 C 
ATOM      8  C   UNL     1     -10.180 -46.175  31.388  1.00  0.00     0.125 C 
ENDBRANCH   3   6
ENDBRANCH   1   3
BRANCH   1   9
ATOM      9  C   UNL     1     -12.300 -44.878  28.445  1.00  0.00     0.075 C 
ATOM     10  C   UNL     1     -12.961 -46.160  27.936  1.00  0.00     0.025 C 
ATOM     11  C   UNL     1     -13.249 -43.686  28.250  1.00  0.00     0.056 C 
ATOM     12  C   UNL     1     -13.229 -46.061  26.437  1.00  0.00     0.037 C 
ATOM     13  C   UNL     1     -13.875 -43.639  26.875  1.00  0.00    -0.043 A 
ATOM     14  C   UNL     1     -13.898 -44.770  26.039  1.00  0.00    -0.041 A 
ATOM     15  C   UNL     1     -14.492 -42.452  26.450  1.00  0.00     0.008 A 
ATOM     16  C   UNL     1     -14.508 -44.680  24.779  1.00  0.00     0.050 A 
ATOM     17  C   UNL     1     -15.105 -42.376  25.199  1.00  0.00     0.046 A 
ATOM     18  C   UNL     1     -15.104 -43.492  24.372  1.00  0.00     0.115 A 
BRANCH  18  19
ATOM     19  O   UNL     1     -15.687 -43.464  23.139  1.00  0.00    -0.508 OA
ATOM     20  H   UNL     1     -15.207 -44.079  22.559  1.00  0.00     0.293 HD
ENDBRANCH  18  19
ENDBRANCH   1   9
TORSDOF 4
ENDMDL
MODEL 9
REMARK VINA RESULT:    -7.372      4.920      7.578
REMARK INTER + INTRA:          -9.085
REMARK INTER:                  -8.779
REMARK INTRA:                  -0.306
REMARK UNBOUND:                -0.204
REMARK SMILES CN(C)S(=O)(=O)N[C@H]1CCc2cc(O)ccc2C1
REMARK SMILES IDX 7 1 4 3 5 4 6 5 2 6 1 7 3 8 8 9 9 10 18 11 10 12 17 13 11 14
REMARK SMILES IDX 16 15 12 16 15 17 13 18 14 19
REMARK H PARENT 7 2 14 20
ROOT
ATOM      1  N   UNL     1     -21.247 -41.432  27.035  1.00  0.00    -0.199 NA
ATOM      2  H   UNL     1     -21.189 -40.426  27.163  1.00  0.00     0.142 HD
ENDROOT
BRANCH   1   3
ATOM      3  S   UNL     1     -22.800 -42.008  26.888  1.00  0.00     0.279 S 
ATOM      4  O   UNL     1     -23.323 -41.515  25.637  1.00  0.00    -0.195 OA
ATOM      5  O   UNL     1     -23.477 -41.800  28.144  1.00  0.00    -0.195 OA
BRANCH   3   6
ATOM      6  N   UNL     1     -22.476 -43.659  26.705  1.00  0.00    -0.195 NA
ATOM      7  C   UNL     1     -23.231 -44.339  25.631  1.00  0.00     0.125 C 
ATOM      8  C   UNL     1     -22.555 -44.413  27.977  1.00  0.00     0.125 C 
ENDBRANCH   3   6
ENDBRANCH   1   3
BRANCH   1   9
ATOM      9  C   UNL     1     -20.159 -42.118  26.316  1.00  0.00     0.075 C 
ATOM     10  C   UNL     1     -19.975 -41.464  24.945  1.00  0.00     0.025 C 
ATOM     11  C   UNL     1     -18.860 -42.009  27.127  1.00  0.00     0.056 C 
ATOM     12  C   UNL     1     -18.903 -42.200  24.146  1.00  0.00     0.037 C 
ATOM     13  C   UNL     1     -17.629 -42.396  26.341  1.00  0.00    -0.043 A 
ATOM     14  C   UNL     1     -17.642 -42.447  24.935  1.00  0.00    -0.041 A 
ATOM     15  C   UNL     1     -16.435 -42.657  27.031  1.00  0.00     0.008 A 
ATOM     16  C   UNL     1     -16.468 -42.793  24.250  1.00  0.00     0.050 A 
ATOM     17  C   UNL     1     -15.270 -42.991  26.340  1.00  0.00     0.046 A 
ATOM     18  C   UNL     1     -15.298 -43.059  24.953  1.00  0.00     0.115 A 
BRANCH  18  19
ATOM     19  O   UNL     1     -14.186 -43.386  24.234  1.00  0.00    -0.508 OA
ATOM     20  H   UNL     1     -13.494 -42.731  24.426  1.00  0.00     0.293 HD
ENDBRANCH  18  19
ENDBRANCH   1   9
TORSDOF 4
ENDMDL
