MODEL 1
REMARK VINA RESULT:    -9.106      0.000      0.000
REMARK INTER + INTRA:         -13.856
REMARK INTER:                 -12.566
REMARK INTRA:                  -1.291
REMARK UNBOUND:                -1.291
REMARK SMILES COc1ccc([C@H]2CC(c3cc(F)ccc3F)=NN2c2ccc(S(N)(=O)=O)cc2)cc1OC
REMARK SMILES IDX 20 1 21 2 22 3 23 4 28 5 29 6 19 7 7 8 8 9 9 10 18 11 6 12
REMARK SMILES IDX 3 13 4 14 31 15 5 16 30 17 2 18 1 19 32 20 33 21 10 22 11 23
REMARK SMILES IDX 16 24 12 25 15 26 14 27 17 28 13 29 24 30 26 31 27 32 25 33
REMARK H PARENT 25 34 25 35
ROOT
ATOM      1  C   UNL     1     -18.706 -42.005  24.262  1.00  0.00     0.060 A 
ATOM      2  C   UNL     1     -17.547 -42.392  23.563  1.00  0.00     0.029 A 
ATOM      3  C   UNL     1     -16.376 -42.780  24.222  1.00  0.00     0.024 A 
ATOM      4  C   UNL     1     -16.344 -42.779  25.614  1.00  0.00     0.082 A 
ATOM      5  C   UNL     1     -17.475 -42.415  26.342  1.00  0.00     0.024 A 
ATOM      6  C   UNL     1     -18.641 -42.029  25.666  1.00  0.00     0.029 A 
ENDROOT
BRANCH   1   7
ATOM      7  N   UNL     1     -19.857 -41.624  23.574  1.00  0.00    -0.257 N 
ATOM      8  C   UNL     1     -21.172 -42.257  23.677  1.00  0.00     0.144 C 
ATOM      9  C   UNL     1     -21.916 -41.664  22.478  1.00  0.00     0.091 C 
ATOM     10  C   UNL     1     -20.994 -40.524  22.126  1.00  0.00     0.074 C 
ATOM     11  N   UNL     1     -19.844 -40.555  22.724  1.00  0.00    -0.176 NA
BRANCH   8  12
ATOM     12  C   UNL     1     -21.899 -41.944  24.976  1.00  0.00    -0.019 A 
ATOM     13  C   UNL     1     -23.274 -41.453  27.412  1.00  0.00     0.160 A 
ATOM     14  C   UNL     1     -23.050 -40.424  26.487  1.00  0.00     0.051 A 
ATOM     15  C   UNL     1     -22.835 -42.749  27.093  1.00  0.00     0.161 A 
ATOM     16  C   UNL     1     -22.379 -40.666  25.284  1.00  0.00     0.010 A 
ATOM     17  C   UNL     1     -22.142 -42.976  25.894  1.00  0.00     0.056 A 
BRANCH  13  18
ATOM     18  O   UNL     1     -23.890 -41.258  28.618  1.00  0.00    -0.493 OA
ATOM     19  C   UNL     1     -24.630 -40.058  28.801  1.00  0.00     0.278 C 
ENDBRANCH  13  18
BRANCH  15  20
ATOM     20  O   UNL     1     -22.960 -43.888  27.849  1.00  0.00    -0.493 OA
ATOM     21  C   UNL     1     -21.784 -44.655  28.073  1.00  0.00     0.278 C 
ENDBRANCH  15  20
ENDBRANCH   8  12
BRANCH  10  22
ATOM     22  C   UNL     1     -21.384 -39.489  21.144  1.00  0.00     0.037 A 
ATOM     23  C   UNL     1     -22.545 -38.730  21.335  1.00  0.00     0.052 A 
ATOM     24  C   UNL     1     -20.601 -39.256  20.007  1.00  0.00     0.132 A 
ATOM     25  C   UNL     1     -22.899 -37.764  20.396  1.00  0.00     0.124 A 
ATOM     26  C   UNL     1     -20.965 -38.285  19.072  1.00  0.00     0.043 A 
ATOM     27  C   UNL     1     -22.122 -37.533  19.267  1.00  0.00     0.042 A 
ATOM     28  F   UNL     1     -19.469 -39.936  19.783  1.00  0.00    -0.206 F 
ATOM     29  F   UNL     1     -24.012 -37.045  20.586  1.00  0.00    -0.207 F 
ENDBRANCH  10  22
ENDBRANCH   1   7
BRANCH   4  30
ATOM     30  S   UNL     1     -14.882 -43.294  26.460  1.00  0.00     0.238 S 
ATOM     31  O   UNL     1     -13.951 -42.192  26.526  1.00  0.00    -0.207 OA
ATOM     32  O   UNL     1     -14.496 -44.605  25.993  1.00  0.00    -0.207 OA
BRANCH  30  33
ATOM     33  N   UNL     1     -15.445 -43.513  28.027  1.00  0.00    -0.225 NA
ATOM     34  H   UNL     1     -16.454 -43.661  28.014  1.00  0.00     0.137 HD
ATOM     35  H   UNL     1     -14.920 -44.261  28.481  1.00  0.00     0.137 HD
ENDBRANCH  30  33
ENDBRANCH   4  30
TORSDOF 7
ENDMDL
MODEL 2
REMARK VINA RESULT:    -9.027      4.191      7.407
REMARK INTER + INTRA:         -13.747
REMARK INTER:                 -12.787
REMARK INTRA:                  -0.960
REMARK UNBOUND:                -1.291
REMARK SMILES COc1ccc([C@H]2CC(c3cc(F)ccc3F)=NN2c2ccc(S(N)(=O)=O)cc2)cc1OC
REMARK SMILES IDX 20 1 21 2 22 3 23 4 28 5 29 6 19 7 7 8 8 9 9 10 18 11 6 12
REMARK SMILES IDX 3 13 4 14 31 15 5 16 30 17 2 18 1 19 32 20 33 21 10 22 11 23
REMARK SMILES IDX 16 24 12 25 15 26 14 27 17 28 13 29 24 30 26 31 27 32 25 33
REMARK H PARENT 25 34 25 35
ROOT
ATOM      1  C   UNL     1     -20.106 -40.889  23.634  1.00  0.00     0.060 A 
ATOM      2  C   UNL     1     -19.488 -40.600  22.404  1.00  0.00     0.029 A 
ATOM      3  C   UNL     1     -20.159 -39.935  21.372  1.00  0.00     0.024 A 
ATOM      4  C   UNL     1     -21.484 -39.551  21.557  1.00  0.00     0.082 A 
ATOM      5  C   UNL     1     -22.128 -39.808  22.766  1.00  0.00     0.024 A 
ATOM      6  C   UNL     1     -21.440 -40.474  23.789  1.00  0.00     0.029 A 
ENDROOT
BRANCH   1   7
ATOM      7  N   UNL     1     -19.408 -41.553  24.642  1.00  0.00    -0.257 N 
ATOM      8  C   UNL     1     -19.933 -41.920  25.957  1.00  0.00     0.144 C 
ATOM      9  C   UNL     1     -18.663 -42.288  26.727  1.00  0.00     0.091 C 
ATOM     10  C   UNL     1     -17.683 -42.408  25.587  1.00  0.00     0.074 C 
ATOM     11  N   UNL     1     -18.116 -41.954  24.452  1.00  0.00    -0.176 NA
BRANCH   8  12
ATOM     12  C   UNL     1     -20.905 -43.090  25.922  1.00  0.00    -0.019 A 
ATOM     13  C   UNL     1     -22.746 -45.251  25.943  1.00  0.00     0.160 A 
ATOM     14  C   UNL     1     -21.693 -45.207  25.019  1.00  0.00     0.051 A 
ATOM     15  C   UNL     1     -22.854 -44.219  26.889  1.00  0.00     0.161 A 
ATOM     16  C   UNL     1     -20.782 -44.145  25.012  1.00  0.00     0.010 A 
ATOM     17  C   UNL     1     -21.948 -43.146  26.857  1.00  0.00     0.056 A 
BRANCH  13  18
ATOM     18  O   UNL     1     -23.685 -46.248  25.964  1.00  0.00    -0.493 OA
ATOM     19  C   UNL     1     -23.829 -47.051  24.801  1.00  0.00     0.278 C 
ENDBRANCH  13  18
BRANCH  15  20
ATOM     20  O   UNL     1     -23.797 -44.078  27.876  1.00  0.00    -0.493 OA
ATOM     21  C   UNL     1     -23.548 -44.731  29.114  1.00  0.00     0.278 C 
ENDBRANCH  15  20
ENDBRANCH   8  12
BRANCH  10  22
ATOM     22  C   UNL     1     -16.329 -42.967  25.788  1.00  0.00     0.037 A 
ATOM     23  C   UNL     1     -15.909 -43.373  27.060  1.00  0.00     0.052 A 
ATOM     24  C   UNL     1     -15.445 -43.095  24.710  1.00  0.00     0.132 A 
ATOM     25  C   UNL     1     -14.628 -43.892  27.230  1.00  0.00     0.124 A 
ATOM     26  C   UNL     1     -14.163 -43.617  24.891  1.00  0.00     0.043 A 
ATOM     27  C   UNL     1     -13.750 -44.018  26.160  1.00  0.00     0.042 A 
ATOM     28  F   UNL     1     -15.799 -42.744  23.466  1.00  0.00    -0.206 F 
ATOM     29  F   UNL     1     -14.235 -44.275  28.451  1.00  0.00    -0.207 F 
ENDBRANCH  10  22
ENDBRANCH   1   7
BRANCH   4  30
ATOM     30  S   UNL     1     -22.336 -38.686  20.274  1.00  0.00     0.238 S 
ATOM     31  O   UNL     1     -23.341 -39.548  19.697  1.00  0.00    -0.207 OA
ATOM     32  O   UNL     1     -21.379 -37.967  19.466  1.00  0.00    -0.207 OA
BRANCH  30  33
ATOM     33  N   UNL     1     -23.175 -37.517  21.139  1.00  0.00    -0.225 NA
ATOM     34  H   UNL     1     -22.532 -37.009  21.746  1.00  0.00     0.137 HD
ATOM     35  H   UNL     1     -23.700 -36.922  20.497  1.00  0.00     0.137 HD
ENDBRANCH  30  33
ENDBRANCH   4  30
TORSDOF 7
ENDMDL
MODEL 3
REMARK VINA RESULT:    -9.022      4.493      8.275
REMARK INTER + INTRA:         -13.741
REMARK INTER:                 -12.744
REMARK INTRA:                  -0.997
REMARK UNBOUND:                -1.291
REMARK SMILES COc1ccc([C@H]2CC(c3cc(F)ccc3F)=NN2c2ccc(S(N)(=O)=O)cc2)cc1OC
REMARK SMILES IDX 20 1 21 2 22 3 23 4 28 5 29 6 19 7 7 8 8 9 9 10 18 11 6 12
REMARK SMILES IDX 3 13 4 14 31 15 5 16 30 17 2 18 1 19 32 20 33 21 10 22 11 23
REMARK SMILES IDX 16 24 12 25 15 26 14 27 17 28 13 29 24 30 26 31 27 32 25 33
REMARK H PARENT 25 34 25 35
ROOT
ATOM      1  C   UNL     1     -21.968 -40.738  25.578  1.00  0.00     0.060 A 
ATOM      2  C   UNL     1     -22.095 -40.575  26.970  1.00  0.00     0.029 A 
ATOM      3  C   UNL     1     -23.180 -39.902  27.544  1.00  0.00     0.024 A 
ATOM      4  C   UNL     1     -24.164 -39.366  26.718  1.00  0.00     0.082 A 
ATOM      5  C   UNL     1     -24.080 -39.518  25.335  1.00  0.00     0.024 A 
ATOM      6  C   UNL     1     -22.988 -40.196  24.778  1.00  0.00     0.029 A 
ENDROOT
BRANCH   1   7
ATOM      7  N   UNL     1     -20.875 -41.415  25.040  1.00  0.00    -0.257 N 
ATOM      8  C   UNL     1     -20.828 -42.076  23.735  1.00  0.00     0.144 C 
ATOM      9  C   UNL     1     -19.551 -42.913  23.838  1.00  0.00     0.091 C 
ATOM     10  C   UNL     1     -18.916 -42.287  25.054  1.00  0.00     0.074 C 
ATOM     11  N   UNL     1     -19.693 -41.490  25.720  1.00  0.00    -0.176 NA
BRANCH   8  12
ATOM     12  C   UNL     1     -20.750 -41.110  22.563  1.00  0.00    -0.019 A 
ATOM     13  C   UNL     1     -20.626 -39.379  20.316  1.00  0.00     0.160 A 
ATOM     14  C   UNL     1     -20.057 -39.013  21.544  1.00  0.00     0.051 A 
ATOM     15  C   UNL     1     -21.231 -40.641  20.206  1.00  0.00     0.161 A 
ATOM     16  C   UNL     1     -20.112 -39.869  22.649  1.00  0.00     0.010 A 
ATOM     17  C   UNL     1     -21.302 -41.482  21.328  1.00  0.00     0.056 A 
BRANCH  13  18
ATOM     18  O   UNL     1     -20.632 -38.561  19.218  1.00  0.00    -0.493 OA
ATOM     19  C   UNL     1     -21.667 -37.593  19.115  1.00  0.00     0.278 C 
ENDBRANCH  13  18
BRANCH  15  20
ATOM     20  O   UNL     1     -21.835 -41.191  19.102  1.00  0.00    -0.493 OA
ATOM     21  C   UNL     1     -23.242 -41.027  18.979  1.00  0.00     0.278 C 
ENDBRANCH  15  20
ENDBRANCH   8  12
BRANCH  10  22
ATOM     22  C   UNL     1     -17.528 -42.607  25.452  1.00  0.00     0.037 A 
ATOM     23  C   UNL     1     -16.587 -43.002  24.494  1.00  0.00     0.052 A 
ATOM     24  C   UNL     1     -17.135 -42.522  26.794  1.00  0.00     0.132 A 
ATOM     25  C   UNL     1     -15.286 -43.304  24.890  1.00  0.00     0.124 A 
ATOM     26  C   UNL     1     -15.828 -42.828  27.179  1.00  0.00     0.043 A 
ATOM     27  C   UNL     1     -14.896 -43.221  26.222  1.00  0.00     0.042 A 
ATOM     28  F   UNL     1     -17.986 -42.129  27.751  1.00  0.00    -0.206 F 
ATOM     29  F   UNL     1     -14.394 -43.684  23.966  1.00  0.00    -0.207 F 
ENDBRANCH  10  22
ENDBRANCH   1   7
BRANCH   4  30
ATOM     30  S   UNL     1     -25.553 -38.539  27.429  1.00  0.00     0.238 S 
ATOM     31  O   UNL     1     -25.269 -37.127  27.537  1.00  0.00    -0.207 OA
ATOM     32  O   UNL     1     -26.053 -39.313  28.541  1.00  0.00    -0.207 OA
BRANCH  30  33
ATOM     33  N   UNL     1     -26.705 -38.684  26.216  1.00  0.00    -0.225 NA
ATOM     34  H   UNL     1     -27.396 -39.386  26.478  1.00  0.00     0.137 HD
ATOM     35  H   UNL     1     -27.101 -37.768  26.004  1.00  0.00     0.137 HD
ENDBRANCH  30  33
ENDBRANCH   4  30
TORSDOF 7
ENDMDL
MODEL 4
REMARK VINA RESULT:    -8.876      4.593      7.728
REMARK INTER + INTRA:         -13.539
REMARK INTER:                 -12.532
REMARK INTRA:                  -1.008
REMARK UNBOUND:                -1.291
REMARK SMILES COc1ccc([C@H]2CC(c3cc(F)ccc3F)=NN2c2ccc(S(N)(=O)=O)cc2)cc1OC
REMARK SMILES IDX 20 1 21 2 22 3 23 4 28 5 29 6 19 7 7 8 8 9 9 10 18 11 6 12
REMARK SMILES IDX 3 13 4 14 31 15 5 16 30 17 2 18 1 19 32 20 33 21 10 22 11 23
REMARK SMILES IDX 16 24 12 25 15 26 14 27 17 28 13 29 24 30 26 31 27 32 25 33
REMARK H PARENT 25 34 25 35
ROOT
ATOM      1  C   UNL     1     -20.193 -40.844  22.986  1.00  0.00     0.060 A 
ATOM      2  C   UNL     1     -19.700 -40.807  21.668  1.00  0.00     0.029 A 
ATOM      3  C   UNL     1     -20.327 -40.066  20.661  1.00  0.00     0.024 A 
ATOM      4  C   UNL     1     -21.480 -39.346  20.960  1.00  0.00     0.082 A 
ATOM      5  C   UNL     1     -21.991 -39.346  22.257  1.00  0.00     0.024 A 
ATOM      6  C   UNL     1     -21.350 -40.093  23.254  1.00  0.00     0.029 A 
ENDROOT
BRANCH   1   7
ATOM      7  N   UNL     1     -19.543 -41.592  23.967  1.00  0.00    -0.257 N 
ATOM      8  C   UNL     1     -20.177 -42.253  25.108  1.00  0.00     0.144 C 
ATOM      9  C   UNL     1     -18.978 -42.602  25.992  1.00  0.00     0.091 C 
ATOM     10  C   UNL     1     -17.851 -42.394  25.012  1.00  0.00     0.074 C 
ATOM     11  N   UNL     1     -18.194 -41.796  23.914  1.00  0.00    -0.176 NA
BRANCH   8  12
ATOM     12  C   UNL     1     -20.957 -43.504  24.733  1.00  0.00    -0.019 A 
ATOM     13  C   UNL     1     -22.467 -45.787  23.975  1.00  0.00     0.160 A 
ATOM     14  C   UNL     1     -21.683 -45.790  25.137  1.00  0.00     0.051 A 
ATOM     15  C   UNL     1     -22.522 -44.612  23.206  1.00  0.00     0.161 A 
ATOM     16  C   UNL     1     -20.944 -44.664  25.514  1.00  0.00     0.010 A 
ATOM     17  C   UNL     1     -21.757 -43.496  23.581  1.00  0.00     0.056 A 
BRANCH  13  18
ATOM     18  O   UNL     1     -23.176 -46.875  23.544  1.00  0.00    -0.493 OA
ATOM     19  C   UNL     1     -22.473 -47.891  22.841  1.00  0.00     0.278 C 
ENDBRANCH  13  18
BRANCH  15  20
ATOM     20  O   UNL     1     -23.228 -44.398  22.049  1.00  0.00    -0.493 OA
ATOM     21  C   UNL     1     -22.913 -43.232  21.299  1.00  0.00     0.278 C 
ENDBRANCH  15  20
ENDBRANCH   8  12
BRANCH  10  22
ATOM     22  C   UNL     1     -16.468 -42.816  25.323  1.00  0.00     0.037 A 
ATOM     23  C   UNL     1     -16.127 -43.236  26.615  1.00  0.00     0.052 A 
ATOM     24  C   UNL     1     -15.479 -42.798  24.333  1.00  0.00     0.132 A 
ATOM     25  C   UNL     1     -14.818 -43.624  26.890  1.00  0.00     0.124 A 
ATOM     26  C   UNL     1     -14.169 -43.189  24.620  1.00  0.00     0.043 A 
ATOM     27  C   UNL     1     -13.835 -43.605  25.906  1.00  0.00     0.042 A 
ATOM     28  F   UNL     1     -15.751 -42.427  23.074  1.00  0.00    -0.206 F 
ATOM     29  F   UNL     1     -14.501 -44.021  28.128  1.00  0.00    -0.207 F 
ENDBRANCH  10  22
ENDBRANCH   1   7
BRANCH   4  30
ATOM     30  S   UNL     1     -22.266 -38.382  19.706  1.00  0.00     0.238 S 
ATOM     31  O   UNL     1     -23.310 -39.162  19.084  1.00  0.00    -0.207 OA
ATOM     32  O   UNL     1     -21.260 -37.686  18.938  1.00  0.00    -0.207 OA
BRANCH  30  33
ATOM     33  N   UNL     1     -23.049 -37.204  20.610  1.00  0.00    -0.225 NA
ATOM     34  H   UNL     1     -23.410 -37.613  21.471  1.00  0.00     0.137 HD
ATOM     35  H   UNL     1     -22.426 -36.409  20.755  1.00  0.00     0.137 HD
ENDBRANCH  30  33
ENDBRANCH   4  30
TORSDOF 7
ENDMDL
MODEL 5
REMARK VINA RESULT:    -8.874      7.233     10.150
REMARK INTER + INTRA:         -13.537
REMARK INTER:                 -12.204
REMARK INTRA:                  -1.333
REMARK UNBOUND:                -1.291
REMARK SMILES COc1ccc([C@H]2CC(c3cc(F)ccc3F)=NN2c2ccc(S(N)(=O)=O)cc2)cc1OC
REMARK SMILES IDX 20 1 21 2 22 3 23 4 28 5 29 6 19 7 7 8 8 9 9 10 18 11 6 12
REMARK SMILES IDX 3 13 4 14 31 15 5 16 30 17 2 18 1 19 32 20 33 21 10 22 11 23
REMARK SMILES IDX 16 24 12 25 15 26 14 27 17 28 13 29 24 30 26 31 27 32 25 33
REMARK H PARENT 25 34 25 35
ROOT
ATOM      1  C   UNL     1     -11.466 -44.557  30.121  1.00  0.00     0.060 A 
ATOM      2  C   UNL     1     -10.490 -43.581  29.848  1.00  0.00     0.029 A 
ATOM      3  C   UNL     1      -9.183 -43.678  30.338  1.00  0.00     0.024 A 
ATOM      4  C   UNL     1      -8.831 -44.767  31.129  1.00  0.00     0.082 A 
ATOM      5  C   UNL     1      -9.765 -45.762  31.412  1.00  0.00     0.024 A 
ATOM      6  C   UNL     1     -11.070 -45.649  30.912  1.00  0.00     0.029 A 
ENDROOT
BRANCH   1   7
ATOM      7  N   UNL     1     -12.759 -44.430  29.616  1.00  0.00    -0.257 N 
ATOM      8  C   UNL     1     -14.000 -44.644  30.360  1.00  0.00     0.144 C 
ATOM      9  C   UNL     1     -15.045 -44.706  29.244  1.00  0.00     0.091 C 
ATOM     10  C   UNL     1     -14.244 -44.152  28.094  1.00  0.00     0.074 C 
ATOM     11  N   UNL     1     -12.971 -44.048  28.322  1.00  0.00    -0.176 NA
BRANCH   8  12
ATOM     12  C   UNL     1     -14.323 -43.529  31.343  1.00  0.00    -0.019 A 
ATOM     13  C   UNL     1     -14.852 -41.477  33.233  1.00  0.00     0.160 A 
ATOM     14  C   UNL     1     -15.818 -41.862  32.293  1.00  0.00     0.051 A 
ATOM     15  C   UNL     1     -13.622 -42.154  33.248  1.00  0.00     0.161 A 
ATOM     16  C   UNL     1     -15.560 -42.877  31.366  1.00  0.00     0.010 A 
ATOM     17  C   UNL     1     -13.365 -43.155  32.297  1.00  0.00     0.056 A 
BRANCH  13  18
ATOM     18  O   UNL     1     -15.043 -40.463  34.134  1.00  0.00    -0.493 OA
ATOM     19  C   UNL     1     -15.182 -40.810  35.505  1.00  0.00     0.278 C 
ENDBRANCH  13  18
BRANCH  15  20
ATOM     20  O   UNL     1     -12.554 -41.940  34.084  1.00  0.00    -0.493 OA
ATOM     21  C   UNL     1     -11.273 -42.346  33.621  1.00  0.00     0.278 C 
ENDBRANCH  15  20
ENDBRANCH   8  12
BRANCH  10  22
ATOM     22  C   UNL     1     -14.881 -43.800  26.806  1.00  0.00     0.037 A 
ATOM     23  C   UNL     1     -14.442 -44.387  25.613  1.00  0.00     0.052 A 
ATOM     24  C   UNL     1     -15.929 -42.874  26.760  1.00  0.00     0.132 A 
ATOM     25  C   UNL     1     -15.051 -44.039  24.409  1.00  0.00     0.124 A 
ATOM     26  C   UNL     1     -16.533 -42.532  25.549  1.00  0.00     0.043 A 
ATOM     27  C   UNL     1     -16.092 -43.118  24.364  1.00  0.00     0.042 A 
ATOM     28  F   UNL     1     -16.406 -42.297  27.872  1.00  0.00    -0.206 F 
ATOM     29  F   UNL     1     -14.623 -44.603  23.273  1.00  0.00    -0.207 F 
ENDBRANCH  10  22
ENDBRANCH   1   7
BRANCH   4  30
ATOM     30  S   UNL     1      -7.177 -44.918  31.732  1.00  0.00     0.238 S 
ATOM     31  O   UNL     1      -6.809 -46.314  31.782  1.00  0.00    -0.207 OA
ATOM     32  O   UNL     1      -6.996 -44.031  32.857  1.00  0.00    -0.207 OA
BRANCH  30  33
ATOM     33  N   UNL     1      -6.285 -44.253  30.475  1.00  0.00    -0.225 NA
ATOM     34  H   UNL     1      -5.293 -44.437  30.620  1.00  0.00     0.137 HD
ATOM     35  H   UNL     1      -6.645 -44.588  29.581  1.00  0.00     0.137 HD
ENDBRANCH  30  33
ENDBRANCH   4  30
TORSDOF 7
ENDMDL
MODEL 6
REMARK VINA RESULT:    -8.439      3.530      6.425
REMARK INTER + INTRA:         -12.937
REMARK INTER:                 -11.678
REMARK INTRA:                  -1.259
REMARK UNBOUND:                -1.291
REMARK SMILES COc1ccc([C@H]2CC(c3cc(F)ccc3F)=NN2c2ccc(S(N)(=O)=O)cc2)cc1OC
REMARK SMILES IDX 20 1 21 2 22 3 23 4 28 5 29 6 19 7 7 8 8 9 9 10 18 11 6 12
REMARK SMILES IDX 3 13 4 14 31 15 5 16 30 17 2 18 1 19 32 20 33 21 10 22 11 23
REMARK SMILES IDX 16 24 12 25 15 26 14 27 17 28 13 29 24 30 26 31 27 32 25 33
REMARK H PARENT 25 34 25 35
ROOT
ATOM      1  C   UNL     1     -19.158 -42.029  26.315  1.00  0.00     0.060 A 
ATOM      2  C   UNL     1     -18.545 -42.149  27.576  1.00  0.00     0.029 A 
ATOM      3  C   UNL     1     -17.208 -42.535  27.720  1.00  0.00     0.024 A 
ATOM      4  C   UNL     1     -16.455 -42.822  26.585  1.00  0.00     0.082 A 
ATOM      5  C   UNL     1     -17.022 -42.703  25.317  1.00  0.00     0.024 A 
ATOM      6  C   UNL     1     -18.362 -42.313  25.191  1.00  0.00     0.029 A 
ENDROOT
BRANCH   1   7
ATOM      7  N   UNL     1     -20.492 -41.641  26.207  1.00  0.00    -0.257 N 
ATOM      8  C   UNL     1     -21.034 -40.673  25.253  1.00  0.00     0.144 C 
ATOM      9  C   UNL     1     -22.429 -40.401  25.819  1.00  0.00     0.091 C 
ATOM     10  C   UNL     1     -22.553 -41.544  26.794  1.00  0.00     0.074 C 
ATOM     11  N   UNL     1     -21.448 -42.187  27.016  1.00  0.00    -0.176 NA
BRANCH   8  12
ATOM     12  C   UNL     1     -21.120 -41.203  23.830  1.00  0.00    -0.019 A 
ATOM     13  C   UNL     1     -21.240 -42.112  21.142  1.00  0.00     0.160 A 
ATOM     14  C   UNL     1     -22.032 -42.696  22.140  1.00  0.00     0.051 A 
ATOM     15  C   UNL     1     -20.406 -41.036  21.490  1.00  0.00     0.161 A 
ATOM     16  C   UNL     1     -21.978 -42.245  23.462  1.00  0.00     0.010 A 
ATOM     17  C   UNL     1     -20.343 -40.607  22.826  1.00  0.00     0.056 A 
BRANCH  13  18
ATOM     18  O   UNL     1     -21.228 -42.544  19.842  1.00  0.00    -0.493 OA
ATOM     19  C   UNL     1     -21.104 -43.940  19.607  1.00  0.00     0.278 C 
ENDBRANCH  13  18
BRANCH  15  20
ATOM     20  O   UNL     1     -19.565 -40.326  20.671  1.00  0.00    -0.493 OA
ATOM     21  C   UNL     1     -20.118 -39.220  19.970  1.00  0.00     0.278 C 
ENDBRANCH  15  20
ENDBRANCH   8  12
BRANCH  10  22
ATOM     22  C   UNL     1     -23.836 -41.858  27.458  1.00  0.00     0.037 A 
ATOM     23  C   UNL     1     -24.375 -40.986  28.411  1.00  0.00     0.052 A 
ATOM     24  C   UNL     1     -24.529 -43.034  27.147  1.00  0.00     0.132 A 
ATOM     25  C   UNL     1     -25.582 -41.302  29.030  1.00  0.00     0.124 A 
ATOM     26  C   UNL     1     -25.739 -43.341  27.773  1.00  0.00     0.043 A 
ATOM     27  C   UNL     1     -26.270 -42.470  28.721  1.00  0.00     0.042 A 
ATOM     28  F   UNL     1     -24.073 -43.896  26.227  1.00  0.00    -0.206 F 
ATOM     29  F   UNL     1     -26.088 -40.463  29.942  1.00  0.00    -0.207 F 
ENDBRANCH  10  22
ENDBRANCH   1   7
BRANCH   4  30
ATOM     30  S   UNL     1     -14.758 -43.284  26.749  1.00  0.00     0.238 S 
ATOM     31  O   UNL     1     -14.606 -44.163  27.884  1.00  0.00    -0.207 OA
ATOM     32  O   UNL     1     -13.925 -42.119  26.557  1.00  0.00    -0.207 OA
BRANCH  30  33
ATOM     33  N   UNL     1     -14.524 -44.243  25.391  1.00  0.00    -0.225 NA
ATOM     34  H   UNL     1     -13.533 -44.268  25.152  1.00  0.00     0.137 HD
ATOM     35  H   UNL     1     -14.940 -45.162  25.542  1.00  0.00     0.137 HD
ENDBRANCH  30  33
ENDBRANCH   4  30
TORSDOF 7
ENDMDL
MODEL 7
REMARK VINA RESULT:    -8.388      4.316      7.035
REMARK INTER + INTRA:         -12.866
REMARK INTER:                 -11.397
REMARK INTRA:                  -1.469
REMARK UNBOUND:                -1.291
REMARK SMILES COc1ccc([C@H]2CC(c3cc(F)ccc3F)=NN2c2ccc(S(N)(=O)=O)cc2)cc1OC
REMARK SMILES IDX 20 1 21 2 22 3 23 4 28 5 29 6 19 7 7 8 8 9 9 10 18 11 6 12
REMARK SMILES IDX 3 13 4 14 31 15 5 16 30 17 2 18 1 19 32 20 33 21 10 22 11 23
REMARK SMILES IDX 16 24 12 25 15 26 14 27 17 28 13 29 24 30 26 31 27 32 25 33
REMARK H PARENT 25 34 25 35
ROOT
ATOM      1  C   UNL     1     -21.339 -43.274  21.352  1.00  0.00     0.060 A 
ATOM      2  C   UNL     1     -21.287 -43.480  19.961  1.00  0.00     0.029 A 
ATOM      3  C   UNL     1     -22.189 -44.318  19.298  1.00  0.00     0.024 A 
ATOM      4  C   UNL     1     -23.168 -44.983  20.032  1.00  0.00     0.082 A 
ATOM      5  C   UNL     1     -23.261 -44.796  21.410  1.00  0.00     0.024 A 
ATOM      6  C   UNL     1     -22.350 -43.950  22.057  1.00  0.00     0.029 A 
ENDROOT
BRANCH   1   7
ATOM      7  N   UNL     1     -20.425 -42.430  21.981  1.00  0.00    -0.257 N 
ATOM      8  C   UNL     1     -20.533 -40.976  22.097  1.00  0.00     0.144 C 
ATOM      9  C   UNL     1     -19.127 -40.578  22.552  1.00  0.00     0.091 C 
ATOM     10  C   UNL     1     -18.585 -41.924  22.959  1.00  0.00     0.074 C 
ATOM     11  N   UNL     1     -19.312 -42.934  22.591  1.00  0.00    -0.176 NA
BRANCH   8  12
ATOM     12  C   UNL     1     -21.578 -40.520  23.103  1.00  0.00    -0.019 A 
ATOM     13  C   UNL     1     -23.496 -39.732  25.044  1.00  0.00     0.160 A 
ATOM     14  C   UNL     1     -23.661 -39.408  23.690  1.00  0.00     0.051 A 
ATOM     15  C   UNL     1     -22.375 -40.490  25.421  1.00  0.00     0.161 A 
ATOM     16  C   UNL     1     -22.720 -39.802  22.732  1.00  0.00     0.010 A 
ATOM     17  C   UNL     1     -21.425 -40.859  24.455  1.00  0.00     0.056 A 
BRANCH  13  18
ATOM     18  O   UNL     1     -24.368 -39.336  26.022  1.00  0.00    -0.493 OA
ATOM     19  C   UNL     1     -24.224 -38.025  26.552  1.00  0.00     0.278 C 
ENDBRANCH  13  18
BRANCH  15  20
ATOM     20  O   UNL     1     -22.034 -40.915  26.681  1.00  0.00    -0.493 OA
ATOM     21  C   UNL     1     -20.659 -41.176  26.930  1.00  0.00     0.278 C 
ENDBRANCH  15  20
ENDBRANCH   8  12
BRANCH  10  22
ATOM     22  C   UNL     1     -17.303 -42.054  23.685  1.00  0.00     0.037 A 
ATOM     23  C   UNL     1     -17.270 -42.592  24.977  1.00  0.00     0.052 A 
ATOM     24  C   UNL     1     -16.104 -41.638  23.093  1.00  0.00     0.132 A 
ATOM     25  C   UNL     1     -16.053 -42.701  25.647  1.00  0.00     0.124 A 
ATOM     26  C   UNL     1     -14.891 -41.752  23.773  1.00  0.00     0.043 A 
ATOM     27  C   UNL     1     -14.863 -42.287  25.059  1.00  0.00     0.042 A 
ATOM     28  F   UNL     1     -16.072 -41.137  21.850  1.00  0.00    -0.206 F 
ATOM     29  F   UNL     1     -16.032 -43.214  26.883  1.00  0.00    -0.207 F 
ENDBRANCH  10  22
ENDBRANCH   1   7
BRANCH   4  30
ATOM     30  S   UNL     1     -24.332 -46.023  19.206  1.00  0.00     0.238 S 
ATOM     31  O   UNL     1     -25.132 -45.229  18.304  1.00  0.00    -0.207 OA
ATOM     32  O   UNL     1     -24.919 -46.935  20.160  1.00  0.00    -0.207 OA
BRANCH  30  33
ATOM     33  N   UNL     1     -23.334 -46.959  18.232  1.00  0.00    -0.225 NA
ATOM     34  H   UNL     1     -23.709 -47.905  18.161  1.00  0.00     0.137 HD
ATOM     35  H   UNL     1     -23.196 -46.497  17.333  1.00  0.00     0.137 HD
ENDBRANCH  30  33
ENDBRANCH   4  30
TORSDOF 7
ENDMDL
MODEL 8
REMARK VINA RESULT:    -8.377      4.311      7.373
REMARK INTER + INTRA:         -12.850
REMARK INTER:                 -11.839
REMARK INTRA:                  -1.011
REMARK UNBOUND:                -1.291
REMARK SMILES COc1ccc([C@H]2CC(c3cc(F)ccc3F)=NN2c2ccc(S(N)(=O)=O)cc2)cc1OC
REMARK SMILES IDX 20 1 21 2 22 3 23 4 28 5 29 6 19 7 7 8 8 9 9 10 18 11 6 12
REMARK SMILES IDX 3 13 4 14 31 15 5 16 30 17 2 18 1 19 32 20 33 21 10 22 11 23
REMARK SMILES IDX 16 24 12 25 15 26 14 27 17 28 13 29 24 30 26 31 27 32 25 33
REMARK H PARENT 25 34 25 35
ROOT
ATOM      1  C   UNL     1     -20.434 -41.009  22.645  1.00  0.00     0.060 A 
ATOM      2  C   UNL     1     -21.094 -39.766  22.672  1.00  0.00     0.029 A 
ATOM      3  C   UNL     1     -21.788 -39.268  21.565  1.00  0.00     0.024 A 
ATOM      4  C   UNL     1     -21.825 -40.015  20.391  1.00  0.00     0.082 A 
ATOM      5  C   UNL     1     -21.195 -41.257  20.328  1.00  0.00     0.024 A 
ATOM      6  C   UNL     1     -20.505 -41.741  21.447  1.00  0.00     0.029 A 
ENDROOT
BRANCH   1   7
ATOM      7  N   UNL     1     -19.752 -41.476  23.767  1.00  0.00    -0.257 N 
ATOM      8  C   UNL     1     -20.246 -41.462  25.144  1.00  0.00     0.144 C 
ATOM      9  C   UNL     1     -18.979 -41.758  25.950  1.00  0.00     0.091 C 
ATOM     10  C   UNL     1     -18.069 -42.244  24.852  1.00  0.00     0.074 C 
ATOM     11  N   UNL     1     -18.511 -42.036  23.651  1.00  0.00    -0.176 NA
BRANCH   8  12
ATOM     12  C   UNL     1     -21.319 -42.505  25.418  1.00  0.00    -0.019 A 
ATOM     13  C   UNL     1     -23.289 -44.503  25.856  1.00  0.00     0.160 A 
ATOM     14  C   UNL     1     -23.433 -43.215  26.389  1.00  0.00     0.051 A 
ATOM     15  C   UNL     1     -22.162 -44.780  25.065  1.00  0.00     0.161 A 
ATOM     16  C   UNL     1     -22.467 -42.228  26.168  1.00  0.00     0.010 A 
ATOM     17  C   UNL     1     -21.186 -43.789  24.870  1.00  0.00     0.056 A 
BRANCH  13  18
ATOM     18  O   UNL     1     -24.187 -45.513  26.077  1.00  0.00    -0.493 OA
ATOM     19  C   UNL     1     -24.497 -45.845  27.423  1.00  0.00     0.278 C 
ENDBRANCH  13  18
BRANCH  15  20
ATOM     20  O   UNL     1     -21.837 -45.963  24.449  1.00  0.00    -0.493 OA
ATOM     21  C   UNL     1     -22.505 -46.269  23.232  1.00  0.00     0.278 C 
ENDBRANCH  15  20
ENDBRANCH   8  12
BRANCH  10  22
ATOM     22  C   UNL     1     -16.762 -42.870  25.151  1.00  0.00     0.037 A 
ATOM     23  C   UNL     1     -16.343 -43.040  26.476  1.00  0.00     0.052 A 
ATOM     24  C   UNL     1     -15.924 -43.297  24.114  1.00  0.00     0.132 A 
ATOM     25  C   UNL     1     -15.106 -43.626  26.737  1.00  0.00     0.124 A 
ATOM     26  C   UNL     1     -14.687 -43.884  24.387  1.00  0.00     0.043 A 
ATOM     27  C   UNL     1     -14.274 -44.049  25.707  1.00  0.00     0.042 A 
ATOM     28  F   UNL     1     -16.282 -43.180  22.828  1.00  0.00    -0.206 F 
ATOM     29  F   UNL     1     -14.713 -43.782  28.007  1.00  0.00    -0.207 F 
ENDBRANCH  10  22
ENDBRANCH   1   7
BRANCH   4  30
ATOM     30  S   UNL     1     -22.721 -39.413  18.993  1.00  0.00     0.238 S 
ATOM     31  O   UNL     1     -23.280 -40.527  18.263  1.00  0.00    -0.207 OA
ATOM     32  O   UNL     1     -21.956 -38.372  18.347  1.00  0.00    -0.207 OA
BRANCH  30  33
ATOM     33  N   UNL     1     -24.023 -38.640  19.719  1.00  0.00    -0.225 NA
ATOM     34  H   UNL     1     -23.860 -38.557  20.723  1.00  0.00     0.137 HD
ATOM     35  H   UNL     1     -24.202 -37.751  19.252  1.00  0.00     0.137 HD
ENDBRANCH  30  33
ENDBRANCH   4  30
TORSDOF 7
ENDMDL
MODEL 9
REMARK VINA RESULT:    -8.225      3.375      5.851
REMARK INTER + INTRA:         -12.640
REMARK INTER:                 -11.218
REMARK INTRA:                  -1.422
REMARK UNBOUND:                -1.291
REMARK SMILES COc1ccc([C@H]2CC(c3cc(F)ccc3F)=NN2c2ccc(S(N)(=O)=O)cc2)cc1OC
REMARK SMILES IDX 20 1 21 2 22 3 23 4 28 5 29 6 19 7 7 8 8 9 9 10 18 11 6 12
REMARK SMILES IDX 3 13 4 14 31 15 5 16 30 17 2 18 1 19 32 20 33 21 10 22 11 23
REMARK SMILES IDX 16 24 12 25 15 26 14 27 17 28 13 29 24 30 26 31 27 32 25 33
REMARK H PARENT 25 34 25 35
ROOT
ATOM      1  C   UNL     1     -22.029 -44.009  23.099  1.00  0.00     0.060 A 
ATOM      2  C   UNL     1     -21.858 -44.756  24.279  1.00  0.00     0.029 A 
ATOM      3  C   UNL     1     -22.181 -46.115  24.352  1.00  0.00     0.024 A 
ATOM      4  C   UNL     1     -22.697 -46.755  23.229  1.00  0.00     0.082 A 
ATOM      5  C   UNL     1     -22.869 -46.052  22.037  1.00  0.00     0.024 A 
ATOM      6  C   UNL     1     -22.538 -44.692  21.982  1.00  0.00     0.029 A 
ENDROOT
BRANCH   1   7
ATOM      7  N   UNL     1     -21.695 -42.656  23.061  1.00  0.00    -0.257 N 
ATOM      8  C   UNL     1     -21.132 -41.875  24.163  1.00  0.00     0.144 C 
ATOM      9  C   UNL     1     -21.303 -40.437  23.666  1.00  0.00     0.091 C 
ATOM     10  C   UNL     1     -21.604 -40.689  22.211  1.00  0.00     0.074 C 
ATOM     11  N   UNL     1     -21.856 -41.927  21.917  1.00  0.00    -0.176 NA
BRANCH   8  12
ATOM     12  C   UNL     1     -19.669 -42.181  24.443  1.00  0.00    -0.019 A 
ATOM     13  C   UNL     1     -16.948 -42.717  25.053  1.00  0.00     0.160 A 
ATOM     14  C   UNL     1     -17.402 -42.695  23.727  1.00  0.00     0.051 A 
ATOM     15  C   UNL     1     -17.862 -42.431  26.081  1.00  0.00     0.161 A 
ATOM     16  C   UNL     1     -18.741 -42.425  23.426  1.00  0.00     0.010 A 
ATOM     17  C   UNL     1     -19.209 -42.185  25.768  1.00  0.00     0.056 A 
BRANCH  13  18
ATOM     18  O   UNL     1     -15.658 -43.014  25.401  1.00  0.00    -0.493 OA
ATOM     19  C   UNL     1     -14.700 -43.142  24.359  1.00  0.00     0.278 C 
ENDBRANCH  13  18
BRANCH  15  20
ATOM     20  O   UNL     1     -17.624 -42.393  27.432  1.00  0.00    -0.493 OA
ATOM     21  C   UNL     1     -18.693 -42.762  28.293  1.00  0.00     0.278 C 
ENDBRANCH  15  20
ENDBRANCH   8  12
BRANCH  10  22
ATOM     22  C   UNL     1     -21.641 -39.585  21.227  1.00  0.00     0.037 A 
ATOM     23  C   UNL     1     -22.748 -38.731  21.160  1.00  0.00     0.052 A 
ATOM     24  C   UNL     1     -20.572 -39.380  20.347  1.00  0.00     0.132 A 
ATOM     25  C   UNL     1     -22.767 -37.700  20.222  1.00  0.00     0.124 A 
ATOM     26  C   UNL     1     -20.601 -38.344  19.411  1.00  0.00     0.043 A 
ATOM     27  C   UNL     1     -21.706 -37.498  19.348  1.00  0.00     0.042 A 
ATOM     28  F   UNL     1     -19.477 -40.152  20.380  1.00  0.00    -0.206 F 
ATOM     29  F   UNL     1     -23.831 -36.890  20.164  1.00  0.00    -0.207 F 
ENDBRANCH  10  22
ENDBRANCH   1   7
BRANCH   4  30
ATOM     30  S   UNL     1     -23.084 -48.477  23.297  1.00  0.00     0.238 S 
ATOM     31  O   UNL     1     -24.133 -48.773  22.350  1.00  0.00    -0.207 OA
ATOM     32  O   UNL     1     -23.148 -48.898  24.677  1.00  0.00    -0.207 OA
BRANCH  30  33
ATOM     33  N   UNL     1     -21.690 -49.173  22.670  1.00  0.00    -0.225 NA
ATOM     34  H   UNL     1     -21.936 -49.853  21.951  1.00  0.00     0.137 HD
ATOM     35  H   UNL     1     -21.052 -48.442  22.352  1.00  0.00     0.137 HD
ENDBRANCH  30  33
ENDBRANCH   4  30
TORSDOF 7
ENDMDL
