MODEL 1
REMARK VINA RESULT:   -10.948      0.000      0.000
REMARK INTER + INTRA:         -17.307
REMARK INTER:                 -16.389
REMARK INTRA:                  -0.919
REMARK UNBOUND:                -0.919
REMARK SMILES COc1cc2c(cc1OC)S[C@@H](C(O)=CCc1cc[n+](Cc3ccc(F)cc3)cc1)C2
REMARK SMILES IDX 15 1 13 2 14 3 12 5 31 6 11 7 5 8 6 9 4 10 7 11 3 12 8 13
REMARK SMILES IDX 2 14 1 15 9 16 10 17 16 18 17 19 18 20 30 21 19 22 29 23
REMARK SMILES IDX 20 24 21 25 22 26 23 27 28 28 24 29 27 30 25 31 26 32
REMARK H PARENT 14 4
ROOT
ATOM      1  C   UNL     1     -12.763 -44.655  28.085  1.00  0.00     0.020 C 
ENDROOT
BRANCH   1   2
ATOM      2  C   UNL     1     -11.654 -45.064  28.724  1.00  0.00     0.102 C 
BRANCH   2   3
ATOM      3  O   UNL     1     -10.420 -44.625  28.254  1.00  0.00    -0.511 OA
ATOM      4  H   UNL     1      -9.983 -45.383  27.816  1.00  0.00     0.293 HD
ENDBRANCH   2   3
BRANCH   2   5
ATOM      5  C   UNL     1     -11.620 -46.127  29.837  1.00  0.00     0.121 C 
ATOM      6  C   UNL     1     -10.658 -45.844  31.018  1.00  0.00     0.059 C 
ATOM      7  S   UNL     1     -13.275 -46.059  30.676  1.00  0.00    -0.114 SA
ATOM      8  C   UNL     1     -11.310 -44.740  31.817  1.00  0.00    -0.029 A 
ATOM      9  C   UNL     1     -12.710 -44.766  31.749  1.00  0.00     0.015 A 
ATOM     10  C   UNL     1     -10.650 -43.734  32.518  1.00  0.00     0.055 A 
ATOM     11  C   UNL     1     -13.479 -43.794  32.360  1.00  0.00     0.065 A 
ATOM     12  C   UNL     1     -11.411 -42.729  33.123  1.00  0.00     0.161 A 
ATOM     13  C   UNL     1     -12.818 -42.771  33.041  1.00  0.00     0.161 A 
BRANCH  12  14
ATOM     14  O   UNL     1     -10.858 -41.628  33.730  1.00  0.00    -0.493 OA
ATOM     15  C   UNL     1     -10.053 -41.926  34.872  1.00  0.00     0.278 C 
ENDBRANCH  12  14
BRANCH  13  16
ATOM     16  O   UNL     1     -13.575 -41.738  33.544  1.00  0.00    -0.493 OA
ATOM     17  C   UNL     1     -14.959 -41.995  33.278  1.00  0.00     0.278 C 
ENDBRANCH  13  16
ENDBRANCH   2   5
ENDBRANCH   1   2
BRANCH   1  18
ATOM     18  C   UNL     1     -13.342 -45.316  26.862  1.00  0.00     0.067 C 
BRANCH  18  19
ATOM     19  C   UNL     1     -14.321 -44.345  26.227  1.00  0.00    -0.032 A 
ATOM     20  C   UNL     1     -14.532 -44.371  24.846  1.00  0.00     0.075 A 
ATOM     21  C   UNL     1     -15.147 -43.538  27.009  1.00  0.00     0.075 A 
ATOM     22  C   UNL     1     -15.564 -43.627  24.289  1.00  0.00     0.308 A 
ATOM     23  C   UNL     1     -16.169 -42.810  26.407  1.00  0.00     0.308 A 
ATOM     24  N   UNL     1     -16.366 -42.869  25.070  1.00  0.00    -0.201 N 
BRANCH  24  25
ATOM     25  C   UNL     1     -17.513 -42.146  24.468  1.00  0.00     0.393 C 
BRANCH  25  26
ATOM     26  C   UNL     1     -18.794 -42.449  25.206  1.00  0.00     0.017 A 
ATOM     27  C   UNL     1     -19.565 -43.571  24.852  1.00  0.00     0.013 A 
ATOM     28  C   UNL     1     -19.243 -41.615  26.246  1.00  0.00     0.013 A 
ATOM     29  C   UNL     1     -20.749 -43.858  25.534  1.00  0.00     0.040 A 
ATOM     30  C   UNL     1     -20.428 -41.908  26.924  1.00  0.00     0.040 A 
ATOM     31  C   UNL     1     -21.169 -43.026  26.564  1.00  0.00     0.123 A 
ATOM     32  F   UNL     1     -22.303 -43.305  27.217  1.00  0.00    -0.207 F 
ENDBRANCH  25  26
ENDBRANCH  24  25
ENDBRANCH  18  19
ENDBRANCH   1  18
TORSDOF 9
ENDMDL
MODEL 2
REMARK VINA RESULT:   -10.397      1.973      2.907
REMARK INTER + INTRA:         -16.483
REMARK INTER:                 -15.681
REMARK INTRA:                  -0.802
REMARK UNBOUND:                -0.919
REMARK SMILES COc1cc2c(cc1OC)S[C@@H](C(O)=CCc1cc[n+](Cc3ccc(F)cc3)cc1)C2
REMARK SMILES IDX 15 1 13 2 14 3 12 5 31 6 11 7 5 8 6 9 4 10 7 11 3 12 8 13
REMARK SMILES IDX 2 14 1 15 9 16 10 17 16 18 17 19 18 20 30 21 19 22 29 23
REMARK SMILES IDX 20 24 21 25 22 26 23 27 28 28 24 29 27 30 25 31 26 32
REMARK H PARENT 14 4
ROOT
ATOM      1  C   UNL     1     -13.672 -44.077  27.657  1.00  0.00     0.020 C 
ENDROOT
BRANCH   1   2
ATOM      2  C   UNL     1     -13.875 -44.851  28.738  1.00  0.00     0.102 C 
BRANCH   2   3
ATOM      3  O   UNL     1     -14.718 -44.379  29.739  1.00  0.00    -0.511 OA
ATOM      4  H   UNL     1     -14.286 -43.602  30.148  1.00  0.00     0.293 HD
ENDBRANCH   2   3
BRANCH   2   5
ATOM      5  C   UNL     1     -13.113 -46.152  29.046  1.00  0.00     0.121 C 
ATOM      6  C   UNL     1     -11.668 -46.240  28.492  1.00  0.00     0.059 C 
ATOM      7  S   UNL     1     -12.812 -46.160  30.879  1.00  0.00    -0.114 SA
ATOM      8  C   UNL     1     -10.844 -45.315  29.357  1.00  0.00    -0.029 A 
ATOM      9  C   UNL     1     -11.326 -45.215  30.668  1.00  0.00     0.015 A 
ATOM     10  C   UNL     1      -9.746 -44.565  28.942  1.00  0.00     0.055 A 
ATOM     11  C   UNL     1     -10.744 -44.363  31.587  1.00  0.00     0.065 A 
ATOM     12  C   UNL     1      -9.158 -43.680  29.851  1.00  0.00     0.161 A 
ATOM     13  C   UNL     1      -9.661 -43.591  31.165  1.00  0.00     0.161 A 
BRANCH  12  14
ATOM     14  O   UNL     1      -8.155 -42.807  29.510  1.00  0.00    -0.493 OA
ATOM     15  C   UNL     1      -8.280 -42.246  28.202  1.00  0.00     0.278 C 
ENDBRANCH  12  14
BRANCH  13  16
ATOM     16  O   UNL     1      -9.157 -42.655  32.040  1.00  0.00    -0.493 OA
ATOM     17  C   UNL     1      -8.103 -43.247  32.808  1.00  0.00     0.278 C 
ENDBRANCH  13  16
ENDBRANCH   2   5
ENDBRANCH   1   2
BRANCH   1  18
ATOM     18  C   UNL     1     -13.850 -44.530  26.232  1.00  0.00     0.067 C 
BRANCH  18  19
ATOM     19  C   UNL     1     -14.996 -43.737  25.631  1.00  0.00    -0.032 A 
ATOM     20  C   UNL     1     -15.204 -43.749  24.249  1.00  0.00     0.075 A 
ATOM     21  C   UNL     1     -15.956 -43.130  26.441  1.00  0.00     0.075 A 
ATOM     22  C   UNL     1     -16.360 -43.192  23.719  1.00  0.00     0.308 A 
ATOM     23  C   UNL     1     -17.099 -42.584  25.864  1.00  0.00     0.308 A 
ATOM     24  N   UNL     1     -17.287 -42.628  24.525  1.00  0.00    -0.201 N 
BRANCH  24  25
ATOM     25  C   UNL     1     -18.551 -42.111  23.947  1.00  0.00     0.393 C 
BRANCH  25  26
ATOM     26  C   UNL     1     -19.704 -42.305  24.903  1.00  0.00     0.017 A 
ATOM     27  C   UNL     1     -20.390 -43.533  24.943  1.00  0.00     0.013 A 
ATOM     28  C   UNL     1     -20.118 -41.267  25.755  1.00  0.00     0.013 A 
ATOM     29  C   UNL     1     -21.453 -43.720  25.827  1.00  0.00     0.040 A 
ATOM     30  C   UNL     1     -21.184 -41.459  26.637  1.00  0.00     0.040 A 
ATOM     31  C   UNL     1     -21.840 -42.683  26.666  1.00  0.00     0.123 A 
ATOM     32  F   UNL     1     -22.860 -42.865  27.514  1.00  0.00    -0.207 F 
ENDBRANCH  25  26
ENDBRANCH  24  25
ENDBRANCH  18  19
ENDBRANCH   1  18
TORSDOF 9
ENDMDL
MODEL 3
REMARK VINA RESULT:   -10.279      1.987      2.408
REMARK INTER + INTRA:         -16.305
REMARK INTER:                 -15.871
REMARK INTRA:                  -0.434
REMARK UNBOUND:                -0.919
REMARK SMILES COc1cc2c(cc1OC)S[C@@H](C(O)=CCc1cc[n+](Cc3ccc(F)cc3)cc1)C2
REMARK SMILES IDX 15 1 13 2 14 3 12 5 31 6 11 7 5 8 6 9 4 10 7 11 3 12 8 13
REMARK SMILES IDX 2 14 1 15 9 16 10 17 16 18 17 19 18 20 30 21 19 22 29 23
REMARK SMILES IDX 20 24 21 25 22 26 23 27 28 28 24 29 27 30 25 31 26 32
REMARK H PARENT 14 4
ROOT
ATOM      1  C   UNL     1     -12.958 -44.025  27.647  1.00  0.00     0.020 C 
ENDROOT
BRANCH   1   2
ATOM      2  C   UNL     1     -11.878 -44.378  28.365  1.00  0.00     0.102 C 
BRANCH   2   3
ATOM      3  O   UNL     1     -10.686 -43.696  28.143  1.00  0.00    -0.511 OA
ATOM      4  H   UNL     1     -10.728 -42.856  28.641  1.00  0.00     0.293 HD
ENDBRANCH   2   3
BRANCH   2   5
ATOM      5  C   UNL     1     -11.801 -45.599  29.298  1.00  0.00     0.121 C 
ATOM      6  C   UNL     1     -10.820 -45.482  30.492  1.00  0.00     0.059 C 
ATOM      7  S   UNL     1     -13.439 -45.697  30.168  1.00  0.00    -0.114 SA
ATOM      8  C   UNL     1     -11.475 -44.529  31.465  1.00  0.00    -0.029 A 
ATOM      9  C   UNL     1     -12.875 -44.575  31.419  1.00  0.00     0.015 A 
ATOM     10  C   UNL     1     -10.818 -43.630  32.301  1.00  0.00     0.055 A 
ATOM     11  C   UNL     1     -13.649 -43.725  32.187  1.00  0.00     0.065 A 
ATOM     12  C   UNL     1     -11.585 -42.747  33.068  1.00  0.00     0.161 A 
ATOM     13  C   UNL     1     -12.992 -42.806  33.006  1.00  0.00     0.161 A 
BRANCH  12  14
ATOM     14  O   UNL     1     -11.039 -41.742  33.829  1.00  0.00    -0.493 OA
ATOM     15  C   UNL     1      -9.787 -42.072  34.432  1.00  0.00     0.278 C 
ENDBRANCH  12  14
BRANCH  13  16
ATOM     16  O   UNL     1     -13.757 -41.881  33.678  1.00  0.00    -0.493 OA
ATOM     17  C   UNL     1     -15.040 -41.782  33.047  1.00  0.00     0.278 C 
ENDBRANCH  13  16
ENDBRANCH   2   5
ENDBRANCH   1   2
BRANCH   1  18
ATOM     18  C   UNL     1     -12.946 -43.043  26.505  1.00  0.00     0.067 C 
BRANCH  18  19
ATOM     19  C   UNL     1     -14.373 -42.882  26.014  1.00  0.00    -0.032 A 
ATOM     20  C   UNL     1     -14.680 -43.122  24.672  1.00  0.00     0.075 A 
ATOM     21  C   UNL     1     -15.424 -42.666  26.906  1.00  0.00     0.075 A 
ATOM     22  C   UNL     1     -16.007 -43.171  24.264  1.00  0.00     0.308 A 
ATOM     23  C   UNL     1     -16.737 -42.723  26.451  1.00  0.00     0.308 A 
ATOM     24  N   UNL     1     -17.008 -42.979  25.151  1.00  0.00    -0.201 N 
BRANCH  24  25
ATOM     25  C   UNL     1     -18.419 -43.115  24.711  1.00  0.00     0.393 C 
BRANCH  25  26
ATOM     26  C   UNL     1     -18.806 -41.995  23.775  1.00  0.00     0.017 A 
ATOM     27  C   UNL     1     -17.916 -41.575  22.769  1.00  0.00     0.013 A 
ATOM     28  C   UNL     1     -20.048 -41.347  23.899  1.00  0.00     0.013 A 
ATOM     29  C   UNL     1     -18.270 -40.543  21.899  1.00  0.00     0.040 A 
ATOM     30  C   UNL     1     -20.396 -40.314  23.025  1.00  0.00     0.040 A 
ATOM     31  C   UNL     1     -19.505 -39.923  22.034  1.00  0.00     0.123 A 
ATOM     32  F   UNL     1     -19.842 -38.934  21.196  1.00  0.00    -0.207 F 
ENDBRANCH  25  26
ENDBRANCH  24  25
ENDBRANCH  18  19
ENDBRANCH   1  18
TORSDOF 9
ENDMDL
MODEL 4
REMARK VINA RESULT:    -9.988      1.152      2.070
REMARK INTER + INTRA:         -15.870
REMARK INTER:                 -15.229
REMARK INTRA:                  -0.642
REMARK UNBOUND:                -0.919
REMARK SMILES COc1cc2c(cc1OC)S[C@@H](C(O)=CCc1cc[n+](Cc3ccc(F)cc3)cc1)C2
REMARK SMILES IDX 15 1 13 2 14 3 12 5 31 6 11 7 5 8 6 9 4 10 7 11 3 12 8 13
REMARK SMILES IDX 2 14 1 15 9 16 10 17 16 18 17 19 18 20 30 21 19 22 29 23
REMARK SMILES IDX 20 24 21 25 22 26 23 27 28 28 24 29 27 30 25 31 26 32
REMARK H PARENT 14 4
ROOT
ATOM      1  C   UNL     1     -13.342 -44.269  28.089  1.00  0.00     0.020 C 
ENDROOT
BRANCH   1   2
ATOM      2  C   UNL     1     -12.434 -45.051  28.699  1.00  0.00     0.102 C 
BRANCH   2   3
ATOM      3  O   UNL     1     -11.166 -45.153  28.136  1.00  0.00    -0.511 OA
ATOM      4  H   UNL     1     -11.070 -44.425  27.489  1.00  0.00     0.293 HD
ENDBRANCH   2   3
BRANCH   2   5
ATOM      5  C   UNL     1     -12.732 -45.988  29.882  1.00  0.00     0.121 C 
ATOM      6  C   UNL     1     -11.508 -46.436  30.720  1.00  0.00     0.059 C 
ATOM      7  S   UNL     1     -13.686 -44.983  31.119  1.00  0.00    -0.114 SA
ATOM      8  C   UNL     1     -11.100 -45.223  31.524  1.00  0.00    -0.029 A 
ATOM      9  C   UNL     1     -12.179 -44.385  31.837  1.00  0.00     0.015 A 
ATOM     10  C   UNL     1      -9.802 -44.883  31.895  1.00  0.00     0.055 A 
ATOM     11  C   UNL     1     -11.992 -43.191  32.508  1.00  0.00     0.065 A 
ATOM     12  C   UNL     1      -9.591 -43.668  32.555  1.00  0.00     0.161 A 
ATOM     13  C   UNL     1     -10.689 -42.836  32.858  1.00  0.00     0.161 A 
BRANCH  12  14
ATOM     14  O   UNL     1      -8.343 -43.181  32.854  1.00  0.00    -0.493 OA
ATOM     15  C   UNL     1      -7.331 -43.530  31.908  1.00  0.00     0.278 C 
ENDBRANCH  12  14
BRANCH  13  16
ATOM     16  O   UNL     1     -10.487 -41.595  33.416  1.00  0.00    -0.493 OA
ATOM     17  C   UNL     1     -10.655 -41.684  34.837  1.00  0.00     0.278 C 
ENDBRANCH  13  16
ENDBRANCH   2   5
ENDBRANCH   1   2
BRANCH   1  18
ATOM     18  C   UNL     1     -13.128 -43.576  26.769  1.00  0.00     0.067 C 
BRANCH  18  19
ATOM     19  C   UNL     1     -14.481 -43.426  26.097  1.00  0.00    -0.032 A 
ATOM     20  C   UNL     1     -15.593 -43.036  26.848  1.00  0.00     0.075 A 
ATOM     21  C   UNL     1     -14.611 -43.501  24.711  1.00  0.00     0.075 A 
ATOM     22  C   UNL     1     -16.780 -42.706  26.207  1.00  0.00     0.308 A 
ATOM     23  C   UNL     1     -15.820 -43.162  24.112  1.00  0.00     0.308 A 
ATOM     24  N   UNL     1     -16.875 -42.766  24.860  1.00  0.00    -0.201 N 
BRANCH  24  25
ATOM     25  C   UNL     1     -18.126 -42.334  24.189  1.00  0.00     0.393 C 
BRANCH  25  26
ATOM     26  C   UNL     1     -19.322 -42.534  25.088  1.00  0.00     0.017 A 
ATOM     27  C   UNL     1     -19.791 -41.474  25.886  1.00  0.00     0.013 A 
ATOM     28  C   UNL     1     -19.976 -43.777  25.155  1.00  0.00     0.013 A 
ATOM     29  C   UNL     1     -20.899 -41.652  26.716  1.00  0.00     0.040 A 
ATOM     30  C   UNL     1     -21.083 -43.949  25.988  1.00  0.00     0.040 A 
ATOM     31  C   UNL     1     -21.535 -42.886  26.759  1.00  0.00     0.123 A 
ATOM     32  F   UNL     1     -22.598 -43.053  27.555  1.00  0.00    -0.207 F 
ENDBRANCH  25  26
ENDBRANCH  24  25
ENDBRANCH  18  19
ENDBRANCH   1  18
TORSDOF 9
ENDMDL
MODEL 5
REMARK VINA RESULT:    -9.693      5.731     11.141
REMARK INTER + INTRA:         -15.428
REMARK INTER:                 -14.483
REMARK INTRA:                  -0.945
REMARK UNBOUND:                -0.919
REMARK SMILES COc1cc2c(cc1OC)S[C@@H](C(O)=CCc1cc[n+](Cc3ccc(F)cc3)cc1)C2
REMARK SMILES IDX 15 1 13 2 14 3 12 5 31 6 11 7 5 8 6 9 4 10 7 11 3 12 8 13
REMARK SMILES IDX 2 14 1 15 9 16 10 17 16 18 17 19 18 20 30 21 19 22 29 23
REMARK SMILES IDX 20 24 21 25 22 26 23 27 28 28 24 29 27 30 25 31 26 32
REMARK H PARENT 14 4
ROOT
ATOM      1  C   UNL     1     -18.406 -42.206  25.468  1.00  0.00     0.020 C 
ENDROOT
BRANCH   1   2
ATOM      2  C   UNL     1     -19.619 -42.767  25.320  1.00  0.00     0.102 C 
BRANCH   2   3
ATOM      3  O   UNL     1     -19.684 -44.112  24.968  1.00  0.00    -0.511 OA
ATOM      4  H   UNL     1     -19.113 -44.609  25.588  1.00  0.00     0.293 HD
ENDBRANCH   2   3
BRANCH   2   5
ATOM      5  C   UNL     1     -20.953 -42.001  25.335  1.00  0.00     0.121 C 
ATOM      6  C   UNL     1     -20.961 -40.635  24.603  1.00  0.00     0.059 C 
ATOM      7  S   UNL     1     -22.136 -42.989  24.300  1.00  0.00    -0.114 SA
ATOM      8  C   UNL     1     -20.937 -40.965  23.128  1.00  0.00    -0.029 A 
ATOM      9  C   UNL     1     -21.568 -42.179  22.828  1.00  0.00     0.015 A 
ATOM     10  C   UNL     1     -20.319 -40.217  22.130  1.00  0.00     0.055 A 
ATOM     11  C   UNL     1     -21.587 -42.682  21.541  1.00  0.00     0.065 A 
ATOM     12  C   UNL     1     -20.308 -40.721  20.825  1.00  0.00     0.161 A 
ATOM     13  C   UNL     1     -20.945 -41.946  20.543  1.00  0.00     0.161 A 
BRANCH  12  14
ATOM     14  O   UNL     1     -19.623 -40.127  19.795  1.00  0.00    -0.493 OA
ATOM     15  C   UNL     1     -20.140 -38.856  19.397  1.00  0.00     0.278 C 
ENDBRANCH  12  14
BRANCH  13  16
ATOM     16  O   UNL     1     -20.858 -42.503  19.288  1.00  0.00    -0.493 OA
ATOM     17  C   UNL     1     -20.934 -43.929  19.398  1.00  0.00     0.278 C 
ENDBRANCH  13  16
ENDBRANCH   2   5
ENDBRANCH   1   2
BRANCH   1  18
ATOM     18  C   UNL     1     -17.230 -42.450  24.559  1.00  0.00     0.067 C 
BRANCH  18  19
ATOM     19  C   UNL     1     -16.090 -42.986  25.407  1.00  0.00    -0.032 A 
ATOM     20  C   UNL     1     -16.132 -42.851  26.798  1.00  0.00     0.075 A 
ATOM     21  C   UNL     1     -15.078 -43.765  24.847  1.00  0.00     0.075 A 
ATOM     22  C   UNL     1     -15.198 -43.510  27.585  1.00  0.00     0.308 A 
ATOM     23  C   UNL     1     -14.163 -44.406  25.676  1.00  0.00     0.308 A 
ATOM     24  N   UNL     1     -14.239 -44.277  27.021  1.00  0.00    -0.201 N 
BRANCH  24  25
ATOM     25  C   UNL     1     -13.299 -45.037  27.882  1.00  0.00     0.393 C 
BRANCH  25  26
ATOM     26  C   UNL     1     -12.001 -44.287  28.061  1.00  0.00     0.017 A 
ATOM     27  C   UNL     1     -10.896 -44.920  28.658  1.00  0.00     0.013 A 
ATOM     28  C   UNL     1     -11.877 -42.948  27.649  1.00  0.00     0.013 A 
ATOM     29  C   UNL     1      -9.692 -44.233  28.823  1.00  0.00     0.040 A 
ATOM     30  C   UNL     1     -10.671 -42.266  27.818  1.00  0.00     0.040 A 
ATOM     31  C   UNL     1      -9.590 -42.914  28.401  1.00  0.00     0.123 A 
ATOM     32  F   UNL     1      -8.434 -42.258  28.559  1.00  0.00    -0.207 F 
ENDBRANCH  25  26
ENDBRANCH  24  25
ENDBRANCH  18  19
ENDBRANCH   1  18
TORSDOF 9
ENDMDL
MODEL 6
REMARK VINA RESULT:    -9.564      1.769      2.831
REMARK INTER + INTRA:         -15.235
REMARK INTER:                 -14.709
REMARK INTRA:                  -0.525
REMARK UNBOUND:                -0.919
REMARK SMILES COc1cc2c(cc1OC)S[C@@H](C(O)=CCc1cc[n+](Cc3ccc(F)cc3)cc1)C2
REMARK SMILES IDX 15 1 13 2 14 3 12 5 31 6 11 7 5 8 6 9 4 10 7 11 3 12 8 13
REMARK SMILES IDX 2 14 1 15 9 16 10 17 16 18 17 19 18 20 30 21 19 22 29 23
REMARK SMILES IDX 20 24 21 25 22 26 23 27 28 28 24 29 27 30 25 31 26 32
REMARK H PARENT 14 4
ROOT
ATOM      1  C   UNL     1     -13.998 -44.328  27.188  1.00  0.00     0.020 C 
ENDROOT
BRANCH   1   2
ATOM      2  C   UNL     1     -12.788 -44.614  27.698  1.00  0.00     0.102 C 
BRANCH   2   3
ATOM      3  O   UNL     1     -11.798 -43.639  27.637  1.00  0.00    -0.511 OA
ATOM      4  H   UNL     1     -11.619 -43.340  28.551  1.00  0.00     0.293 HD
ENDBRANCH   2   3
BRANCH   2   5
ATOM      5  C   UNL     1     -12.347 -46.003  28.194  1.00  0.00     0.121 C 
ATOM      6  C   UNL     1     -10.828 -46.186  28.442  1.00  0.00     0.059 C 
ATOM      7  S   UNL     1     -13.032 -46.188  29.910  1.00  0.00    -0.114 SA
ATOM      8  C   UNL     1     -10.528 -45.417  29.708  1.00  0.00    -0.029 A 
ATOM      9  C   UNL     1     -11.612 -45.377  30.595  1.00  0.00     0.015 A 
ATOM     10  C   UNL     1      -9.344 -44.745  29.999  1.00  0.00     0.055 A 
ATOM     11  C   UNL     1     -11.550 -44.662  31.776  1.00  0.00     0.065 A 
ATOM     12  C   UNL     1      -9.270 -43.998  31.178  1.00  0.00     0.161 A 
ATOM     13  C   UNL     1     -10.373 -43.966  32.057  1.00  0.00     0.161 A 
BRANCH  12  14
ATOM     14  O   UNL     1      -8.199 -43.200  31.499  1.00  0.00    -0.493 OA
ATOM     15  C   UNL     1      -7.263 -43.802  32.395  1.00  0.00     0.278 C 
ENDBRANCH  12  14
BRANCH  13  16
ATOM     16  O   UNL     1     -10.353 -43.157  33.170  1.00  0.00    -0.493 OA
ATOM     17  C   UNL     1     -11.595 -42.449  33.261  1.00  0.00     0.278 C 
ENDBRANCH  13  16
ENDBRANCH   2   5
ENDBRANCH   1   2
BRANCH   1  18
ATOM     18  C   UNL     1     -14.373 -43.013  26.556  1.00  0.00     0.067 C 
BRANCH  18  19
ATOM     19  C   UNL     1     -15.885 -42.887  26.607  1.00  0.00    -0.032 A 
ATOM     20  C   UNL     1     -16.532 -42.736  27.836  1.00  0.00     0.075 A 
ATOM     21  C   UNL     1     -16.637 -42.747  25.441  1.00  0.00     0.075 A 
ATOM     22  C   UNL     1     -17.884 -42.422  27.873  1.00  0.00     0.308 A 
ATOM     23  C   UNL     1     -17.990 -42.433  25.526  1.00  0.00     0.308 A 
ATOM     24  N   UNL     1     -18.588 -42.270  26.729  1.00  0.00    -0.201 N 
BRANCH  24  25
ATOM     25  C   UNL     1     -20.011 -41.857  26.788  1.00  0.00     0.393 C 
BRANCH  25  26
ATOM     26  C   UNL     1     -20.928 -43.036  26.568  1.00  0.00     0.017 A 
ATOM     27  C   UNL     1     -21.628 -43.171  25.355  1.00  0.00     0.013 A 
ATOM     28  C   UNL     1     -21.107 -44.007  27.569  1.00  0.00     0.013 A 
ATOM     29  C   UNL     1     -22.473 -44.262  25.146  1.00  0.00     0.040 A 
ATOM     30  C   UNL     1     -21.955 -45.096  27.353  1.00  0.00     0.040 A 
ATOM     31  C   UNL     1     -22.629 -45.214  26.145  1.00  0.00     0.123 A 
ATOM     32  F   UNL     1     -23.439 -46.259  25.940  1.00  0.00    -0.207 F 
ENDBRANCH  25  26
ENDBRANCH  24  25
ENDBRANCH  18  19
ENDBRANCH   1  18
TORSDOF 9
ENDMDL
MODEL 7
REMARK VINA RESULT:    -9.545      5.417     10.745
REMARK INTER + INTRA:         -15.207
REMARK INTER:                 -14.307
REMARK INTRA:                  -0.900
REMARK UNBOUND:                -0.919
REMARK SMILES COc1cc2c(cc1OC)S[C@@H](C(O)=CCc1cc[n+](Cc3ccc(F)cc3)cc1)C2
REMARK SMILES IDX 15 1 13 2 14 3 12 5 31 6 11 7 5 8 6 9 4 10 7 11 3 12 8 13
REMARK SMILES IDX 2 14 1 15 9 16 10 17 16 18 17 19 18 20 30 21 19 22 29 23
REMARK SMILES IDX 20 24 21 25 22 26 23 27 28 28 24 29 27 30 25 31 26 32
REMARK H PARENT 14 4
ROOT
ATOM      1  C   UNL     1     -20.295 -41.381  26.361  1.00  0.00     0.020 C 
ENDROOT
BRANCH   1   2
ATOM      2  C   UNL     1     -21.637 -41.309  26.314  1.00  0.00     0.102 C 
BRANCH   2   3
ATOM      3  O   UNL     1     -22.297 -40.625  27.329  1.00  0.00    -0.511 OA
ATOM      4  H   UNL     1     -21.961 -39.706  27.335  1.00  0.00     0.293 HD
ENDBRANCH   2   3
BRANCH   2   5
ATOM      5  C   UNL     1     -22.525 -42.072  25.317  1.00  0.00     0.121 C 
ATOM      6  C   UNL     1     -23.153 -41.227  24.179  1.00  0.00     0.059 C 
ATOM      7  S   UNL     1     -21.396 -43.200  24.367  1.00  0.00    -0.114 SA
ATOM      8  C   UNL     1     -22.017 -40.912  23.234  1.00  0.00    -0.029 A 
ATOM      9  C   UNL     1     -21.030 -41.906  23.211  1.00  0.00     0.015 A 
ATOM     10  C   UNL     1     -21.874 -39.748  22.482  1.00  0.00     0.055 A 
ATOM     11  C   UNL     1     -19.880 -41.763  22.457  1.00  0.00     0.065 A 
ATOM     12  C   UNL     1     -20.707 -39.575  21.732  1.00  0.00     0.161 A 
ATOM     13  C   UNL     1     -19.724 -40.586  21.724  1.00  0.00     0.161 A 
BRANCH  12  14
ATOM     14  O   UNL     1     -20.410 -38.416  21.057  1.00  0.00    -0.493 OA
ATOM     15  C   UNL     1     -21.094 -38.267  19.812  1.00  0.00     0.278 C 
ENDBRANCH  12  14
BRANCH  13  16
ATOM     16  O   UNL     1     -18.528 -40.388  21.072  1.00  0.00    -0.493 OA
ATOM     17  C   UNL     1     -17.448 -40.664  21.972  1.00  0.00     0.278 C 
ENDBRANCH  13  16
ENDBRANCH   2   5
ENDBRANCH   1   2
BRANCH   1  18
ATOM     18  C   UNL     1     -19.516 -42.260  27.304  1.00  0.00     0.067 C 
BRANCH  18  19
ATOM     19  C   UNL     1     -18.087 -42.333  26.799  1.00  0.00    -0.032 A 
ATOM     20  C   UNL     1     -17.033 -42.476  27.705  1.00  0.00     0.075 A 
ATOM     21  C   UNL     1     -17.807 -42.433  25.436  1.00  0.00     0.075 A 
ATOM     22  C   UNL     1     -15.751 -42.743  27.240  1.00  0.00     0.308 A 
ATOM     23  C   UNL     1     -16.508 -42.701  25.017  1.00  0.00     0.308 A 
ATOM     24  N   UNL     1     -15.509 -42.857  25.916  1.00  0.00    -0.201 N 
BRANCH  24  25
ATOM     25  C   UNL     1     -14.150 -43.221  25.443  1.00  0.00     0.393 C 
BRANCH  25  26
ATOM     26  C   UNL     1     -13.374 -43.938  26.522  1.00  0.00     0.017 A 
ATOM     27  C   UNL     1     -12.376 -43.260  27.244  1.00  0.00     0.013 A 
ATOM     28  C   UNL     1     -13.625 -45.291  26.813  1.00  0.00     0.013 A 
ATOM     29  C   UNL     1     -11.659 -43.918  28.245  1.00  0.00     0.040 A 
ATOM     30  C   UNL     1     -12.904 -45.943  27.814  1.00  0.00     0.040 A 
ATOM     31  C   UNL     1     -11.929 -45.252  28.522  1.00  0.00     0.123 A 
ATOM     32  F   UNL     1     -11.240 -45.879  29.483  1.00  0.00    -0.207 F 
ENDBRANCH  25  26
ENDBRANCH  24  25
ENDBRANCH  18  19
ENDBRANCH   1  18
TORSDOF 9
ENDMDL
MODEL 8
REMARK VINA RESULT:    -9.497      2.553      3.382
REMARK INTER + INTRA:         -15.135
REMARK INTER:                 -15.096
REMARK INTRA:                  -0.039
REMARK UNBOUND:                -0.919
REMARK SMILES COc1cc2c(cc1OC)S[C@@H](C(O)=CCc1cc[n+](Cc3ccc(F)cc3)cc1)C2
REMARK SMILES IDX 15 1 13 2 14 3 12 5 31 6 11 7 5 8 6 9 4 10 7 11 3 12 8 13
REMARK SMILES IDX 2 14 1 15 9 16 10 17 16 18 17 19 18 20 30 21 19 22 29 23
REMARK SMILES IDX 20 24 21 25 22 26 23 27 28 28 24 29 27 30 25 31 26 32
REMARK H PARENT 14 4
ROOT
ATOM      1  C   UNL     1     -13.623 -43.585  27.101  1.00  0.00     0.020 C 
ENDROOT
BRANCH   1   2
ATOM      2  C   UNL     1     -12.671 -44.280  27.748  1.00  0.00     0.102 C 
BRANCH   2   3
ATOM      3  O   UNL     1     -11.366 -43.801  27.712  1.00  0.00    -0.511 OA
ATOM      4  H   UNL     1     -11.406 -42.842  27.523  1.00  0.00     0.293 HD
ENDBRANCH   2   3
BRANCH   2   5
ATOM      5  C   UNL     1     -12.872 -45.666  28.385  1.00  0.00     0.121 C 
ATOM      6  C   UNL     1     -11.581 -46.426  28.781  1.00  0.00     0.059 C 
ATOM      7  S   UNL     1     -13.657 -45.370  30.043  1.00  0.00    -0.114 SA
ATOM      8  C   UNL     1     -11.052 -45.717  30.007  1.00  0.00    -0.029 A 
ATOM      9  C   UNL     1     -12.064 -45.143  30.788  1.00  0.00     0.015 A 
ATOM     10  C   UNL     1      -9.712 -45.562  30.350  1.00  0.00     0.055 A 
ATOM     11  C   UNL     1     -11.769 -44.394  31.911  1.00  0.00     0.065 A 
ATOM     12  C   UNL     1      -9.393 -44.788  31.470  1.00  0.00     0.161 A 
ATOM     13  C   UNL     1     -10.425 -44.215  32.242  1.00  0.00     0.161 A 
BRANCH  12  14
ATOM     14  O   UNL     1      -8.105 -44.469  31.824  1.00  0.00    -0.493 OA
ATOM     15  C   UNL     1      -7.103 -45.243  31.162  1.00  0.00     0.278 C 
ENDBRANCH  12  14
BRANCH  13  16
ATOM     16  O   UNL     1     -10.126 -43.372  33.287  1.00  0.00    -0.493 OA
ATOM     17  C   UNL     1     -11.173 -42.405  33.428  1.00  0.00     0.278 C 
ENDBRANCH  13  16
ENDBRANCH   2   5
ENDBRANCH   1   2
BRANCH   1  18
ATOM     18  C   UNL     1     -13.690 -43.408  25.606  1.00  0.00     0.067 C 
BRANCH  18  19
ATOM     19  C   UNL     1     -15.121 -43.054  25.243  1.00  0.00    -0.032 A 
ATOM     20  C   UNL     1     -15.579 -43.255  23.938  1.00  0.00     0.075 A 
ATOM     21  C   UNL     1     -16.046 -42.692  26.222  1.00  0.00     0.075 A 
ATOM     22  C   UNL     1     -16.932 -43.122  23.652  1.00  0.00     0.308 A 
ATOM     23  C   UNL     1     -17.390 -42.570  25.889  1.00  0.00     0.308 A 
ATOM     24  N   UNL     1     -17.812 -42.792  24.622  1.00  0.00    -0.201 N 
BRANCH  24  25
ATOM     25  C   UNL     1     -19.262 -42.733  24.314  1.00  0.00     0.393 C 
BRANCH  25  26
ATOM     26  C   UNL     1     -19.582 -41.548  23.434  1.00  0.00     0.017 A 
ATOM     27  C   UNL     1     -20.749 -40.795  23.659  1.00  0.00     0.013 A 
ATOM     28  C   UNL     1     -18.733 -41.186  22.374  1.00  0.00     0.013 A 
ATOM     29  C   UNL     1     -21.047 -39.696  22.852  1.00  0.00     0.040 A 
ATOM     30  C   UNL     1     -19.037 -40.086  21.569  1.00  0.00     0.040 A 
ATOM     31  C   UNL     1     -20.190 -39.351  21.816  1.00  0.00     0.123 A 
ATOM     32  F   UNL     1     -20.478 -38.296  21.044  1.00  0.00    -0.207 F 
ENDBRANCH  25  26
ENDBRANCH  24  25
ENDBRANCH  18  19
ENDBRANCH   1  18
TORSDOF 9
ENDMDL
MODEL 9
REMARK VINA RESULT:    -9.405      5.850     10.630
REMARK INTER + INTRA:         -14.997
REMARK INTER:                 -13.689
REMARK INTRA:                  -1.308
REMARK UNBOUND:                -0.919
REMARK SMILES COc1cc2c(cc1OC)S[C@@H](C(O)=CCc1cc[n+](Cc3ccc(F)cc3)cc1)C2
REMARK SMILES IDX 15 1 13 2 14 3 12 5 31 6 11 7 5 8 6 9 4 10 7 11 3 12 8 13
REMARK SMILES IDX 2 14 1 15 9 16 10 17 16 18 17 19 18 20 30 21 19 22 29 23
REMARK SMILES IDX 20 24 21 25 22 26 23 27 28 28 24 29 27 30 25 31 26 32
REMARK H PARENT 14 4
ROOT
ATOM      1  C   UNL     1     -20.464 -43.571  26.046  1.00  0.00     0.020 C 
ENDROOT
BRANCH   1   2
ATOM      2  C   UNL     1     -21.644 -43.291  25.467  1.00  0.00     0.102 C 
BRANCH   2   3
ATOM      3  O   UNL     1     -22.231 -44.262  24.662  1.00  0.00    -0.511 OA
ATOM      4  H   UNL     1     -21.677 -45.066  24.716  1.00  0.00     0.293 HD
ENDBRANCH   2   3
BRANCH   2   5
ATOM      5  C   UNL     1     -22.325 -41.911  25.477  1.00  0.00     0.121 C 
ATOM      6  C   UNL     1     -21.405 -40.697  25.192  1.00  0.00     0.059 C 
ATOM      7  S   UNL     1     -23.458 -41.876  24.006  1.00  0.00    -0.114 SA
ATOM      8  C   UNL     1     -21.098 -40.757  23.714  1.00  0.00    -0.029 A 
ATOM      9  C   UNL     1     -22.133 -41.330  22.962  1.00  0.00     0.015 A 
ATOM     10  C   UNL     1     -19.911 -40.360  23.105  1.00  0.00     0.055 A 
ATOM     11  C   UNL     1     -22.007 -41.534  21.601  1.00  0.00     0.065 A 
ATOM     12  C   UNL     1     -19.756 -40.579  21.732  1.00  0.00     0.161 A 
ATOM     13  C   UNL     1     -20.807 -41.161  20.994  1.00  0.00     0.161 A 
BRANCH  12  14
ATOM     14  O   UNL     1     -18.583 -40.341  21.060  1.00  0.00    -0.493 OA
ATOM     15  C   UNL     1     -17.403 -40.612  21.816  1.00  0.00     0.278 C 
ENDBRANCH  12  14
BRANCH  13  16
ATOM     16  O   UNL     1     -20.633 -41.473  19.665  1.00  0.00    -0.493 OA
ATOM     17  C   UNL     1     -21.242 -42.742  19.395  1.00  0.00     0.278 C 
ENDBRANCH  13  16
ENDBRANCH   2   5
ENDBRANCH   1   2
BRANCH   1  18
ATOM     18  C   UNL     1     -19.783 -42.701  27.069  1.00  0.00     0.067 C 
BRANCH  18  19
ATOM     19  C   UNL     1     -18.337 -42.524  26.641  1.00  0.00    -0.032 A 
ATOM     20  C   UNL     1     -17.325 -42.474  27.604  1.00  0.00     0.075 A 
ATOM     21  C   UNL     1     -17.970 -42.581  25.297  1.00  0.00     0.075 A 
ATOM     22  C   UNL     1     -15.994 -42.514  27.211  1.00  0.00     0.308 A 
ATOM     23  C   UNL     1     -16.623 -42.618  24.951  1.00  0.00     0.308 A 
ATOM     24  N   UNL     1     -15.663 -42.591  25.904  1.00  0.00    -0.201 N 
BRANCH  24  25
ATOM     25  C   UNL     1     -14.238 -42.712  25.508  1.00  0.00     0.393 C 
BRANCH  25  26
ATOM     26  C   UNL     1     -13.500 -43.659  26.424  1.00  0.00     0.017 A 
ATOM     27  C   UNL     1     -13.832 -45.026  26.444  1.00  0.00     0.013 A 
ATOM     28  C   UNL     1     -12.483 -43.193  27.276  1.00  0.00     0.013 A 
ATOM     29  C   UNL     1     -13.150 -45.906  27.286  1.00  0.00     0.040 A 
ATOM     30  C   UNL     1     -11.805 -44.079  28.117  1.00  0.00     0.040 A 
ATOM     31  C   UNL     1     -12.143 -45.425  28.113  1.00  0.00     0.123 A 
ATOM     32  F   UNL     1     -11.490 -46.272  28.918  1.00  0.00    -0.207 F 
ENDBRANCH  25  26
ENDBRANCH  24  25
ENDBRANCH  18  19
ENDBRANCH   1  18
TORSDOF 9
ENDMDL
