MODEL 1
REMARK VINA RESULT:   -11.915      0.000      0.000
REMARK INTER + INTRA:         -17.594
REMARK INTER:                 -16.791
REMARK INTRA:                  -0.802
REMARK UNBOUND:                -0.802
REMARK SMILES O=C(NCCCCNc1c2c(nc3ccccc13)CCCC2)c1ccc(F)cc1
REMARK SMILES IDX 5 1 6 2 7 3 8 4 9 6 10 7 18 8 11 9 22 10 17 11 13 12 12 13
REMARK SMILES IDX 19 14 21 15 16 16 14 17 20 18 15 19 4 20 3 21 2 22 1 24
REMARK SMILES IDX 23 25 24 26 29 27 25 28 28 29 26 30 27 31
REMARK H PARENT 8 5 3 23
ROOT
ATOM      1  C   UNL     1     -12.657 -45.975  27.686  1.00  0.00     0.023 C 
ENDROOT
BRANCH   1   2
ATOM      2  C   UNL     1     -11.304 -46.556  28.110  1.00  0.00     0.023 C 
BRANCH   2   3
ATOM      3  C   UNL     1     -10.587 -45.691  29.150  1.00  0.00     0.113 C 
BRANCH   3   4
ATOM      4  N   UNL     1     -10.943 -46.133  30.506  1.00  0.00    -0.384 N 
ATOM      5  H   UNL     1     -11.912 -46.442  30.533  1.00  0.00     0.160 HD
BRANCH   4   6
ATOM      6  C   UNL     1     -10.744 -45.090  31.463  1.00  0.00     0.049 A 
ATOM      7  C   UNL     1     -11.835 -44.351  31.967  1.00  0.00    -0.003 A 
ATOM      8  C   UNL     1      -9.419 -44.726  31.830  1.00  0.00     0.024 A 
ATOM      9  C   UNL     1     -11.547 -43.260  32.793  1.00  0.00     0.046 A 
ATOM     10  C   UNL     1     -13.263 -44.668  31.583  1.00  0.00     0.039 C 
ATOM     11  C   UNL     1      -8.266 -45.428  31.399  1.00  0.00     0.012 A 
ATOM     12  C   UNL     1      -9.256 -43.619  32.682  1.00  0.00     0.073 A 
ATOM     13  N   UNL     1     -10.290 -42.906  33.149  1.00  0.00    -0.252 NA
ATOM     14  C   UNL     1     -12.636 -42.409  33.396  1.00  0.00     0.056 C 
ATOM     15  C   UNL     1     -14.317 -43.976  32.446  1.00  0.00     0.005 C 
ATOM     16  C   UNL     1      -6.987 -45.034  31.788  1.00  0.00     0.001 A 
ATOM     17  C   UNL     1      -7.972 -43.243  33.058  1.00  0.00     0.029 A 
ATOM     18  C   UNL     1     -13.962 -42.513  32.653  1.00  0.00     0.007 C 
ATOM     19  C   UNL     1      -6.840 -43.934  32.621  1.00  0.00     0.002 A 
ENDBRANCH   4   6
ENDBRANCH   3   4
ENDBRANCH   2   3
ENDBRANCH   1   2
BRANCH   1  20
ATOM     20  C   UNL     1     -12.715 -44.454  27.845  1.00  0.00     0.116 C 
BRANCH  20  21
ATOM     21  N   UNL     1     -14.054 -43.921  27.704  1.00  0.00    -0.352 N 
ATOM     22  C   UNL     1     -14.509 -43.427  26.498  1.00  0.00     0.251 C 
ATOM     23  H   UNL     1     -14.714 -44.104  28.447  1.00  0.00     0.163 HD
ATOM     24  O   UNL     1     -13.825 -43.388  25.482  1.00  0.00    -0.269 OA
BRANCH  22  25
ATOM     25  C   UNL     1     -15.925 -42.967  26.462  1.00  0.00     0.040 A 
ATOM     26  C   UNL     1     -16.574 -42.719  27.681  1.00  0.00     0.017 A 
ATOM     27  C   UNL     1     -16.624 -42.805  25.256  1.00  0.00     0.017 A 
ATOM     28  C   UNL     1     -17.901 -42.287  27.694  1.00  0.00     0.040 A 
ATOM     29  C   UNL     1     -17.953 -42.373  25.275  1.00  0.00     0.040 A 
ATOM     30  C   UNL     1     -18.577 -42.115  26.491  1.00  0.00     0.123 A 
ATOM     31  F   UNL     1     -19.850 -41.703  26.503  1.00  0.00    -0.207 F 
ENDBRANCH  22  25
ENDBRANCH  20  21
ENDBRANCH   1  20
TORSDOF 7
ENDMDL
MODEL 2
REMARK VINA RESULT:   -11.642      1.261      3.717
REMARK INTER + INTRA:         -17.208
REMARK INTER:                 -16.562
REMARK INTRA:                  -0.646
REMARK UNBOUND:                -0.802
REMARK SMILES O=C(NCCCCNc1c2c(nc3ccccc13)CCCC2)c1ccc(F)cc1
REMARK SMILES IDX 5 1 6 2 7 3 8 4 9 6 10 7 18 8 11 9 22 10 17 11 13 12 12 13
REMARK SMILES IDX 19 14 21 15 16 16 14 17 20 18 15 19 4 20 3 21 2 22 1 24
REMARK SMILES IDX 23 25 24 26 29 27 25 28 28 29 26 30 27 31
REMARK H PARENT 8 5 3 23
ROOT
ATOM      1  C   UNL     1     -12.888 -45.750  27.378  1.00  0.00     0.023 C 
ENDROOT
BRANCH   1   2
ATOM      2  C   UNL     1     -12.777 -46.339  28.788  1.00  0.00     0.023 C 
BRANCH   2   3
ATOM      3  C   UNL     1     -11.373 -46.191  29.382  1.00  0.00     0.113 C 
BRANCH   3   4
ATOM      4  N   UNL     1     -11.427 -46.334  30.844  1.00  0.00    -0.384 N 
ATOM      5  H   UNL     1     -12.375 -46.547  31.144  1.00  0.00     0.160 HD
BRANCH   4   6
ATOM      6  C   UNL     1     -10.971 -45.148  31.501  1.00  0.00     0.049 A 
ATOM      7  C   UNL     1      -9.593 -44.912  31.693  1.00  0.00    -0.003 A 
ATOM      8  C   UNL     1     -11.923 -44.252  32.059  1.00  0.00     0.024 A 
ATOM      9  C   UNL     1      -9.232 -43.801  32.462  1.00  0.00     0.046 A 
ATOM     10  C   UNL     1      -8.536 -45.849  31.155  1.00  0.00     0.039 C 
ATOM     11  C   UNL     1     -13.323 -44.392  31.891  1.00  0.00     0.012 A 
ATOM     12  C   UNL     1     -11.438 -43.159  32.799  1.00  0.00     0.073 A 
ATOM     13  N   UNL     1     -10.131 -42.941  32.997  1.00  0.00    -0.252 NA
ATOM     14  C   UNL     1      -7.790 -43.447  32.721  1.00  0.00     0.056 C 
ATOM     15  C   UNL     1      -7.116 -45.287  31.190  1.00  0.00     0.005 C 
ATOM     16  C   UNL     1     -14.217 -43.484  32.455  1.00  0.00     0.001 A 
ATOM     17  C   UNL     1     -12.347 -42.266  33.354  1.00  0.00     0.029 A 
ATOM     18  C   UNL     1      -6.839 -44.620  32.527  1.00  0.00     0.007 C 
ATOM     19  C   UNL     1     -13.726 -42.416  33.193  1.00  0.00     0.002 A 
ENDBRANCH   4   6
ENDBRANCH   3   4
ENDBRANCH   2   3
ENDBRANCH   1   2
BRANCH   1  20
ATOM     20  C   UNL     1     -13.190 -44.250  27.393  1.00  0.00     0.116 C 
BRANCH  20  21
ATOM     21  N   UNL     1     -14.133 -43.852  26.368  1.00  0.00    -0.352 N 
ATOM     22  C   UNL     1     -15.341 -43.268  26.689  1.00  0.00     0.251 C 
ATOM     23  H   UNL     1     -13.804 -43.822  25.413  1.00  0.00     0.163 HD
ATOM     24  O   UNL     1     -15.708 -43.061  27.840  1.00  0.00    -0.269 OA
BRANCH  22  25
ATOM     25  C   UNL     1     -16.196 -42.843  25.546  1.00  0.00     0.040 A 
ATOM     26  C   UNL     1     -17.539 -42.526  25.802  1.00  0.00     0.017 A 
ATOM     27  C   UNL     1     -15.705 -42.779  24.234  1.00  0.00     0.017 A 
ATOM     28  C   UNL     1     -18.376 -42.124  24.761  1.00  0.00     0.040 A 
ATOM     29  C   UNL     1     -16.547 -42.376  23.194  1.00  0.00     0.040 A 
ATOM     30  C   UNL     1     -17.872 -42.049  23.467  1.00  0.00     0.123 A 
ATOM     31  F   UNL     1     -18.675 -41.666  22.467  1.00  0.00    -0.207 F 
ENDBRANCH  22  25
ENDBRANCH  20  21
ENDBRANCH   1  20
TORSDOF 7
ENDMDL
MODEL 3
REMARK VINA RESULT:   -10.777      1.355      2.055
REMARK INTER + INTRA:         -15.989
REMARK INTER:                 -15.566
REMARK INTRA:                  -0.423
REMARK UNBOUND:                -0.802
REMARK SMILES O=C(NCCCCNc1c2c(nc3ccccc13)CCCC2)c1ccc(F)cc1
REMARK SMILES IDX 5 1 6 2 7 3 8 4 9 6 10 7 18 8 11 9 22 10 17 11 13 12 12 13
REMARK SMILES IDX 19 14 21 15 16 16 14 17 20 18 15 19 4 20 3 21 2 22 1 24
REMARK SMILES IDX 23 25 24 26 29 27 25 28 28 29 26 30 27 31
REMARK H PARENT 8 5 3 23
ROOT
ATOM      1  C   UNL     1     -13.777 -45.043  26.644  1.00  0.00     0.023 C 
ENDROOT
BRANCH   1   2
ATOM      2  C   UNL     1     -12.837 -45.382  27.805  1.00  0.00     0.023 C 
BRANCH   2   3
ATOM      3  C   UNL     1     -13.503 -45.217  29.174  1.00  0.00     0.113 C 
BRANCH   3   4
ATOM      4  N   UNL     1     -12.835 -46.073  30.166  1.00  0.00    -0.384 N 
ATOM      5  H   UNL     1     -13.519 -46.638  30.663  1.00  0.00     0.160 HD
BRANCH   4   6
ATOM      6  C   UNL     1     -12.082 -45.296  31.101  1.00  0.00     0.049 A 
ATOM      7  C   UNL     1     -12.707 -44.305  31.887  1.00  0.00    -0.003 A 
ATOM      8  C   UNL     1     -10.670 -45.456  31.160  1.00  0.00     0.024 A 
ATOM      9  C   UNL     1     -11.882 -43.496  32.677  1.00  0.00     0.046 A 
ATOM     10  C   UNL     1     -14.198 -44.065  31.838  1.00  0.00     0.039 C 
ATOM     11  C   UNL     1      -9.962 -46.443  30.432  1.00  0.00     0.012 A 
ATOM     12  C   UNL     1      -9.949 -44.593  32.006  1.00  0.00     0.073 A 
ATOM     13  N   UNL     1     -10.537 -43.641  32.740  1.00  0.00    -0.252 NA
ATOM     14  C   UNL     1     -12.443 -42.415  33.564  1.00  0.00     0.056 C 
ATOM     15  C   UNL     1     -14.732 -43.177  32.962  1.00  0.00     0.005 C 
ATOM     16  C   UNL     1      -8.577 -46.562  30.526  1.00  0.00     0.001 A 
ATOM     17  C   UNL     1      -8.568 -44.729  32.084  1.00  0.00     0.029 A 
ATOM     18  C   UNL     1     -13.839 -41.963  33.153  1.00  0.00     0.007 C 
ATOM     19  C   UNL     1      -7.876 -45.698  31.355  1.00  0.00     0.002 A 
ENDBRANCH   4   6
ENDBRANCH   3   4
ENDBRANCH   2   3
ENDBRANCH   1   2
BRANCH   1  20
ATOM     20  C   UNL     1     -13.969 -43.535  26.469  1.00  0.00     0.116 C 
BRANCH  20  21
ATOM     21  N   UNL     1     -15.324 -43.175  26.103  1.00  0.00    -0.352 N 
ATOM     22  C   UNL     1     -16.260 -42.832  27.058  1.00  0.00     0.251 C 
ATOM     23  H   UNL     1     -15.513 -42.983  25.129  1.00  0.00     0.163 HD
ATOM     24  O   UNL     1     -16.027 -42.822  28.261  1.00  0.00    -0.269 OA
BRANCH  22  25
ATOM     25  C   UNL     1     -17.599 -42.419  26.554  1.00  0.00     0.040 A 
ATOM     26  C   UNL     1     -17.806 -42.387  25.167  1.00  0.00     0.017 A 
ATOM     27  C   UNL     1     -18.635 -42.040  27.420  1.00  0.00     0.017 A 
ATOM     28  C   UNL     1     -19.045 -42.005  24.650  1.00  0.00     0.040 A 
ATOM     29  C   UNL     1     -19.874 -41.657  26.899  1.00  0.00     0.040 A 
ATOM     30  C   UNL     1     -20.068 -41.647  25.521  1.00  0.00     0.123 A 
ATOM     31  F   UNL     1     -21.256 -41.279  25.027  1.00  0.00    -0.207 F 
ENDBRANCH  22  25
ENDBRANCH  20  21
ENDBRANCH   1  20
TORSDOF 7
ENDMDL
MODEL 4
REMARK VINA RESULT:   -10.591      4.133     10.906
REMARK INTER + INTRA:         -15.727
REMARK INTER:                 -15.092
REMARK INTRA:                  -0.635
REMARK UNBOUND:                -0.802
REMARK SMILES O=C(NCCCCNc1c2c(nc3ccccc13)CCCC2)c1ccc(F)cc1
REMARK SMILES IDX 5 1 6 2 7 3 8 4 9 6 10 7 18 8 11 9 22 10 17 11 13 12 12 13
REMARK SMILES IDX 19 14 21 15 16 16 14 17 20 18 15 19 4 20 3 21 2 22 1 24
REMARK SMILES IDX 23 25 24 26 29 27 25 28 28 29 26 30 27 31
REMARK H PARENT 8 5 3 23
ROOT
ATOM      1  C   UNL     1     -14.811 -42.363  24.709  1.00  0.00     0.023 C 
ENDROOT
BRANCH   1   2
ATOM      2  C   UNL     1     -15.774 -42.993  23.697  1.00  0.00     0.023 C 
BRANCH   2   3
ATOM      3  C   UNL     1     -16.586 -41.949  22.924  1.00  0.00     0.113 C 
BRANCH   3   4
ATOM      4  N   UNL     1     -17.917 -42.484  22.602  1.00  0.00    -0.384 N 
ATOM      5  H   UNL     1     -18.021 -42.591  21.596  1.00  0.00     0.160 HD
BRANCH   4   6
ATOM      6  C   UNL     1     -18.954 -41.637  23.104  1.00  0.00     0.049 A 
ATOM      7  C   UNL     1     -19.430 -41.781  24.424  1.00  0.00    -0.003 A 
ATOM      8  C   UNL     1     -19.583 -40.712  22.226  1.00  0.00     0.024 A 
ATOM      9  C   UNL     1     -20.537 -41.011  24.797  1.00  0.00     0.046 A 
ATOM     10  C   UNL     1     -18.827 -42.775  25.390  1.00  0.00     0.039 C 
ATOM     11  C   UNL     1     -19.153 -40.477  20.897  1.00  0.00     0.012 A 
ATOM     12  C   UNL     1     -20.677 -39.980  22.721  1.00  0.00     0.073 A 
ATOM     13  N   UNL     1     -21.142 -40.126  23.969  1.00  0.00    -0.252 NA
ATOM     14  C   UNL     1     -21.121 -41.076  26.185  1.00  0.00     0.056 C 
ATOM     15  C   UNL     1     -19.256 -42.584  26.844  1.00  0.00     0.005 C 
ATOM     16  C   UNL     1     -19.801 -39.556  20.075  1.00  0.00     0.001 A 
ATOM     17  C   UNL     1     -21.309 -39.067  21.885  1.00  0.00     0.029 A 
ATOM     18  C   UNL     1     -20.755 -42.353  26.932  1.00  0.00     0.007 C 
ATOM     19  C   UNL     1     -20.886 -38.848  20.572  1.00  0.00     0.002 A 
ENDBRANCH   4   6
ENDBRANCH   3   4
ENDBRANCH   2   3
ENDBRANCH   1   2
BRANCH   1  20
ATOM     20  C   UNL     1     -15.210 -42.660  26.156  1.00  0.00     0.116 C 
BRANCH  20  21
ATOM     21  N   UNL     1     -14.111 -43.166  26.954  1.00  0.00    -0.352 N 
ATOM     22  C   UNL     1     -13.648 -44.457  26.805  1.00  0.00     0.251 C 
ATOM     23  H   UNL     1     -13.559 -42.496  27.472  1.00  0.00     0.163 HD
ATOM     24  O   UNL     1     -14.130 -45.263  26.018  1.00  0.00    -0.269 OA
BRANCH  22  25
ATOM     25  C   UNL     1     -12.471 -44.839  27.634  1.00  0.00     0.040 A 
ATOM     26  C   UNL     1     -11.714 -43.815  28.223  1.00  0.00     0.017 A 
ATOM     27  C   UNL     1     -12.091 -46.177  27.816  1.00  0.00     0.017 A 
ATOM     28  C   UNL     1     -10.602 -44.127  29.008  1.00  0.00     0.040 A 
ATOM     29  C   UNL     1     -10.977 -46.485  28.601  1.00  0.00     0.040 A 
ATOM     30  C   UNL     1     -10.247 -45.459  29.192  1.00  0.00     0.123 A 
ATOM     31  F   UNL     1      -9.179 -45.758  29.943  1.00  0.00    -0.207 F 
ENDBRANCH  22  25
ENDBRANCH  20  21
ENDBRANCH   1  20
TORSDOF 7
ENDMDL
MODEL 5
REMARK VINA RESULT:   -10.371      4.241     10.963
REMARK INTER + INTRA:         -15.418
REMARK INTER:                 -14.846
REMARK INTRA:                  -0.572
REMARK UNBOUND:                -0.802
REMARK SMILES O=C(NCCCCNc1c2c(nc3ccccc13)CCCC2)c1ccc(F)cc1
REMARK SMILES IDX 5 1 6 2 7 3 8 4 9 6 10 7 18 8 11 9 22 10 17 11 13 12 12 13
REMARK SMILES IDX 19 14 21 15 16 16 14 17 20 18 15 19 4 20 3 21 2 22 1 24
REMARK SMILES IDX 23 25 24 26 29 27 25 28 28 29 26 30 27 31
REMARK H PARENT 8 5 3 23
ROOT
ATOM      1  C   UNL     1     -15.156 -42.446  24.773  1.00  0.00     0.023 C 
ENDROOT
BRANCH   1   2
ATOM      2  C   UNL     1     -15.895 -42.984  23.543  1.00  0.00     0.023 C 
BRANCH   2   3
ATOM      3  C   UNL     1     -16.763 -41.923  22.861  1.00  0.00     0.113 C 
BRANCH   3   4
ATOM      4  N   UNL     1     -18.039 -42.513  22.435  1.00  0.00    -0.384 N 
ATOM      5  H   UNL     1     -18.080 -42.574  21.421  1.00  0.00     0.160 HD
BRANCH   4   6
ATOM      6  C   UNL     1     -19.151 -41.752  22.915  1.00  0.00     0.049 A 
ATOM      7  C   UNL     1     -19.811 -40.828  22.078  1.00  0.00    -0.003 A 
ATOM      8  C   UNL     1     -19.525 -41.855  24.283  1.00  0.00     0.024 A 
ATOM      9  C   UNL     1     -20.798 -40.025  22.659  1.00  0.00     0.046 A 
ATOM     10  C   UNL     1     -19.432 -40.649  20.626  1.00  0.00     0.039 C 
ATOM     11  C   UNL     1     -18.941 -42.775  25.188  1.00  0.00     0.012 A 
ATOM     12  C   UNL     1     -20.546 -41.005  24.748  1.00  0.00     0.073 A 
ATOM     13  N   UNL     1     -21.162 -40.116  23.960  1.00  0.00    -0.252 NA
ATOM     14  C   UNL     1     -21.575 -39.013  21.855  1.00  0.00     0.056 C 
ATOM     15  C   UNL     1     -20.436 -39.841  19.806  1.00  0.00     0.005 C 
ATOM     16  C   UNL     1     -19.344 -42.840  26.521  1.00  0.00     0.001 A 
ATOM     17  C   UNL     1     -20.932 -41.086  26.081  1.00  0.00     0.029 A 
ATOM     18  C   UNL     1     -20.873 -38.601  20.568  1.00  0.00     0.007 C 
ATOM     19  C   UNL     1     -20.344 -41.989  26.970  1.00  0.00     0.002 A 
ENDBRANCH   4   6
ENDBRANCH   3   4
ENDBRANCH   2   3
ENDBRANCH   1   2
BRANCH   1  20
ATOM     20  C   UNL     1     -15.403 -43.295  26.022  1.00  0.00     0.116 C 
BRANCH  20  21
ATOM     21  N   UNL     1     -14.204 -43.945  26.510  1.00  0.00    -0.352 N 
ATOM     22  C   UNL     1     -14.064 -44.293  27.838  1.00  0.00     0.251 C 
ATOM     23  H   UNL     1     -13.561 -44.320  25.827  1.00  0.00     0.163 HD
ATOM     24  O   UNL     1     -14.917 -44.070  28.690  1.00  0.00    -0.269 OA
BRANCH  22  25
ATOM     25  C   UNL     1     -12.815 -45.014  28.206  1.00  0.00     0.040 A 
ATOM     26  C   UNL     1     -12.055 -44.523  29.278  1.00  0.00     0.017 A 
ATOM     27  C   UNL     1     -12.371 -46.142  27.499  1.00  0.00     0.017 A 
ATOM     28  C   UNL     1     -10.876 -45.167  29.657  1.00  0.00     0.040 A 
ATOM     29  C   UNL     1     -11.189 -46.783  27.881  1.00  0.00     0.040 A 
ATOM     30  C   UNL     1     -10.456 -46.293  28.957  1.00  0.00     0.123 A 
ATOM     31  F   UNL     1      -9.325 -46.910  29.318  1.00  0.00    -0.207 F 
ENDBRANCH  22  25
ENDBRANCH  20  21
ENDBRANCH   1  20
TORSDOF 7
ENDMDL
MODEL 6
REMARK VINA RESULT:   -10.157      4.194     10.963
REMARK INTER + INTRA:         -15.116
REMARK INTER:                 -14.724
REMARK INTRA:                  -0.393
REMARK UNBOUND:                -0.802
REMARK SMILES O=C(NCCCCNc1c2c(nc3ccccc13)CCCC2)c1ccc(F)cc1
REMARK SMILES IDX 5 1 6 2 7 3 8 4 9 6 10 7 18 8 11 9 22 10 17 11 13 12 12 13
REMARK SMILES IDX 19 14 21 15 16 16 14 17 20 18 15 19 4 20 3 21 2 22 1 24
REMARK SMILES IDX 23 25 24 26 29 27 25 28 28 29 26 30 27 31
REMARK H PARENT 8 5 3 23
ROOT
ATOM      1  C   UNL     1     -17.408 -42.382  28.409  1.00  0.00     0.023 C 
ENDROOT
BRANCH   1   2
ATOM      2  C   UNL     1     -18.814 -42.798  27.964  1.00  0.00     0.023 C 
BRANCH   2   3
ATOM      3  C   UNL     1     -19.452 -41.794  26.999  1.00  0.00     0.113 C 
BRANCH   3   4
ATOM      4  N   UNL     1     -20.103 -42.506  25.890  1.00  0.00    -0.384 N 
ATOM      5  H   UNL     1     -19.738 -43.452  25.814  1.00  0.00     0.160 HD
BRANCH   4   6
ATOM      6  C   UNL     1     -19.917 -41.818  24.650  1.00  0.00     0.049 A 
ATOM      7  C   UNL     1     -18.688 -41.887  23.961  1.00  0.00    -0.003 A 
ATOM      8  C   UNL     1     -20.951 -40.971  24.163  1.00  0.00     0.024 A 
ATOM      9  C   UNL     1     -18.539 -41.079  22.829  1.00  0.00     0.046 A 
ATOM     10  C   UNL     1     -17.541 -42.740  24.451  1.00  0.00     0.039 C 
ATOM     11  C   UNL     1     -22.226 -40.862  24.771  1.00  0.00     0.012 A 
ATOM     12  C   UNL     1     -20.689 -40.219  23.004  1.00  0.00     0.073 A 
ATOM     13  N   UNL     1     -19.517 -40.270  22.357  1.00  0.00    -0.252 NA
ATOM     14  C   UNL     1     -17.273 -41.082  22.010  1.00  0.00     0.056 C 
ATOM     15  C   UNL     1     -16.416 -42.931  23.435  1.00  0.00     0.005 C 
ATOM     16  C   UNL     1     -23.208 -40.019  24.253  1.00  0.00     0.001 A 
ATOM     17  C   UNL     1     -21.682 -39.384  22.505  1.00  0.00     0.029 A 
ATOM     18  C   UNL     1     -16.065 -41.609  22.773  1.00  0.00     0.007 C 
ATOM     19  C   UNL     1     -22.933 -39.275  23.115  1.00  0.00     0.002 A 
ENDBRANCH   4   6
ENDBRANCH   3   4
ENDBRANCH   2   3
ENDBRANCH   1   2
BRANCH   1  20
ATOM     20  C   UNL     1     -16.373 -42.538  27.293  1.00  0.00     0.116 C 
BRANCH  20  21
ATOM     21  N   UNL     1     -15.275 -43.411  27.657  1.00  0.00    -0.352 N 
ATOM     22  C   UNL     1     -14.167 -43.550  26.848  1.00  0.00     0.251 C 
ATOM     23  H   UNL     1     -15.245 -43.756  28.607  1.00  0.00     0.163 HD
ATOM     24  O   UNL     1     -14.035 -42.972  25.775  1.00  0.00    -0.269 OA
BRANCH  22  25
ATOM     25  C   UNL     1     -13.077 -44.425  27.362  1.00  0.00     0.040 A 
ATOM     26  C   UNL     1     -11.999 -43.822  28.028  1.00  0.00     0.017 A 
ATOM     27  C   UNL     1     -13.088 -45.815  27.174  1.00  0.00     0.017 A 
ATOM     28  C   UNL     1     -10.955 -44.603  28.526  1.00  0.00     0.040 A 
ATOM     29  C   UNL     1     -12.040 -46.594  27.673  1.00  0.00     0.040 A 
ATOM     30  C   UNL     1     -10.987 -45.982  28.346  1.00  0.00     0.123 A 
ATOM     31  F   UNL     1      -9.985 -46.732  28.821  1.00  0.00    -0.207 F 
ENDBRANCH  22  25
ENDBRANCH  20  21
ENDBRANCH   1  20
TORSDOF 7
ENDMDL
MODEL 7
REMARK VINA RESULT:   -10.048      4.231     10.685
REMARK INTER + INTRA:         -14.962
REMARK INTER:                 -14.370
REMARK INTRA:                  -0.592
REMARK UNBOUND:                -0.802
REMARK SMILES O=C(NCCCCNc1c2c(nc3ccccc13)CCCC2)c1ccc(F)cc1
REMARK SMILES IDX 5 1 6 2 7 3 8 4 9 6 10 7 18 8 11 9 22 10 17 11 13 12 12 13
REMARK SMILES IDX 19 14 21 15 16 16 14 17 20 18 15 19 4 20 3 21 2 22 1 24
REMARK SMILES IDX 23 25 24 26 29 27 25 28 28 29 26 30 27 31
REMARK H PARENT 8 5 3 23
ROOT
ATOM      1  C   UNL     1     -17.480 -42.381  28.185  1.00  0.00     0.023 C 
ENDROOT
BRANCH   1   2
ATOM      2  C   UNL     1     -18.890 -42.787  27.740  1.00  0.00     0.023 C 
BRANCH   2   3
ATOM      3  C   UNL     1     -19.540 -41.753  26.816  1.00  0.00     0.113 C 
BRANCH   3   4
ATOM      4  N   UNL     1     -20.011 -42.404  25.585  1.00  0.00    -0.384 N 
ATOM      5  H   UNL     1     -19.455 -43.232  25.388  1.00  0.00     0.160 HD
BRANCH   4   6
ATOM      6  C   UNL     1     -19.956 -41.511  24.470  1.00  0.00     0.049 A 
ATOM      7  C   UNL     1     -21.093 -40.773  24.077  1.00  0.00    -0.003 A 
ATOM      8  C   UNL     1     -18.772 -41.450  23.686  1.00  0.00     0.024 A 
ATOM      9  C   UNL     1     -21.000 -40.028  22.897  1.00  0.00     0.046 A 
ATOM     10  C   UNL     1     -22.391 -40.829  24.849  1.00  0.00     0.039 C 
ATOM     11  C   UNL     1     -17.575 -42.130  24.019  1.00  0.00     0.012 A 
ATOM     12  C   UNL     1     -18.793 -40.650  22.528  1.00  0.00     0.073 A 
ATOM     13  N   UNL     1     -19.876 -39.962  22.144  1.00  0.00    -0.252 NA
ATOM     14  C   UNL     1     -22.148 -39.193  22.390  1.00  0.00     0.056 C 
ATOM     15  C   UNL     1     -23.402 -39.749  24.465  1.00  0.00     0.005 C 
ATOM     16  C   UNL     1     -16.437 -42.035  23.220  1.00  0.00     0.001 A 
ATOM     17  C   UNL     1     -17.648 -40.571  21.745  1.00  0.00     0.029 A 
ATOM     18  C   UNL     1     -23.497 -39.621  22.954  1.00  0.00     0.007 C 
ATOM     19  C   UNL     1     -16.475 -41.253  22.075  1.00  0.00     0.002 A 
ENDBRANCH   4   6
ENDBRANCH   3   4
ENDBRANCH   2   3
ENDBRANCH   1   2
BRANCH   1  20
ATOM     20  C   UNL     1     -16.437 -42.598  27.087  1.00  0.00     0.116 C 
BRANCH  20  21
ATOM     21  N   UNL     1     -15.263 -43.308  27.554  1.00  0.00    -0.352 N 
ATOM     22  C   UNL     1     -14.385 -43.904  26.673  1.00  0.00     0.251 C 
ATOM     23  H   UNL     1     -14.992 -43.184  28.520  1.00  0.00     0.163 HD
ATOM     24  O   UNL     1     -14.535 -43.894  25.457  1.00  0.00    -0.269 OA
BRANCH  22  25
ATOM     25  C   UNL     1     -13.182 -44.547  27.270  1.00  0.00     0.040 A 
ATOM     26  C   UNL     1     -13.062 -45.943  27.184  1.00  0.00     0.017 A 
ATOM     27  C   UNL     1     -12.193 -43.804  27.932  1.00  0.00     0.017 A 
ATOM     28  C   UNL     1     -11.952 -46.588  27.731  1.00  0.00     0.040 A 
ATOM     29  C   UNL     1     -11.083 -44.454  28.479  1.00  0.00     0.040 A 
ATOM     30  C   UNL     1     -10.971 -45.837  28.370  1.00  0.00     0.123 A 
ATOM     31  F   UNL     1      -9.906 -46.455  28.896  1.00  0.00    -0.207 F 
ENDBRANCH  22  25
ENDBRANCH  20  21
ENDBRANCH   1  20
TORSDOF 7
ENDMDL
MODEL 8
REMARK VINA RESULT:    -9.845      2.099      3.797
REMARK INTER + INTRA:         -14.676
REMARK INTER:                 -14.116
REMARK INTRA:                  -0.560
REMARK UNBOUND:                -0.802
REMARK SMILES O=C(NCCCCNc1c2c(nc3ccccc13)CCCC2)c1ccc(F)cc1
REMARK SMILES IDX 5 1 6 2 7 3 8 4 9 6 10 7 18 8 11 9 22 10 17 11 13 12 12 13
REMARK SMILES IDX 19 14 21 15 16 16 14 17 20 18 15 19 4 20 3 21 2 22 1 24
REMARK SMILES IDX 23 25 24 26 29 27 25 28 28 29 26 30 27 31
REMARK H PARENT 8 5 3 23
ROOT
ATOM      1  C   UNL     1     -13.409 -45.937  31.328  1.00  0.00     0.023 C 
ENDROOT
BRANCH   1   2
ATOM      2  C   UNL     1     -12.563 -44.835  31.974  1.00  0.00     0.023 C 
BRANCH   2   3
ATOM      3  C   UNL     1     -13.356 -43.548  32.221  1.00  0.00     0.113 C 
BRANCH   3   4
ATOM      4  N   UNL     1     -12.569 -42.382  31.796  1.00  0.00    -0.384 N 
ATOM      5  H   UNL     1     -12.888 -42.051  30.889  1.00  0.00     0.160 HD
BRANCH   4   6
ATOM      6  C   UNL     1     -11.174 -42.691  31.730  1.00  0.00     0.049 A 
ATOM      7  C   UNL     1     -10.363 -42.626  32.883  1.00  0.00    -0.003 A 
ATOM      8  C   UNL     1     -10.580 -42.962  30.467  1.00  0.00     0.024 A 
ATOM      9  C   UNL     1      -8.987 -42.807  32.713  1.00  0.00     0.046 A 
ATOM     10  C   UNL     1     -10.932 -42.304  34.246  1.00  0.00     0.039 C 
ATOM     11  C   UNL     1     -11.318 -43.077  29.263  1.00  0.00     0.012 A 
ATOM     12  C   UNL     1      -9.186 -43.145  30.424  1.00  0.00     0.073 A 
ATOM     13  N   UNL     1      -8.412 -43.067  31.515  1.00  0.00    -0.252 NA
ATOM     14  C   UNL     1      -8.030 -42.771  33.877  1.00  0.00     0.056 C 
ATOM     15  C   UNL     1      -9.978 -42.574  35.409  1.00  0.00     0.005 C 
ATOM     16  C   UNL     1     -10.691 -43.348  28.049  1.00  0.00     0.001 A 
ATOM     17  C   UNL     1      -8.581 -43.414  29.203  1.00  0.00     0.029 A 
ATOM     18  C   UNL     1      -8.589 -42.045  35.093  1.00  0.00     0.007 C 
ATOM     19  C   UNL     1      -9.314 -43.516  28.018  1.00  0.00     0.002 A 
ENDBRANCH   4   6
ENDBRANCH   3   4
ENDBRANCH   2   3
ENDBRANCH   1   2
BRANCH   1  20
ATOM     20  C   UNL     1     -13.013 -46.202  29.874  1.00  0.00     0.116 C 
BRANCH  20  21
ATOM     21  N   UNL     1     -13.696 -45.335  28.935  1.00  0.00    -0.352 N 
ATOM     22  C   UNL     1     -13.485 -45.439  27.575  1.00  0.00     0.251 C 
ATOM     23  H   UNL     1     -14.478 -44.794  29.278  1.00  0.00     0.163 HD
ATOM     24  O   UNL     1     -12.710 -46.242  27.070  1.00  0.00    -0.269 OA
BRANCH  22  25
ATOM     25  C   UNL     1     -14.294 -44.537  26.709  1.00  0.00     0.040 A 
ATOM     26  C   UNL     1     -14.203 -44.695  25.318  1.00  0.00     0.017 A 
ATOM     27  C   UNL     1     -15.112 -43.530  27.242  1.00  0.00     0.017 A 
ATOM     28  C   UNL     1     -14.943 -43.872  24.468  1.00  0.00     0.040 A 
ATOM     29  C   UNL     1     -15.851 -42.707  26.387  1.00  0.00     0.040 A 
ATOM     30  C   UNL     1     -15.763 -42.888  25.011  1.00  0.00     0.123 A 
ATOM     31  F   UNL     1     -16.471 -42.097  24.196  1.00  0.00    -0.207 F 
ENDBRANCH  22  25
ENDBRANCH  20  21
ENDBRANCH   1  20
TORSDOF 7
ENDMDL
MODEL 9
REMARK VINA RESULT:    -9.681      4.373     10.698
REMARK INTER + INTRA:         -14.444
REMARK INTER:                 -13.701
REMARK INTRA:                  -0.744
REMARK UNBOUND:                -0.802
REMARK SMILES O=C(NCCCCNc1c2c(nc3ccccc13)CCCC2)c1ccc(F)cc1
REMARK SMILES IDX 5 1 6 2 7 3 8 4 9 6 10 7 18 8 11 9 22 10 17 11 13 12 12 13
REMARK SMILES IDX 19 14 21 15 16 16 14 17 20 18 15 19 4 20 3 21 2 22 1 24
REMARK SMILES IDX 23 25 24 26 29 27 25 28 28 29 26 30 27 31
REMARK H PARENT 8 5 3 23
ROOT
ATOM      1  C   UNL     1     -15.165 -42.023  24.180  1.00  0.00     0.023 C 
ENDROOT
BRANCH   1   2
ATOM      2  C   UNL     1     -15.926 -41.623  22.910  1.00  0.00     0.023 C 
BRANCH   2   3
ATOM      3  C   UNL     1     -17.282 -42.323  22.788  1.00  0.00     0.113 C 
BRANCH   3   4
ATOM      4  N   UNL     1     -18.369 -41.356  23.004  1.00  0.00    -0.384 N 
ATOM      5  H   UNL     1     -18.058 -40.607  23.617  1.00  0.00     0.160 HD
BRANCH   4   6
ATOM      6  C   UNL     1     -19.524 -41.987  23.562  1.00  0.00     0.049 A 
ATOM      7  C   UNL     1     -20.662 -42.246  22.769  1.00  0.00    -0.003 A 
ATOM      8  C   UNL     1     -19.562 -42.259  24.958  1.00  0.00     0.024 A 
ATOM      9  C   UNL     1     -21.799 -42.739  23.417  1.00  0.00     0.046 A 
ATOM     10  C   UNL     1     -20.693 -41.942  21.289  1.00  0.00     0.039 C 
ATOM     11  C   UNL     1     -18.459 -42.061  25.825  1.00  0.00     0.012 A 
ATOM     12  C   UNL     1     -20.758 -42.771  25.493  1.00  0.00     0.073 A 
ATOM     13  N   UNL     1     -21.845 -43.002  24.745  1.00  0.00    -0.252 NA
ATOM     14  C   UNL     1     -23.066 -43.061  22.666  1.00  0.00     0.056 C 
ATOM     15  C   UNL     1     -21.875 -42.559  20.542  1.00  0.00     0.005 C 
ATOM     16  C   UNL     1     -18.545 -42.346  27.186  1.00  0.00     0.001 A 
ATOM     17  C   UNL     1     -20.822 -43.047  26.853  1.00  0.00     0.029 A 
ATOM     18  C   UNL     1     -23.163 -42.355  21.320  1.00  0.00     0.007 C 
ATOM     19  C   UNL     1     -19.734 -42.840  27.703  1.00  0.00     0.002 A 
ENDBRANCH   4   6
ENDBRANCH   3   4
ENDBRANCH   2   3
ENDBRANCH   1   2
BRANCH   1  20
ATOM     20  C   UNL     1     -15.413 -43.480  24.575  1.00  0.00     0.116 C 
BRANCH  20  21
ATOM     21  N   UNL     1     -14.304 -44.066  25.300  1.00  0.00    -0.352 N 
ATOM     22  C   UNL     1     -14.211 -43.968  26.674  1.00  0.00     0.251 C 
ATOM     23  H   UNL     1     -13.712 -44.719  24.806  1.00  0.00     0.163 HD
ATOM     24  O   UNL     1     -15.030 -43.378  27.368  1.00  0.00    -0.269 OA
BRANCH  22  25
ATOM     25  C   UNL     1     -13.060 -44.667  27.311  1.00  0.00     0.040 A 
ATOM     26  C   UNL     1     -12.096 -43.892  27.972  1.00  0.00     0.017 A 
ATOM     27  C   UNL     1     -12.906 -46.060  27.242  1.00  0.00     0.017 A 
ATOM     28  C   UNL     1     -11.000 -44.506  28.583  1.00  0.00     0.040 A 
ATOM     29  C   UNL     1     -11.807 -46.670  27.854  1.00  0.00     0.040 A 
ATOM     30  C   UNL     1     -10.868 -45.889  28.521  1.00  0.00     0.123 A 
ATOM     31  F   UNL     1      -9.817 -46.477  29.104  1.00  0.00    -0.207 F 
ENDBRANCH  22  25
ENDBRANCH  20  21
ENDBRANCH   1  20
TORSDOF 7
ENDMDL
