MODEL 1
REMARK VINA RESULT:    -9.823      0.000      0.000
REMARK INTER + INTRA:         -14.590
REMARK INTER:                 -13.555
REMARK INTRA:                  -1.035
REMARK UNBOUND:                -1.035
REMARK SMILES COc1cccc([C@@H]2C=C(c3cc(F)cc(F)c3)NN2c2ccc(S(N)(=O)=O)cc2)c1OC
REMARK SMILES IDX 21 1 22 2 23 3 24 4 29 5 30 6 20 7 19 8 10 9 9 10 8 11 11 13
REMARK SMILES IDX 12 14 18 15 13 16 16 17 15 18 14 19 17 20 7 21 6 22 31 23
REMARK SMILES IDX 5 24 3 25 4 26 32 27 33 28 2 29 1 30 25 31 27 32 28 33 26 34
REMARK H PARENT 19 12 26 35 26 36
ROOT
ATOM      1  C   UNL     1     -17.896 -42.246  25.028  1.00  0.00     0.058 A 
ATOM      2  C   UNL     1     -17.719 -42.287  26.421  1.00  0.00     0.029 A 
ATOM      3  C   UNL     1     -16.544 -42.783  26.997  1.00  0.00     0.024 A 
ATOM      4  C   UNL     1     -15.520 -43.252  26.175  1.00  0.00     0.082 A 
ATOM      5  C   UNL     1     -15.649 -43.204  24.791  1.00  0.00     0.024 A 
ATOM      6  C   UNL     1     -16.831 -42.705  24.231  1.00  0.00     0.029 A 
ENDROOT
BRANCH   1   7
ATOM      7  N   UNL     1     -19.062 -41.770  24.435  1.00  0.00    -0.276 N 
ATOM      8  N   UNL     1     -19.205 -41.437  23.096  1.00  0.00    -0.297 N 
ATOM      9  C   UNL     1     -20.489 -40.962  22.862  1.00  0.00     0.060 C 
ATOM     10  C   UNL     1     -21.220 -41.043  23.987  1.00  0.00     0.033 C 
ATOM     11  C   UNL     1     -20.368 -41.586  25.122  1.00  0.00     0.165 C 
ATOM     12  H   UNL     1     -18.489 -40.815  22.719  1.00  0.00     0.188 HD
BRANCH   9  13
ATOM     13  C   UNL     1     -20.900 -40.464  21.548  1.00  0.00     0.005 A 
ATOM     14  C   UNL     1     -21.662 -41.273  20.692  1.00  0.00     0.049 A 
ATOM     15  C   UNL     1     -20.539 -39.183  21.107  1.00  0.00     0.049 A 
ATOM     16  C   UNL     1     -22.049 -40.803  19.439  1.00  0.00     0.126 A 
ATOM     17  C   UNL     1     -20.937 -38.735  19.848  1.00  0.00     0.126 A 
ATOM     18  C   UNL     1     -21.693 -39.536  19.005  1.00  0.00     0.078 A 
ATOM     19  F   UNL     1     -22.780 -41.590  18.639  1.00  0.00    -0.207 F 
ATOM     20  F   UNL     1     -20.580 -37.509  19.447  1.00  0.00    -0.207 F 
ENDBRANCH   9  13
BRANCH  11  21
ATOM     21  C   UNL     1     -20.981 -42.815  25.774  1.00  0.00     0.026 A 
ATOM     22  C   UNL     1     -20.718 -44.065  25.176  1.00  0.00     0.010 A 
ATOM     23  C   UNL     1     -21.755 -42.803  26.951  1.00  0.00     0.166 A 
ATOM     24  C   UNL     1     -21.232 -45.245  25.709  1.00  0.00     0.004 A 
ATOM     25  C   UNL     1     -22.307 -43.993  27.479  1.00  0.00     0.161 A 
ATOM     26  C   UNL     1     -22.029 -45.209  26.852  1.00  0.00     0.050 A 
BRANCH  23  27
ATOM     27  O   UNL     1     -22.039 -41.602  27.552  1.00  0.00    -0.492 OA
ATOM     28  C   UNL     1     -23.282 -41.073  27.097  1.00  0.00     0.278 C 
ENDBRANCH  23  27
BRANCH  25  29
ATOM     29  O   UNL     1     -23.095 -43.860  28.592  1.00  0.00    -0.493 OA
ATOM     30  C   UNL     1     -23.852 -44.990  29.004  1.00  0.00     0.278 C 
ENDBRANCH  25  29
ENDBRANCH  11  21
ENDBRANCH   1   7
BRANCH   4  31
ATOM     31  S   UNL     1     -14.048 -43.909  26.906  1.00  0.00     0.238 S 
ATOM     32  O   UNL     1     -13.797 -45.216  26.345  1.00  0.00    -0.207 OA
ATOM     33  O   UNL     1     -13.046 -42.870  26.934  1.00  0.00    -0.207 OA
BRANCH  31  34
ATOM     34  N   UNL     1     -14.556 -44.182  28.489  1.00  0.00    -0.225 NA
ATOM     35  H   UNL     1     -15.563 -44.354  28.485  1.00  0.00     0.137 HD
ATOM     36  H   UNL     1     -14.308 -43.422  29.123  1.00  0.00     0.137 HD
ENDBRANCH  31  34
ENDBRANCH   4  31
TORSDOF 7
ENDMDL
MODEL 2
REMARK VINA RESULT:    -9.036      1.735      2.522
REMARK INTER + INTRA:         -13.504
REMARK INTER:                 -12.437
REMARK INTRA:                  -1.067
REMARK UNBOUND:                -1.035
REMARK SMILES COc1cccc([C@@H]2C=C(c3cc(F)cc(F)c3)NN2c2ccc(S(N)(=O)=O)cc2)c1OC
REMARK SMILES IDX 21 1 22 2 23 3 24 4 29 5 30 6 20 7 19 8 10 9 9 10 8 11 11 13
REMARK SMILES IDX 12 14 18 15 13 16 16 17 15 18 14 19 17 20 7 21 6 22 31 23
REMARK SMILES IDX 5 24 3 25 4 26 32 27 33 28 2 29 1 30 25 31 27 32 28 33 26 34
REMARK H PARENT 19 12 26 35 26 36
ROOT
ATOM      1  C   UNL     1     -18.083 -42.155  25.392  1.00  0.00     0.058 A 
ATOM      2  C   UNL     1     -17.117 -42.638  24.495  1.00  0.00     0.029 A 
ATOM      3  C   UNL     1     -15.903 -43.174  24.942  1.00  0.00     0.024 A 
ATOM      4  C   UNL     1     -15.640 -43.232  26.309  1.00  0.00     0.082 A 
ATOM      5  C   UNL     1     -16.585 -42.787  27.229  1.00  0.00     0.024 A 
ATOM      6  C   UNL     1     -17.792 -42.254  26.766  1.00  0.00     0.029 A 
ENDROOT
BRANCH   1   7
ATOM      7  N   UNL     1     -19.290 -41.604  24.969  1.00  0.00    -0.276 N 
ATOM      8  N   UNL     1     -19.504 -40.977  23.750  1.00  0.00    -0.297 N 
ATOM      9  C   UNL     1     -20.812 -40.515  23.680  1.00  0.00     0.060 C 
ATOM     10  C   UNL     1     -21.488 -40.884  24.781  1.00  0.00     0.033 C 
ATOM     11  C   UNL     1     -20.568 -41.638  25.727  1.00  0.00     0.165 C 
ATOM     12  H   UNL     1     -18.826 -40.255  23.502  1.00  0.00     0.188 HD
BRANCH   9  13
ATOM     13  C   UNL     1     -21.298 -39.744  22.533  1.00  0.00     0.005 A 
ATOM     14  C   UNL     1     -20.421 -39.385  21.499  1.00  0.00     0.049 A 
ATOM     15  C   UNL     1     -22.636 -39.337  22.442  1.00  0.00     0.049 A 
ATOM     16  C   UNL     1     -20.880 -38.647  20.411  1.00  0.00     0.126 A 
ATOM     17  C   UNL     1     -23.072 -38.598  21.344  1.00  0.00     0.126 A 
ATOM     18  C   UNL     1     -22.204 -38.246  20.322  1.00  0.00     0.078 A 
ATOM     19  F   UNL     1     -20.026 -38.318  19.433  1.00  0.00    -0.207 F 
ATOM     20  F   UNL     1     -24.355 -38.218  21.278  1.00  0.00    -0.207 F 
ENDBRANCH   9  13
BRANCH  11  21
ATOM     21  C   UNL     1     -21.112 -43.009  26.098  1.00  0.00     0.026 A 
ATOM     22  C   UNL     1     -21.475 -43.218  27.444  1.00  0.00     0.010 A 
ATOM     23  C   UNL     1     -21.318 -44.068  25.192  1.00  0.00     0.166 A 
ATOM     24  C   UNL     1     -21.989 -44.441  27.873  1.00  0.00     0.004 A 
ATOM     25  C   UNL     1     -21.808 -45.320  25.626  1.00  0.00     0.161 A 
ATOM     26  C   UNL     1     -22.149 -45.490  26.970  1.00  0.00     0.050 A 
BRANCH  23  27
ATOM     27  O   UNL     1     -20.964 -43.900  23.876  1.00  0.00    -0.492 OA
ATOM     28  C   UNL     1     -22.112 -43.767  23.040  1.00  0.00     0.278 C 
ENDBRANCH  23  27
BRANCH  25  29
ATOM     29  O   UNL     1     -21.912 -46.301  24.673  1.00  0.00    -0.493 OA
ATOM     30  C   UNL     1     -23.139 -47.012  24.590  1.00  0.00     0.278 C 
ENDBRANCH  25  29
ENDBRANCH  11  21
ENDBRANCH   1   7
BRANCH   4  31
ATOM     31  S   UNL     1     -14.092 -43.882  26.872  1.00  0.00     0.238 S 
ATOM     32  O   UNL     1     -13.844 -45.134  26.195  1.00  0.00    -0.207 OA
ATOM     33  O   UNL     1     -13.126 -42.810  26.901  1.00  0.00    -0.207 OA
BRANCH  31  34
ATOM     34  N   UNL     1     -14.463 -44.291  28.464  1.00  0.00    -0.225 NA
ATOM     35  H   UNL     1     -13.804 -43.818  29.085  1.00  0.00     0.137 HD
ATOM     36  H   UNL     1     -14.471 -45.299  28.623  1.00  0.00     0.137 HD
ENDBRANCH  31  34
ENDBRANCH   4  31
TORSDOF 7
ENDMDL
MODEL 3
REMARK VINA RESULT:    -8.910      5.451      8.620
REMARK INTER + INTRA:         -13.330
REMARK INTER:                 -11.915
REMARK INTRA:                  -1.415
REMARK UNBOUND:                -1.035
REMARK SMILES COc1cccc([C@@H]2C=C(c3cc(F)cc(F)c3)NN2c2ccc(S(N)(=O)=O)cc2)c1OC
REMARK SMILES IDX 21 1 22 2 23 3 24 4 29 5 30 6 20 7 19 8 10 9 9 10 8 11 11 13
REMARK SMILES IDX 12 14 18 15 13 16 16 17 15 18 14 19 17 20 7 21 6 22 31 23
REMARK SMILES IDX 5 24 3 25 4 26 32 27 33 28 2 29 1 30 25 31 27 32 28 33 26 34
REMARK H PARENT 19 12 26 35 26 36
ROOT
ATOM      1  C   UNL     1     -21.740 -43.455  21.917  1.00  0.00     0.058 A 
ATOM      2  C   UNL     1     -21.519 -43.500  20.531  1.00  0.00     0.029 A 
ATOM      3  C   UNL     1     -22.317 -44.281  19.686  1.00  0.00     0.024 A 
ATOM      4  C   UNL     1     -23.356 -45.036  20.226  1.00  0.00     0.082 A 
ATOM      5  C   UNL     1     -23.622 -44.996  21.592  1.00  0.00     0.024 A 
ATOM      6  C   UNL     1     -22.814 -44.211  22.422  1.00  0.00     0.029 A 
ENDROOT
BRANCH   1   7
ATOM      7  N   UNL     1     -20.949 -42.697  22.777  1.00  0.00    -0.276 N 
ATOM      8  N   UNL     1     -19.841 -43.161  23.469  1.00  0.00    -0.297 N 
ATOM      9  C   UNL     1     -19.320 -42.147  24.261  1.00  0.00     0.060 C 
ATOM     10  C   UNL     1     -20.002 -41.008  24.056  1.00  0.00     0.033 C 
ATOM     11  C   UNL     1     -21.127 -41.249  23.062  1.00  0.00     0.165 C 
ATOM     12  H   UNL     1     -19.980 -44.027  23.993  1.00  0.00     0.188 HD
BRANCH   9  13
ATOM     13  C   UNL     1     -18.187 -42.375  25.162  1.00  0.00     0.005 A 
ATOM     14  C   UNL     1     -18.351 -42.249  26.550  1.00  0.00     0.049 A 
ATOM     15  C   UNL     1     -16.918 -42.709  24.669  1.00  0.00     0.049 A 
ATOM     16  C   UNL     1     -17.274 -42.459  27.407  1.00  0.00     0.126 A 
ATOM     17  C   UNL     1     -15.855 -42.913  25.547  1.00  0.00     0.126 A 
ATOM     18  C   UNL     1     -16.021 -42.791  26.919  1.00  0.00     0.078 A 
ATOM     19  F   UNL     1     -17.454 -42.338  28.729  1.00  0.00    -0.207 F 
ATOM     20  F   UNL     1     -14.651 -43.230  25.055  1.00  0.00    -0.207 F 
ENDBRANCH   9  13
BRANCH  11  21
ATOM     21  C   UNL     1     -21.066 -40.302  21.874  1.00  0.00     0.026 A 
ATOM     22  C   UNL     1     -19.842 -40.212  21.180  1.00  0.00     0.010 A 
ATOM     23  C   UNL     1     -22.150 -39.543  21.390  1.00  0.00     0.166 A 
ATOM     24  C   UNL     1     -19.697 -39.375  20.074  1.00  0.00     0.004 A 
ATOM     25  C   UNL     1     -22.001 -38.668  20.291  1.00  0.00     0.161 A 
ATOM     26  C   UNL     1     -20.770 -38.602  19.635  1.00  0.00     0.050 A 
BRANCH  23  27
ATOM     27  O   UNL     1     -23.353 -39.600  22.050  1.00  0.00    -0.492 OA
ATOM     28  C   UNL     1     -24.202 -40.606  21.501  1.00  0.00     0.278 C 
ENDBRANCH  23  27
BRANCH  25  29
ATOM     29  O   UNL     1     -23.103 -37.930  19.942  1.00  0.00    -0.493 OA
ATOM     30  C   UNL     1     -23.043 -37.186  18.733  1.00  0.00     0.278 C 
ENDBRANCH  25  29
ENDBRANCH  11  21
ENDBRANCH   1   7
BRANCH   4  31
ATOM     31  S   UNL     1     -24.345 -46.047  19.160  1.00  0.00     0.238 S 
ATOM     32  O   UNL     1     -24.970 -47.080  19.953  1.00  0.00    -0.207 OA
ATOM     33  O   UNL     1     -25.093 -45.187  18.275  1.00  0.00    -0.207 OA
BRANCH  31  34
ATOM     34  N   UNL     1     -23.161 -46.826  18.250  1.00  0.00    -0.225 NA
ATOM     35  H   UNL     1     -22.319 -46.923  18.821  1.00  0.00     0.137 HD
ATOM     36  H   UNL     1     -22.962 -46.353  17.368  1.00  0.00     0.137 HD
ENDBRANCH  31  34
ENDBRANCH   4  31
TORSDOF 7
ENDMDL
MODEL 4
REMARK VINA RESULT:    -8.833      4.961      7.735
REMARK INTER + INTRA:         -13.224
REMARK INTER:                 -11.799
REMARK INTRA:                  -1.425
REMARK UNBOUND:                -1.035
REMARK SMILES COc1cccc([C@@H]2C=C(c3cc(F)cc(F)c3)NN2c2ccc(S(N)(=O)=O)cc2)c1OC
REMARK SMILES IDX 21 1 22 2 23 3 24 4 29 5 30 6 20 7 19 8 10 9 9 10 8 11 11 13
REMARK SMILES IDX 12 14 18 15 13 16 16 17 15 18 14 19 17 20 7 21 6 22 31 23
REMARK SMILES IDX 5 24 3 25 4 26 32 27 33 28 2 29 1 30 25 31 27 32 28 33 26 34
REMARK H PARENT 19 12 26 35 26 36
ROOT
ATOM      1  C   UNL     1     -20.545 -40.681  21.971  1.00  0.00     0.058 A 
ATOM      2  C   UNL     1     -21.185 -41.185  20.827  1.00  0.00     0.029 A 
ATOM      3  C   UNL     1     -21.837 -40.343  19.918  1.00  0.00     0.024 A 
ATOM      4  C   UNL     1     -21.858 -38.968  20.150  1.00  0.00     0.082 A 
ATOM      5  C   UNL     1     -21.212 -38.430  21.259  1.00  0.00     0.024 A 
ATOM      6  C   UNL     1     -20.566 -39.286  22.157  1.00  0.00     0.029 A 
ENDROOT
BRANCH   1   7
ATOM      7  N   UNL     1     -19.904 -41.503  22.894  1.00  0.00    -0.276 N 
ATOM      8  N   UNL     1     -18.531 -41.613  23.056  1.00  0.00    -0.297 N 
ATOM      9  C   UNL     1     -18.245 -42.551  24.038  1.00  0.00     0.060 C 
ATOM     10  C   UNL     1     -19.385 -43.007  24.583  1.00  0.00     0.033 C 
ATOM     11  C   UNL     1     -20.581 -42.364  23.900  1.00  0.00     0.165 C 
ATOM     12  H   UNL     1     -18.000 -41.777  22.199  1.00  0.00     0.188 HD
BRANCH   9  13
ATOM     13  C   UNL     1     -16.869 -42.929  24.368  1.00  0.00     0.005 A 
ATOM     14  C   UNL     1     -16.219 -42.347  25.466  1.00  0.00     0.049 A 
ATOM     15  C   UNL     1     -16.164 -43.865  23.597  1.00  0.00     0.049 A 
ATOM     16  C   UNL     1     -14.909 -42.701  25.778  1.00  0.00     0.126 A 
ATOM     17  C   UNL     1     -14.852 -44.202  23.927  1.00  0.00     0.126 A 
ATOM     18  C   UNL     1     -14.214 -43.626  25.016  1.00  0.00     0.078 A 
ATOM     19  F   UNL     1     -14.309 -42.135  26.833  1.00  0.00    -0.207 F 
ATOM     20  F   UNL     1     -14.197 -45.096  23.176  1.00  0.00    -0.207 F 
ENDBRANCH   9  13
BRANCH  11  21
ATOM     21  C   UNL     1     -21.511 -41.672  24.884  1.00  0.00     0.026 A 
ATOM     22  C   UNL     1     -20.955 -41.239  26.105  1.00  0.00     0.010 A 
ATOM     23  C   UNL     1     -22.872 -41.394  24.649  1.00  0.00     0.166 A 
ATOM     24  C   UNL     1     -21.731 -40.589  27.063  1.00  0.00     0.004 A 
ATOM     25  C   UNL     1     -23.672 -40.765  25.629  1.00  0.00     0.161 A 
ATOM     26  C   UNL     1     -23.085 -40.358  26.830  1.00  0.00     0.050 A 
BRANCH  23  27
ATOM     27  O   UNL     1     -23.447 -41.812  23.474  1.00  0.00    -0.492 OA
ATOM     28  C   UNL     1     -23.940 -43.145  23.582  1.00  0.00     0.278 C 
ENDBRANCH  23  27
BRANCH  25  29
ATOM     29  O   UNL     1     -24.998 -40.598  25.323  1.00  0.00    -0.493 OA
ATOM     30  C   UNL     1     -25.952 -41.266  26.136  1.00  0.00     0.278 C 
ENDBRANCH  25  29
ENDBRANCH  11  21
ENDBRANCH   1   7
BRANCH   4  31
ATOM     31  S   UNL     1     -22.709 -37.907  19.017  1.00  0.00     0.238 S 
ATOM     32  O   UNL     1     -22.166 -38.114  17.694  1.00  0.00    -0.207 OA
ATOM     33  O   UNL     1     -24.123 -37.976  19.296  1.00  0.00    -0.207 OA
BRANCH  31  34
ATOM     34  N   UNL     1     -22.157 -36.391  19.504  1.00  0.00    -0.225 NA
ATOM     35  H   UNL     1     -21.558 -36.009  18.770  1.00  0.00     0.137 HD
ATOM     36  H   UNL     1     -21.678 -36.413  20.404  1.00  0.00     0.137 HD
ENDBRANCH  31  34
ENDBRANCH   4  31
TORSDOF 7
ENDMDL
MODEL 5
REMARK VINA RESULT:    -8.568      4.885      8.150
REMARK INTER + INTRA:         -12.859
REMARK INTER:                 -11.885
REMARK INTRA:                  -0.974
REMARK UNBOUND:                -1.035
REMARK SMILES COc1cccc([C@@H]2C=C(c3cc(F)cc(F)c3)NN2c2ccc(S(N)(=O)=O)cc2)c1OC
REMARK SMILES IDX 21 1 22 2 23 3 24 4 29 5 30 6 20 7 19 8 10 9 9 10 8 11 11 13
REMARK SMILES IDX 12 14 18 15 13 16 16 17 15 18 14 19 17 20 7 21 6 22 31 23
REMARK SMILES IDX 5 24 3 25 4 26 32 27 33 28 2 29 1 30 25 31 27 32 28 33 26 34
REMARK H PARENT 19 12 26 35 26 36
ROOT
ATOM      1  C   UNL     1     -21.303 -40.762  25.070  1.00  0.00     0.058 A 
ATOM      2  C   UNL     1     -22.361 -40.202  24.337  1.00  0.00     0.029 A 
ATOM      3  C   UNL     1     -23.547 -39.790  24.957  1.00  0.00     0.024 A 
ATOM      4  C   UNL     1     -23.688 -39.938  26.336  1.00  0.00     0.082 A 
ATOM      5  C   UNL     1     -22.650 -40.464  27.099  1.00  0.00     0.024 A 
ATOM      6  C   UNL     1     -21.473 -40.871  26.463  1.00  0.00     0.029 A 
ENDROOT
BRANCH   1   7
ATOM      7  N   UNL     1     -20.121 -41.192  24.472  1.00  0.00    -0.276 N 
ATOM      8  N   UNL     1     -19.127 -41.931  25.094  1.00  0.00    -0.297 N 
ATOM      9  C   UNL     1     -18.077 -42.149  24.212  1.00  0.00     0.060 C 
ATOM     10  C   UNL     1     -18.380 -41.642  23.005  1.00  0.00     0.033 C 
ATOM     11  C   UNL     1     -19.746 -40.976  23.049  1.00  0.00     0.165 C 
ATOM     12  H   UNL     1     -18.806 -41.568  25.993  1.00  0.00     0.188 HD
BRANCH   9  13
ATOM     13  C   UNL     1     -16.853 -42.840  24.623  1.00  0.00     0.005 A 
ATOM     14  C   UNL     1     -16.440 -42.809  25.963  1.00  0.00     0.049 A 
ATOM     15  C   UNL     1     -16.061 -43.533  23.698  1.00  0.00     0.049 A 
ATOM     16  C   UNL     1     -15.272 -43.460  26.355  1.00  0.00     0.126 A 
ATOM     17  C   UNL     1     -14.896 -44.177  24.113  1.00  0.00     0.126 A 
ATOM     18  C   UNL     1     -14.491 -44.147  25.439  1.00  0.00     0.078 A 
ATOM     19  F   UNL     1     -14.899 -43.422  27.640  1.00  0.00    -0.207 F 
ATOM     20  F   UNL     1     -14.153 -44.832  23.212  1.00  0.00    -0.207 F 
ENDBRANCH   9  13
BRANCH  11  21
ATOM     21  C   UNL     1     -20.696 -41.524  21.996  1.00  0.00     0.026 A 
ATOM     22  C   UNL     1     -21.118 -42.862  22.139  1.00  0.00     0.010 A 
ATOM     23  C   UNL     1     -21.218 -40.785  20.917  1.00  0.00     0.166 A 
ATOM     24  C   UNL     1     -21.994 -43.446  21.225  1.00  0.00     0.004 A 
ATOM     25  C   UNL     1     -22.081 -41.380  19.969  1.00  0.00     0.161 A 
ATOM     26  C   UNL     1     -22.469 -42.710  20.141  1.00  0.00     0.050 A 
BRANCH  23  27
ATOM     27  O   UNL     1     -20.819 -39.482  20.743  1.00  0.00    -0.492 OA
ATOM     28  C   UNL     1     -19.723 -39.390  19.835  1.00  0.00     0.278 C 
ENDBRANCH  23  27
BRANCH  25  29
ATOM     29  O   UNL     1     -22.481 -40.588  18.923  1.00  0.00    -0.493 OA
ATOM     30  C   UNL     1     -23.847 -40.644  18.538  1.00  0.00     0.278 C 
ENDBRANCH  25  29
ENDBRANCH  11  21
ENDBRANCH   1   7
BRANCH   4  31
ATOM     31  S   UNL     1     -25.200 -39.445  27.114  1.00  0.00     0.238 S 
ATOM     32  O   UNL     1     -24.887 -38.558  28.210  1.00  0.00    -0.207 OA
ATOM     33  O   UNL     1     -26.156 -39.104  26.088  1.00  0.00    -0.207 OA
BRANCH  31  34
ATOM     34  N   UNL     1     -25.694 -40.890  27.825  1.00  0.00    -0.225 NA
ATOM     35  H   UNL     1     -26.175 -40.677  28.701  1.00  0.00     0.137 HD
ATOM     36  H   UNL     1     -24.924 -41.545  27.970  1.00  0.00     0.137 HD
ENDBRANCH  31  34
ENDBRANCH   4  31
TORSDOF 7
ENDMDL
MODEL 6
REMARK VINA RESULT:    -8.451      3.648      5.569
REMARK INTER + INTRA:         -12.698
REMARK INTER:                 -11.657
REMARK INTRA:                  -1.041
REMARK UNBOUND:                -1.035
REMARK SMILES COc1cccc([C@@H]2C=C(c3cc(F)cc(F)c3)NN2c2ccc(S(N)(=O)=O)cc2)c1OC
REMARK SMILES IDX 21 1 22 2 23 3 24 4 29 5 30 6 20 7 19 8 10 9 9 10 8 11 11 13
REMARK SMILES IDX 12 14 18 15 13 16 16 17 15 18 14 19 17 20 7 21 6 22 31 23
REMARK SMILES IDX 5 24 3 25 4 26 32 27 33 28 2 29 1 30 25 31 27 32 28 33 26 34
REMARK H PARENT 19 12 26 35 26 36
ROOT
ATOM      1  C   UNL     1     -19.332 -42.293  25.895  1.00  0.00     0.058 A 
ATOM      2  C   UNL     1     -19.007 -42.263  24.529  1.00  0.00     0.029 A 
ATOM      3  C   UNL     1     -17.683 -42.364  24.087  1.00  0.00     0.024 A 
ATOM      4  C   UNL     1     -16.656 -42.496  25.020  1.00  0.00     0.082 A 
ATOM      5  C   UNL     1     -16.941 -42.556  26.381  1.00  0.00     0.024 A 
ATOM      6  C   UNL     1     -18.270 -42.453  26.805  1.00  0.00     0.029 A 
ENDROOT
BRANCH   1   7
ATOM      7  N   UNL     1     -20.641 -42.180  26.357  1.00  0.00    -0.276 N 
ATOM      8  N   UNL     1     -21.305 -40.988  26.608  1.00  0.00    -0.297 N 
ATOM      9  C   UNL     1     -22.579 -41.250  27.094  1.00  0.00     0.060 C 
ATOM     10  C   UNL     1     -22.804 -42.574  27.099  1.00  0.00     0.033 C 
ATOM     11  C   UNL     1     -21.569 -43.313  26.611  1.00  0.00     0.165 C 
ATOM     12  H   UNL     1     -20.800 -40.318  27.190  1.00  0.00     0.188 HD
BRANCH   9  13
ATOM     13  C   UNL     1     -23.480 -40.176  27.517  1.00  0.00     0.005 A 
ATOM     14  C   UNL     1     -23.462 -38.937  26.858  1.00  0.00     0.049 A 
ATOM     15  C   UNL     1     -24.368 -40.347  28.587  1.00  0.00     0.049 A 
ATOM     16  C   UNL     1     -24.314 -37.912  27.263  1.00  0.00     0.126 A 
ATOM     17  C   UNL     1     -25.211 -39.306  28.975  1.00  0.00     0.126 A 
ATOM     18  C   UNL     1     -25.193 -38.084  28.321  1.00  0.00     0.078 A 
ATOM     19  F   UNL     1     -24.283 -36.739  26.618  1.00  0.00    -0.207 F 
ATOM     20  F   UNL     1     -26.050 -39.492  30.002  1.00  0.00    -0.207 F 
ENDBRANCH   9  13
BRANCH  11  21
ATOM     21  C   UNL     1     -21.866 -44.235  25.438  1.00  0.00     0.026 A 
ATOM     22  C   UNL     1     -21.737 -45.621  25.656  1.00  0.00     0.010 A 
ATOM     23  C   UNL     1     -22.301 -43.809  24.168  1.00  0.00     0.166 A 
ATOM     24  C   UNL     1     -21.996 -46.541  24.641  1.00  0.00     0.004 A 
ATOM     25  C   UNL     1     -22.534 -44.734  23.125  1.00  0.00     0.161 A 
ATOM     26  C   UNL     1     -22.387 -46.099  23.379  1.00  0.00     0.050 A 
BRANCH  23  27
ATOM     27  O   UNL     1     -22.427 -42.465  23.920  1.00  0.00    -0.492 OA
ATOM     28  C   UNL     1     -23.796 -42.080  23.814  1.00  0.00     0.278 C 
ENDBRANCH  23  27
BRANCH  25  29
ATOM     29  O   UNL     1     -22.894 -44.209  21.910  1.00  0.00    -0.493 OA
ATOM     30  C   UNL     1     -22.824 -45.061  20.776  1.00  0.00     0.278 C 
ENDBRANCH  25  29
ENDBRANCH  11  21
ENDBRANCH   1   7
BRANCH   4  31
ATOM     31  S   UNL     1     -14.979 -42.593  24.461  1.00  0.00     0.238 S 
ATOM     32  O   UNL     1     -14.784 -41.615  23.415  1.00  0.00    -0.207 OA
ATOM     33  O   UNL     1     -14.114 -42.680  25.613  1.00  0.00    -0.207 OA
BRANCH  31  34
ATOM     34  N   UNL     1     -14.971 -44.091  23.691  1.00  0.00    -0.225 NA
ATOM     35  H   UNL     1     -15.915 -44.292  23.356  1.00  0.00     0.137 HD
ATOM     36  H   UNL     1     -14.616 -44.841  24.285  1.00  0.00     0.137 HD
ENDBRANCH  31  34
ENDBRANCH   4  31
TORSDOF 7
ENDMDL
MODEL 7
REMARK VINA RESULT:    -8.350      4.650      7.126
REMARK INTER + INTRA:         -12.559
REMARK INTER:                 -11.293
REMARK INTRA:                  -1.265
REMARK UNBOUND:                -1.035
REMARK SMILES COc1cccc([C@@H]2C=C(c3cc(F)cc(F)c3)NN2c2ccc(S(N)(=O)=O)cc2)c1OC
REMARK SMILES IDX 21 1 22 2 23 3 24 4 29 5 30 6 20 7 19 8 10 9 9 10 8 11 11 13
REMARK SMILES IDX 12 14 18 15 13 16 16 17 15 18 14 19 17 20 7 21 6 22 31 23
REMARK SMILES IDX 5 24 3 25 4 26 32 27 33 28 2 29 1 30 25 31 27 32 28 33 26 34
REMARK H PARENT 19 12 26 35 26 36
ROOT
ATOM      1  C   UNL     1     -22.184 -44.125  26.866  1.00  0.00     0.058 A 
ATOM      2  C   UNL     1     -22.398 -44.604  28.169  1.00  0.00     0.029 A 
ATOM      3  C   UNL     1     -23.425 -45.510  28.458  1.00  0.00     0.024 A 
ATOM      4  C   UNL     1     -24.262 -45.950  27.434  1.00  0.00     0.082 A 
ATOM      5  C   UNL     1     -24.064 -45.518  26.126  1.00  0.00     0.024 A 
ATOM      6  C   UNL     1     -23.033 -44.612  25.855  1.00  0.00     0.029 A 
ENDROOT
BRANCH   1   7
ATOM      7  N   UNL     1     -21.178 -43.213  26.559  1.00  0.00    -0.276 N 
ATOM      8  N   UNL     1     -20.022 -43.499  25.848  1.00  0.00    -0.297 N 
ATOM      9  C   UNL     1     -19.226 -42.365  25.763  1.00  0.00     0.060 C 
ATOM     10  C   UNL     1     -19.855 -41.320  26.327  1.00  0.00     0.033 C 
ATOM     11  C   UNL     1     -21.194 -41.765  26.894  1.00  0.00     0.165 C 
ATOM     12  H   UNL     1     -19.498 -44.314  26.172  1.00  0.00     0.188 HD
BRANCH   9  13
ATOM     13  C   UNL     1     -17.905 -42.393  25.131  1.00  0.00     0.005 A 
ATOM     14  C   UNL     1     -16.786 -42.835  25.852  1.00  0.00     0.049 A 
ATOM     15  C   UNL     1     -17.720 -41.974  23.807  1.00  0.00     0.049 A 
ATOM     16  C   UNL     1     -15.528 -42.857  25.256  1.00  0.00     0.126 A 
ATOM     17  C   UNL     1     -16.451 -42.003  23.231  1.00  0.00     0.126 A 
ATOM     18  C   UNL     1     -15.347 -42.443  23.945  1.00  0.00     0.078 A 
ATOM     19  F   UNL     1     -14.474 -43.286  25.961  1.00  0.00    -0.207 F 
ATOM     20  F   UNL     1     -16.297 -41.596  21.965  1.00  0.00    -0.207 F 
ENDBRANCH   9  13
BRANCH  11  21
ATOM     21  C   UNL     1     -22.356 -40.946  26.354  1.00  0.00     0.026 A 
ATOM     22  C   UNL     1     -22.288 -40.536  25.007  1.00  0.00     0.010 A 
ATOM     23  C   UNL     1     -23.511 -40.604  27.084  1.00  0.00     0.166 A 
ATOM     24  C   UNL     1     -23.310 -39.789  24.425  1.00  0.00     0.004 A 
ATOM     25  C   UNL     1     -24.536 -39.819  26.510  1.00  0.00     0.161 A 
ATOM     26  C   UNL     1     -24.428 -39.426  25.175  1.00  0.00     0.050 A 
BRANCH  23  27
ATOM     27  O   UNL     1     -23.603 -40.978  28.402  1.00  0.00    -0.492 OA
ATOM     28  C   UNL     1     -24.622 -41.958  28.595  1.00  0.00     0.278 C 
ENDBRANCH  23  27
BRANCH  25  29
ATOM     29  O   UNL     1     -25.587 -39.491  27.329  1.00  0.00    -0.493 OA
ATOM     30  C   UNL     1     -26.028 -38.141  27.327  1.00  0.00     0.278 C 
ENDBRANCH  25  29
ENDBRANCH  11  21
ENDBRANCH   1   7
BRANCH   4  31
ATOM     31  S   UNL     1     -25.580 -47.072  27.808  1.00  0.00     0.238 S 
ATOM     32  O   UNL     1     -26.812 -46.323  27.896  1.00  0.00    -0.207 OA
ATOM     33  O   UNL     1     -25.440 -48.241  26.973  1.00  0.00    -0.207 OA
BRANCH  31  34
ATOM     34  N   UNL     1     -25.202 -47.513  29.389  1.00  0.00    -0.225 NA
ATOM     35  H   UNL     1     -25.710 -48.369  29.620  1.00  0.00     0.137 HD
ATOM     36  H   UNL     1     -25.390 -46.772  30.064  1.00  0.00     0.137 HD
ENDBRANCH  31  34
ENDBRANCH   4  31
TORSDOF 7
ENDMDL
MODEL 8
REMARK VINA RESULT:    -8.156      4.707      7.685
REMARK INTER + INTRA:         -12.290
REMARK INTER:                 -11.090
REMARK INTRA:                  -1.200
REMARK UNBOUND:                -1.035
REMARK SMILES COc1cccc([C@@H]2C=C(c3cc(F)cc(F)c3)NN2c2ccc(S(N)(=O)=O)cc2)c1OC
REMARK SMILES IDX 21 1 22 2 23 3 24 4 29 5 30 6 20 7 19 8 10 9 9 10 8 11 11 13
REMARK SMILES IDX 12 14 18 15 13 16 16 17 15 18 14 19 17 20 7 21 6 22 31 23
REMARK SMILES IDX 5 24 3 25 4 26 32 27 33 28 2 29 1 30 25 31 27 32 28 33 26 34
REMARK H PARENT 19 12 26 35 26 36
ROOT
ATOM      1  C   UNL     1     -20.953 -40.849  21.941  1.00  0.00     0.058 A 
ATOM      2  C   UNL     1     -21.578 -41.383  20.803  1.00  0.00     0.029 A 
ATOM      3  C   UNL     1     -22.163 -40.561  19.833  1.00  0.00     0.024 A 
ATOM      4  C   UNL     1     -22.130 -39.177  19.995  1.00  0.00     0.082 A 
ATOM      5  C   UNL     1     -21.496 -38.611  21.096  1.00  0.00     0.024 A 
ATOM      6  C   UNL     1     -20.917 -39.447  22.057  1.00  0.00     0.029 A 
ENDROOT
BRANCH   1   7
ATOM      7  N   UNL     1     -20.378 -41.649  22.926  1.00  0.00    -0.276 N 
ATOM      8  N   UNL     1     -19.127 -41.454  23.492  1.00  0.00    -0.297 N 
ATOM      9  C   UNL     1     -18.861 -42.461  24.409  1.00  0.00     0.060 C 
ATOM     10  C   UNL     1     -19.927 -43.271  24.523  1.00  0.00     0.033 C 
ATOM     11  C   UNL     1     -21.026 -42.819  23.575  1.00  0.00     0.165 C 
ATOM     12  H   UNL     1     -18.361 -41.323  22.830  1.00  0.00     0.188 HD
BRANCH   9  13
ATOM     13  C   UNL     1     -17.577 -42.552  25.107  1.00  0.00     0.005 A 
ATOM     14  C   UNL     1     -17.535 -42.611  26.508  1.00  0.00     0.049 A 
ATOM     15  C   UNL     1     -16.364 -42.569  24.404  1.00  0.00     0.049 A 
ATOM     16  C   UNL     1     -16.314 -42.691  27.174  1.00  0.00     0.126 A 
ATOM     17  C   UNL     1     -15.154 -42.648  25.092  1.00  0.00     0.126 A 
ATOM     18  C   UNL     1     -15.116 -42.709  26.477  1.00  0.00     0.078 A 
ATOM     19  F   UNL     1     -16.298 -42.751  28.511  1.00  0.00    -0.207 F 
ATOM     20  F   UNL     1     -14.007 -42.661  24.401  1.00  0.00    -0.207 F 
ENDBRANCH   9  13
BRANCH  11  21
ATOM     21  C   UNL     1     -22.344 -42.566  24.290  1.00  0.00     0.026 A 
ATOM     22  C   UNL     1     -23.418 -43.429  23.992  1.00  0.00     0.010 A 
ATOM     23  C   UNL     1     -22.559 -41.563  25.256  1.00  0.00     0.166 A 
ATOM     24  C   UNL     1     -24.661 -43.277  24.605  1.00  0.00     0.004 A 
ATOM     25  C   UNL     1     -23.826 -41.382  25.856  1.00  0.00     0.161 A 
ATOM     26  C   UNL     1     -24.866 -42.254  25.529  1.00  0.00     0.050 A 
BRANCH  23  27
ATOM     27  O   UNL     1     -21.537 -40.698  25.560  1.00  0.00    -0.492 OA
ATOM     28  C   UNL     1     -20.974 -40.986  26.838  1.00  0.00     0.278 C 
ENDBRANCH  23  27
BRANCH  25  29
ATOM     29  O   UNL     1     -23.942 -40.337  26.736  1.00  0.00    -0.493 OA
ATOM     30  C   UNL     1     -24.552 -39.143  26.266  1.00  0.00     0.278 C 
ENDBRANCH  25  29
ENDBRANCH  11  21
ENDBRANCH   1   7
BRANCH   4  31
ATOM     31  S   UNL     1     -22.897 -38.140  18.783  1.00  0.00     0.238 S 
ATOM     32  O   UNL     1     -22.637 -36.760  19.125  1.00  0.00    -0.207 OA
ATOM     33  O   UNL     1     -22.622 -38.680  17.473  1.00  0.00    -0.207 OA
BRANCH  31  34
ATOM     34  N   UNL     1     -24.530 -38.391  19.116  1.00  0.00    -0.225 NA
ATOM     35  H   UNL     1     -24.998 -38.681  18.256  1.00  0.00     0.137 HD
ATOM     36  H   UNL     1     -24.980 -37.576  19.531  1.00  0.00     0.137 HD
ENDBRANCH  31  34
ENDBRANCH   4  31
TORSDOF 7
ENDMDL
MODEL 9
REMARK VINA RESULT:    -8.153      2.242      2.676
REMARK INTER + INTRA:         -12.286
REMARK INTER:                 -11.212
REMARK INTRA:                  -1.074
REMARK UNBOUND:                -1.035
REMARK SMILES COc1cccc([C@@H]2C=C(c3cc(F)cc(F)c3)NN2c2ccc(S(N)(=O)=O)cc2)c1OC
REMARK SMILES IDX 21 1 22 2 23 3 24 4 29 5 30 6 20 7 19 8 10 9 9 10 8 11 11 13
REMARK SMILES IDX 12 14 18 15 13 16 16 17 15 18 14 19 17 20 7 21 6 22 31 23
REMARK SMILES IDX 5 24 3 25 4 26 32 27 33 28 2 29 1 30 25 31 27 32 28 33 26 34
REMARK H PARENT 19 12 26 35 26 36
ROOT
ATOM      1  C   UNL     1     -18.628 -41.771  24.060  1.00  0.00     0.058 A 
ATOM      2  C   UNL     1     -18.201 -42.158  25.341  1.00  0.00     0.029 A 
ATOM      3  C   UNL     1     -16.963 -42.778  25.545  1.00  0.00     0.024 A 
ATOM      4  C   UNL     1     -16.128 -43.022  24.456  1.00  0.00     0.082 A 
ATOM      5  C   UNL     1     -16.506 -42.629  23.176  1.00  0.00     0.024 A 
ATOM      6  C   UNL     1     -17.747 -42.011  22.989  1.00  0.00     0.029 A 
ENDROOT
BRANCH   1   7
ATOM      7  N   UNL     1     -19.861 -41.166  23.832  1.00  0.00    -0.276 N 
ATOM      8  N   UNL     1     -20.239 -40.525  22.662  1.00  0.00    -0.297 N 
ATOM      9  C   UNL     1     -21.520 -40.007  22.799  1.00  0.00     0.060 C 
ATOM     10  C   UNL     1     -22.028 -40.351  23.994  1.00  0.00     0.033 C 
ATOM     11  C   UNL     1     -21.003 -41.149  24.784  1.00  0.00     0.165 C 
ATOM     12  H   UNL     1     -19.579 -39.832  22.307  1.00  0.00     0.188 HD
BRANCH   9  13
ATOM     13  C   UNL     1     -22.149 -39.211  21.743  1.00  0.00     0.005 A 
ATOM     14  C   UNL     1     -23.535 -38.993  21.751  1.00  0.00     0.049 A 
ATOM     15  C   UNL     1     -21.395 -38.659  20.698  1.00  0.00     0.049 A 
ATOM     16  C   UNL     1     -24.135 -38.242  20.744  1.00  0.00     0.126 A 
ATOM     17  C   UNL     1     -22.018 -37.912  19.700  1.00  0.00     0.126 A 
ATOM     18  C   UNL     1     -23.388 -37.696  19.712  1.00  0.00     0.078 A 
ATOM     19  F   UNL     1     -25.459 -38.043  20.773  1.00  0.00    -0.207 F 
ATOM     20  F   UNL     1     -21.279 -37.396  18.710  1.00  0.00    -0.207 F 
ENDBRANCH   9  13
BRANCH  11  21
ATOM     21  C   UNL     1     -21.540 -42.497  25.240  1.00  0.00     0.026 A 
ATOM     22  C   UNL     1     -21.871 -42.634  26.603  1.00  0.00     0.010 A 
ATOM     23  C   UNL     1     -21.769 -43.601  24.396  1.00  0.00     0.166 A 
ATOM     24  C   UNL     1     -22.376 -43.831  27.109  1.00  0.00     0.004 A 
ATOM     25  C   UNL     1     -22.250 -44.828  24.908  1.00  0.00     0.161 A 
ATOM     26  C   UNL     1     -22.559 -44.925  26.266  1.00  0.00     0.050 A 
BRANCH  23  27
ATOM     27  O   UNL     1     -21.446 -43.504  23.065  1.00  0.00    -0.492 OA
ATOM     28  C   UNL     1     -22.614 -43.409  22.252  1.00  0.00     0.278 C 
ENDBRANCH  23  27
BRANCH  25  29
ATOM     29  O   UNL     1     -22.378 -45.857  24.011  1.00  0.00    -0.493 OA
ATOM     30  C   UNL     1     -23.220 -46.944  24.369  1.00  0.00     0.278 C 
ENDBRANCH  25  29
ENDBRANCH  11  21
ENDBRANCH   1   7
BRANCH   4  31
ATOM     31  S   UNL     1     -14.576 -43.834  24.712  1.00  0.00     0.238 S 
ATOM     32  O   UNL     1     -14.604 -45.109  24.033  1.00  0.00    -0.207 OA
ATOM     33  O   UNL     1     -13.516 -42.874  24.518  1.00  0.00    -0.207 OA
BRANCH  31  34
ATOM     34  N   UNL     1     -14.657 -44.193  26.357  1.00  0.00    -0.225 NA
ATOM     35  H   UNL     1     -15.103 -43.412  26.841  1.00  0.00     0.137 HD
ATOM     36  H   UNL     1     -13.746 -44.412  26.760  1.00  0.00     0.137 HD
ENDBRANCH  31  34
ENDBRANCH   4  31
TORSDOF 7
ENDMDL
