MODEL 1
REMARK VINA RESULT:   -12.576      0.000      0.000
REMARK INTER + INTRA:         -18.722
REMARK INTER:                 -17.354
REMARK INTRA:                  -1.368
REMARK UNBOUND:                -1.368
REMARK SMILES COc1cc2c(cc1O)C(=O)[C@H](Cc1cc[n+](Cc3cccc(Cl)c3)cc1C(C)=O)C2
REMARK SMILES IDX 14 1 15 2 16 3 17 4 26 5 27 6 13 7 12 8 3 9 4 10 8 11 5 12
REMARK SMILES IDX 7 13 6 14 31 15 10 16 11 17 2 18 1 19 9 20 28 22 29 23 30 24
REMARK SMILES IDX 18 25 19 26 20 27 25 28 21 29 23 30 22 31 24 32
REMARK H PARENT 9 21
ROOT
ATOM      1  C   UNL     1     -11.914 -45.177  28.032  1.00  0.00    -0.025 A 
ATOM      2  C   UNL     1     -12.928 -45.827  27.317  1.00  0.00     0.075 A 
ATOM      3  C   UNL     1     -13.805 -45.101  26.521  1.00  0.00     0.308 A 
ATOM      4  N   UNL     1     -13.681 -43.758  26.409  1.00  0.00    -0.200 N 
ATOM      5  C   UNL     1     -12.701 -43.099  27.072  1.00  0.00     0.320 A 
ATOM      6  C   UNL     1     -11.804 -43.785  27.891  1.00  0.00     0.084 A 
ENDROOT
BRANCH   1   7
ATOM      7  C   UNL     1     -11.063 -45.998  28.987  1.00  0.00     0.049 C 
BRANCH   7   8
ATOM      8  C   UNL     1     -11.652 -46.142  30.400  1.00  0.00     0.070 C 
ATOM      9  C   UNL     1     -13.493 -42.544  32.908  1.00  0.00     0.160 A 
ATOM     10  C   UNL     1     -13.849 -43.491  31.942  1.00  0.00     0.055 A 
ATOM     11  C   UNL     1     -12.178 -42.536  33.424  1.00  0.00     0.158 A 
ATOM     12  C   UNL     1     -12.886 -44.402  31.519  1.00  0.00    -0.032 A 
ATOM     13  C   UNL     1     -11.214 -43.446  33.010  1.00  0.00     0.062 A 
ATOM     14  C   UNL     1     -11.604 -44.364  32.057  1.00  0.00     0.025 A 
ATOM     15  C   UNL     1     -13.056 -45.499  30.514  1.00  0.00     0.048 C 
ATOM     16  C   UNL     1     -10.811 -45.412  31.435  1.00  0.00     0.167 C 
ATOM     17  O   UNL     1      -9.643 -45.648  31.701  1.00  0.00    -0.294 OA
BRANCH   9  18
ATOM     18  O   UNL     1     -14.314 -41.577  33.431  1.00  0.00    -0.493 OA
ATOM     19  C   UNL     1     -15.634 -41.504  32.905  1.00  0.00     0.278 C 
ENDBRANCH   9  18
BRANCH  11  20
ATOM     20  O   UNL     1     -11.818 -41.610  34.366  1.00  0.00    -0.504 OA
ATOM     21  H   UNL     1     -12.512 -41.655  35.053  1.00  0.00     0.293 HD
ENDBRANCH  11  20
ENDBRANCH   7   8
ENDBRANCH   1   7
BRANCH   6  22
ATOM     22  C   UNL     1     -10.739 -43.008  28.566  1.00  0.00     0.166 C 
ATOM     23  C   UNL     1      -9.323 -43.142  28.070  1.00  0.00     0.094 C 
ATOM     24  O   UNL     1     -11.037 -42.297  29.518  1.00  0.00    -0.294 OA
ENDBRANCH   6  22
BRANCH   4  25
ATOM     25  C   UNL     1     -14.650 -43.006  25.572  1.00  0.00     0.393 C 
BRANCH  25  26
ATOM     26  C   UNL     1     -15.945 -42.780  26.309  1.00  0.00     0.018 A 
ATOM     27  C   UNL     1     -15.974 -42.782  27.713  1.00  0.00     0.010 A 
ATOM     28  C   UNL     1     -17.143 -42.556  25.609  1.00  0.00     0.030 A 
ATOM     29  C   UNL     1     -17.175 -42.579  28.399  1.00  0.00     0.002 A 
ATOM     30  C   UNL     1     -18.338 -42.355  26.303  1.00  0.00     0.041 A 
ATOM     31  C   UNL     1     -18.358 -42.368  27.694  1.00  0.00     0.020 A 
ATOM     32  Cl  UNL     1     -19.792 -42.094  25.424  1.00  0.00    -0.084 Cl
ENDBRANCH  25  26
ENDBRANCH   4  25
TORSDOF 7
ENDMDL
MODEL 2
REMARK VINA RESULT:   -11.647      4.144      8.207
REMARK INTER + INTRA:         -17.440
REMARK INTER:                 -16.825
REMARK INTRA:                  -0.615
REMARK UNBOUND:                -1.368
REMARK SMILES COc1cc2c(cc1O)C(=O)[C@H](Cc1cc[n+](Cc3cccc(Cl)c3)cc1C(C)=O)C2
REMARK SMILES IDX 14 1 15 2 16 3 17 4 26 5 27 6 13 7 12 8 3 9 4 10 8 11 5 12
REMARK SMILES IDX 7 13 6 14 31 15 10 16 11 17 2 18 1 19 9 20 28 22 29 23 30 24
REMARK SMILES IDX 18 25 19 26 20 27 25 28 21 29 23 30 22 31 24 32
REMARK H PARENT 9 21
ROOT
ATOM      1  C   UNL     1     -12.144 -44.016  27.823  1.00  0.00    -0.025 A 
ATOM      2  C   UNL     1     -12.647 -45.199  28.379  1.00  0.00     0.075 A 
ATOM      3  C   UNL     1     -11.901 -45.913  29.309  1.00  0.00     0.308 A 
ATOM      4  N   UNL     1     -10.687 -45.466  29.706  1.00  0.00    -0.200 N 
ATOM      5  C   UNL     1     -10.178 -44.316  29.203  1.00  0.00     0.320 A 
ATOM      6  C   UNL     1     -10.887 -43.572  28.259  1.00  0.00     0.084 A 
ENDROOT
BRANCH   1   7
ATOM      7  C   UNL     1     -12.940 -43.342  26.718  1.00  0.00     0.049 C 
BRANCH   7   8
ATOM      8  C   UNL     1     -14.204 -44.105  26.286  1.00  0.00     0.070 C 
ATOM      9  C   UNL     1     -17.684 -42.230  23.641  1.00  0.00     0.160 A 
ATOM     10  C   UNL     1     -16.447 -42.872  23.515  1.00  0.00     0.055 A 
ATOM     11  C   UNL     1     -18.223 -42.004  24.926  1.00  0.00     0.158 A 
ATOM     12  C   UNL     1     -15.784 -43.268  24.672  1.00  0.00    -0.032 A 
ATOM     13  C   UNL     1     -17.570 -42.403  26.085  1.00  0.00     0.062 A 
ATOM     14  C   UNL     1     -16.354 -43.032  25.920  1.00  0.00     0.025 A 
ATOM     15  C   UNL     1     -14.468 -43.977  24.765  1.00  0.00     0.048 C 
ATOM     16  C   UNL     1     -15.452 -43.539  26.941  1.00  0.00     0.167 C 
ATOM     17  O   UNL     1     -15.670 -43.494  28.142  1.00  0.00    -0.294 OA
BRANCH   9  18
ATOM     18  O   UNL     1     -18.463 -41.773  22.609  1.00  0.00    -0.493 OA
ATOM     19  C   UNL     1     -17.987 -40.634  21.900  1.00  0.00     0.278 C 
ENDBRANCH   9  18
BRANCH  11  20
ATOM     20  O   UNL     1     -19.430 -41.372  25.061  1.00  0.00    -0.504 OA
ATOM     21  H   UNL     1     -19.693 -41.119  24.153  1.00  0.00     0.293 HD
ENDBRANCH  11  20
ENDBRANCH   7   8
ENDBRANCH   1   7
BRANCH   6  22
ATOM     22  C   UNL     1     -10.285 -42.310  27.769  1.00  0.00     0.166 C 
ATOM     23  C   UNL     1      -9.005 -42.380  26.978  1.00  0.00     0.094 C 
ATOM     24  O   UNL     1     -10.833 -41.248  28.039  1.00  0.00    -0.294 OA
ENDBRANCH   6  22
BRANCH   4  25
ATOM     25  C   UNL     1      -9.901 -46.265  30.681  1.00  0.00     0.393 C 
BRANCH  25  26
ATOM     26  C   UNL     1      -8.974 -45.386  31.481  1.00  0.00     0.018 A 
ATOM     27  C   UNL     1      -7.592 -45.630  31.487  1.00  0.00     0.010 A 
ATOM     28  C   UNL     1      -9.473 -44.304  32.227  1.00  0.00     0.030 A 
ATOM     29  C   UNL     1      -6.730 -44.820  32.233  1.00  0.00     0.002 A 
ATOM     30  C   UNL     1      -8.604 -43.501  32.970  1.00  0.00     0.041 A 
ATOM     31  C   UNL     1      -7.237 -43.757  32.977  1.00  0.00     0.020 A 
ATOM     32  Cl  UNL     1      -9.239 -42.191  33.883  1.00  0.00    -0.084 Cl
ENDBRANCH  25  26
ENDBRANCH   4  25
TORSDOF 7
ENDMDL
MODEL 3
REMARK VINA RESULT:   -11.268      4.127      8.246
REMARK INTER + INTRA:         -16.917
REMARK INTER:                 -16.029
REMARK INTRA:                  -0.888
REMARK UNBOUND:                -1.368
REMARK SMILES COc1cc2c(cc1O)C(=O)[C@H](Cc1cc[n+](Cc3cccc(Cl)c3)cc1C(C)=O)C2
REMARK SMILES IDX 14 1 15 2 16 3 17 4 26 5 27 6 13 7 12 8 3 9 4 10 8 11 5 12
REMARK SMILES IDX 7 13 6 14 31 15 10 16 11 17 2 18 1 19 9 20 28 22 29 23 30 24
REMARK SMILES IDX 18 25 19 26 20 27 25 28 21 29 23 30 22 31 24 32
REMARK H PARENT 9 21
ROOT
ATOM      1  C   UNL     1     -12.790 -43.888  27.273  1.00  0.00    -0.025 A 
ATOM      2  C   UNL     1     -12.165 -42.638  27.168  1.00  0.00     0.075 A 
ATOM      3  C   UNL     1     -10.913 -42.428  27.733  1.00  0.00     0.308 A 
ATOM      4  N   UNL     1     -10.270 -43.430  28.374  1.00  0.00    -0.200 N 
ATOM      5  C   UNL     1     -10.837 -44.657  28.478  1.00  0.00     0.320 A 
ATOM      6  C   UNL     1     -12.097 -44.912  27.937  1.00  0.00     0.084 A 
ENDROOT
BRANCH   1   7
ATOM      7  C   UNL     1     -14.210 -44.031  26.752  1.00  0.00     0.049 C 
BRANCH   7   8
ATOM      8  C   UNL     1     -14.845 -42.719  26.262  1.00  0.00     0.070 C 
ATOM      9  C   UNL     1     -19.205 -42.396  24.389  1.00  0.00     0.160 A 
ATOM     10  C   UNL     1     -18.549 -42.393  25.624  1.00  0.00     0.055 A 
ATOM     11  C   UNL     1     -18.451 -42.511  23.201  1.00  0.00     0.158 A 
ATOM     12  C   UNL     1     -17.162 -42.505  25.640  1.00  0.00    -0.032 A 
ATOM     13  C   UNL     1     -17.067 -42.617  23.208  1.00  0.00     0.062 A 
ATOM     14  C   UNL     1     -16.456 -42.610  24.445  1.00  0.00     0.025 A 
ATOM     15  C   UNL     1     -16.266 -42.509  26.840  1.00  0.00     0.048 C 
ATOM     16  C   UNL     1     -15.040 -42.719  24.755  1.00  0.00     0.167 C 
ATOM     17  O   UNL     1     -14.154 -42.815  23.920  1.00  0.00    -0.294 OA
BRANCH   9  18
ATOM     18  O   UNL     1     -20.560 -42.299  24.195  1.00  0.00    -0.493 OA
ATOM     19  C   UNL     1     -21.165 -41.051  24.513  1.00  0.00     0.278 C 
ENDBRANCH   9  18
BRANCH  11  20
ATOM     20  O   UNL     1     -19.084 -42.520  21.986  1.00  0.00    -0.504 OA
ATOM     21  H   UNL     1     -18.383 -42.342  21.327  1.00  0.00     0.293 HD
ENDBRANCH  11  20
ENDBRANCH   7   8
ENDBRANCH   1   7
BRANCH   6  22
ATOM     22  C   UNL     1     -12.647 -46.281  28.061  1.00  0.00     0.166 C 
ATOM     23  C   UNL     1     -12.569 -47.202  26.872  1.00  0.00     0.094 C 
ATOM     24  O   UNL     1     -13.166 -46.617  29.119  1.00  0.00    -0.294 OA
ENDBRANCH   6  22
BRANCH   4  25
ATOM     25  C   UNL     1      -8.945 -43.168  28.991  1.00  0.00     0.393 C 
BRANCH  25  26
ATOM     26  C   UNL     1      -9.025 -43.219  30.495  1.00  0.00     0.018 A 
ATOM     27  C   UNL     1      -7.890 -43.538  31.257  1.00  0.00     0.010 A 
ATOM     28  C   UNL     1     -10.231 -42.943  31.162  1.00  0.00     0.030 A 
ATOM     29  C   UNL     1      -7.963 -43.592  32.652  1.00  0.00     0.002 A 
ATOM     30  C   UNL     1     -10.294 -43.001  32.556  1.00  0.00     0.041 A 
ATOM     31  C   UNL     1      -9.167 -43.326  33.302  1.00  0.00     0.020 A 
ATOM     32  Cl  UNL     1     -11.783 -42.669  33.348  1.00  0.00    -0.084 Cl
ENDBRANCH  25  26
ENDBRANCH   4  25
TORSDOF 7
ENDMDL
MODEL 4
REMARK VINA RESULT:   -10.741      4.406      8.396
REMARK INTER + INTRA:         -16.190
REMARK INTER:                 -16.241
REMARK INTRA:                   0.051
REMARK UNBOUND:                -1.368
REMARK SMILES COc1cc2c(cc1O)C(=O)[C@H](Cc1cc[n+](Cc3cccc(Cl)c3)cc1C(C)=O)C2
REMARK SMILES IDX 14 1 15 2 16 3 17 4 26 5 27 6 13 7 12 8 3 9 4 10 8 11 5 12
REMARK SMILES IDX 7 13 6 14 31 15 10 16 11 17 2 18 1 19 9 20 28 22 29 23 30 24
REMARK SMILES IDX 18 25 19 26 20 27 25 28 21 29 23 30 22 31 24 32
REMARK H PARENT 9 21
ROOT
ATOM      1  C   UNL     1     -13.382 -44.262  27.925  1.00  0.00    -0.025 A 
ATOM      2  C   UNL     1     -14.083 -45.038  28.856  1.00  0.00     0.075 A 
ATOM      3  C   UNL     1     -13.541 -45.294  30.110  1.00  0.00     0.308 A 
ATOM      4  N   UNL     1     -12.339 -44.780  30.457  1.00  0.00    -0.200 N 
ATOM      5  C   UNL     1     -11.642 -44.009  29.589  1.00  0.00     0.320 A 
ATOM      6  C   UNL     1     -12.141 -43.735  28.315  1.00  0.00     0.084 A 
ENDROOT
BRANCH   1   7
ATOM      7  C   UNL     1     -13.955 -44.119  26.525  1.00  0.00     0.049 C 
BRANCH   7   8
ATOM      8  C   UNL     1     -14.665 -42.780  26.261  1.00  0.00     0.070 C 
ATOM      9  C   UNL     1     -19.088 -42.392  24.555  1.00  0.00     0.160 A 
ATOM     10  C   UNL     1     -18.397 -42.549  25.762  1.00  0.00     0.055 A 
ATOM     11  C   UNL     1     -18.365 -42.281  23.348  1.00  0.00     0.158 A 
ATOM     12  C   UNL     1     -17.007 -42.591  25.730  1.00  0.00    -0.032 A 
ATOM     13  C   UNL     1     -16.977 -42.316  23.310  1.00  0.00     0.062 A 
ATOM     14  C   UNL     1     -16.332 -42.471  24.519  1.00  0.00     0.025 A 
ATOM     15  C   UNL     1     -16.078 -42.736  26.895  1.00  0.00     0.048 C 
ATOM     16  C   UNL     1     -14.904 -42.555  24.777  1.00  0.00     0.167 C 
ATOM     17  O   UNL     1     -14.039 -42.473  23.919  1.00  0.00    -0.294 OA
BRANCH   9  18
ATOM     18  O   UNL     1     -20.451 -42.335  24.408  1.00  0.00    -0.493 OA
ATOM     19  C   UNL     1     -21.121 -41.254  25.047  1.00  0.00     0.278 C 
ENDBRANCH   9  18
BRANCH  11  20
ATOM     20  O   UNL     1     -19.031 -42.132  22.161  1.00  0.00    -0.504 OA
ATOM     21  H   UNL     1     -19.939 -42.453  22.332  1.00  0.00     0.293 HD
ENDBRANCH  11  20
ENDBRANCH   7   8
ENDBRANCH   1   7
BRANCH   6  22
ATOM     22  C   UNL     1     -11.341 -42.864  27.424  1.00  0.00     0.166 C 
ATOM     23  C   UNL     1     -10.217 -42.058  28.021  1.00  0.00     0.094 C 
ATOM     24  O   UNL     1     -11.629 -42.808  26.235  1.00  0.00    -0.294 OA
ENDBRANCH   6  22
BRANCH   4  25
ATOM     25  C   UNL     1     -11.774 -45.092  31.795  1.00  0.00     0.393 C 
BRANCH  25  26
ATOM     26  C   UNL     1     -10.279 -45.269  31.726  1.00  0.00     0.018 A 
ATOM     27  C   UNL     1      -9.725 -46.432  31.167  1.00  0.00     0.010 A 
ATOM     28  C   UNL     1      -9.413 -44.274  32.210  1.00  0.00     0.030 A 
ATOM     29  C   UNL     1      -8.339 -46.601  31.107  1.00  0.00     0.002 A 
ATOM     30  C   UNL     1      -8.029 -44.452  32.147  1.00  0.00     0.041 A 
ATOM     31  C   UNL     1      -7.491 -45.612  31.600  1.00  0.00     0.020 A 
ATOM     32  Cl  UNL     1      -6.991 -43.226  32.755  1.00  0.00    -0.084 Cl
ENDBRANCH  25  26
ENDBRANCH   4  25
TORSDOF 7
ENDMDL
MODEL 5
REMARK VINA RESULT:   -10.433      4.606      8.765
REMARK INTER + INTRA:         -15.765
REMARK INTER:                 -14.543
REMARK INTRA:                  -1.222
REMARK UNBOUND:                -1.368
REMARK SMILES COc1cc2c(cc1O)C(=O)[C@H](Cc1cc[n+](Cc3cccc(Cl)c3)cc1C(C)=O)C2
REMARK SMILES IDX 14 1 15 2 16 3 17 4 26 5 27 6 13 7 12 8 3 9 4 10 8 11 5 12
REMARK SMILES IDX 7 13 6 14 31 15 10 16 11 17 2 18 1 19 9 20 28 22 29 23 30 24
REMARK SMILES IDX 18 25 19 26 20 27 25 28 21 29 23 30 22 31 24 32
REMARK H PARENT 9 21
ROOT
ATOM      1  C   UNL     1     -15.227 -43.335  27.020  1.00  0.00    -0.025 A 
ATOM      2  C   UNL     1     -15.136 -43.686  28.373  1.00  0.00     0.075 A 
ATOM      3  C   UNL     1     -14.252 -44.674  28.787  1.00  0.00     0.308 A 
ATOM      4  N   UNL     1     -13.451 -45.298  27.893  1.00  0.00    -0.200 N 
ATOM      5  C   UNL     1     -13.498 -44.971  26.579  1.00  0.00     0.320 A 
ATOM      6  C   UNL     1     -14.379 -43.992  26.116  1.00  0.00     0.084 A 
ENDROOT
BRANCH   1   7
ATOM      7  C   UNL     1     -16.298 -42.342  26.601  1.00  0.00     0.049 C 
BRANCH   7   8
ATOM      8  C   UNL     1     -17.596 -42.985  26.085  1.00  0.00     0.070 C 
ATOM      9  C   UNL     1     -21.109 -40.581  23.962  1.00  0.00     0.160 A 
ATOM     10  C   UNL     1     -19.895 -41.215  23.674  1.00  0.00     0.055 A 
ATOM     11  C   UNL     1     -21.599 -40.585  25.286  1.00  0.00     0.158 A 
ATOM     12  C   UNL     1     -19.206 -41.832  24.713  1.00  0.00    -0.032 A 
ATOM     13  C   UNL     1     -20.919 -41.204  26.327  1.00  0.00     0.062 A 
ATOM     14  C   UNL     1     -19.727 -41.818  26.003  1.00  0.00     0.025 A 
ATOM     15  C   UNL     1     -17.908 -42.573  24.624  1.00  0.00     0.048 C 
ATOM     16  C   UNL     1     -18.806 -42.524  26.879  1.00  0.00     0.167 C 
ATOM     17  O   UNL     1     -18.982 -42.696  28.075  1.00  0.00    -0.294 OA
BRANCH   9  18
ATOM     18  O   UNL     1     -21.909 -39.925  23.062  1.00  0.00    -0.493 OA
ATOM     19  C   UNL     1     -21.253 -39.205  22.025  1.00  0.00     0.278 C 
ENDBRANCH   9  18
BRANCH  11  20
ATOM     20  O   UNL     1     -22.783 -39.964  25.580  1.00  0.00    -0.504 OA
ATOM     21  H   UNL     1     -22.762 -39.810  26.546  1.00  0.00     0.293 HD
ENDBRANCH  11  20
ENDBRANCH   7   8
ENDBRANCH   1   7
BRANCH   6  22
ATOM     22  C   UNL     1     -14.361 -43.663  24.672  1.00  0.00     0.166 C 
ATOM     23  C   UNL     1     -14.918 -44.666  23.696  1.00  0.00     0.094 C 
ATOM     24  O   UNL     1     -13.876 -42.597  24.313  1.00  0.00    -0.294 OA
ENDBRANCH   6  22
BRANCH   4  25
ATOM     25  C   UNL     1     -12.534 -46.369  28.361  1.00  0.00     0.393 C 
BRANCH  25  26
ATOM     26  C   UNL     1     -11.475 -45.815  29.280  1.00  0.00     0.018 A 
ATOM     27  C   UNL     1     -11.353 -46.294  30.594  1.00  0.00     0.010 A 
ATOM     28  C   UNL     1     -10.588 -44.819  28.839  1.00  0.00     0.030 A 
ATOM     29  C   UNL     1     -10.377 -45.778  31.451  1.00  0.00     0.002 A 
ATOM     30  C   UNL     1      -9.615 -44.309  29.702  1.00  0.00     0.041 A 
ATOM     31  C   UNL     1      -9.509 -44.783  31.005  1.00  0.00     0.020 A 
ATOM     32  Cl  UNL     1      -8.549 -43.083  29.142  1.00  0.00    -0.084 Cl
ENDBRANCH  25  26
ENDBRANCH   4  25
TORSDOF 7
ENDMDL
MODEL 6
REMARK VINA RESULT:   -10.249      2.727      5.040
REMARK INTER + INTRA:         -15.511
REMARK INTER:                 -15.911
REMARK INTRA:                   0.400
REMARK UNBOUND:                -1.368
REMARK SMILES COc1cc2c(cc1O)C(=O)[C@H](Cc1cc[n+](Cc3cccc(Cl)c3)cc1C(C)=O)C2
REMARK SMILES IDX 14 1 15 2 16 3 17 4 26 5 27 6 13 7 12 8 3 9 4 10 8 11 5 12
REMARK SMILES IDX 7 13 6 14 31 15 10 16 11 17 2 18 1 19 9 20 28 22 29 23 30 24
REMARK SMILES IDX 18 25 19 26 20 27 25 28 21 29 23 30 22 31 24 32
REMARK H PARENT 9 21
ROOT
ATOM      1  C   UNL     1     -15.293 -43.616  26.337  1.00  0.00    -0.025 A 
ATOM      2  C   UNL     1     -14.763 -43.914  25.075  1.00  0.00     0.075 A 
ATOM      3  C   UNL     1     -15.432 -43.525  23.921  1.00  0.00     0.308 A 
ATOM      4  N   UNL     1     -16.593 -42.836  23.998  1.00  0.00    -0.200 N 
ATOM      5  C   UNL     1     -17.125 -42.514  25.202  1.00  0.00     0.320 A 
ATOM      6  C   UNL     1     -16.495 -42.893  26.388  1.00  0.00     0.084 A 
ENDROOT
BRANCH   1   7
ATOM      7  C   UNL     1     -14.592 -44.173  27.565  1.00  0.00     0.049 C 
BRANCH   7   8
ATOM      8  C   UNL     1     -13.135 -44.603  27.326  1.00  0.00     0.070 C 
ATOM      9  C   UNL     1      -9.923 -45.187  30.786  1.00  0.00     0.160 A 
ATOM     10  C   UNL     1     -10.936 -45.880  30.114  1.00  0.00     0.055 A 
ATOM     11  C   UNL     1      -9.623 -43.859  30.414  1.00  0.00     0.158 A 
ATOM     12  C   UNL     1     -11.620 -45.228  29.093  1.00  0.00    -0.032 A 
ATOM     13  C   UNL     1     -10.298 -43.205  29.392  1.00  0.00     0.062 A 
ATOM     14  C   UNL     1     -11.289 -43.920  28.753  1.00  0.00     0.025 A 
ATOM     15  C   UNL     1     -12.720 -45.783  28.241  1.00  0.00     0.048 C 
ATOM     16  C   UNL     1     -12.159 -43.491  27.670  1.00  0.00     0.167 C 
ATOM     17  O   UNL     1     -12.112 -42.393  27.138  1.00  0.00    -0.294 OA
BRANCH   9  18
ATOM     18  O   UNL     1      -9.157 -45.677  31.813  1.00  0.00    -0.493 OA
ATOM     19  C   UNL     1      -7.993 -46.411  31.452  1.00  0.00     0.278 C 
ENDBRANCH   9  18
BRANCH  11  20
ATOM     20  O   UNL     1      -8.637 -43.171  31.069  1.00  0.00    -0.504 OA
ATOM     21  H   UNL     1      -8.864 -43.233  32.018  1.00  0.00     0.293 HD
ENDBRANCH  11  20
ENDBRANCH   7   8
ENDBRANCH   1   7
BRANCH   6  22
ATOM     22  C   UNL     1     -17.115 -42.487  27.669  1.00  0.00     0.166 C 
ATOM     23  C   UNL     1     -18.618 -42.438  27.761  1.00  0.00     0.094 C 
ATOM     24  O   UNL     1     -16.390 -42.183  28.609  1.00  0.00    -0.294 OA
ENDBRANCH   6  22
BRANCH   4  25
ATOM     25  C   UNL     1     -17.299 -42.457  22.747  1.00  0.00     0.393 C 
BRANCH  25  26
ATOM     26  C   UNL     1     -18.602 -41.761  23.048  1.00  0.00     0.018 A 
ATOM     27  C   UNL     1     -19.444 -42.237  24.065  1.00  0.00     0.010 A 
ATOM     28  C   UNL     1     -18.995 -40.623  22.323  1.00  0.00     0.030 A 
ATOM     29  C   UNL     1     -20.656 -41.598  24.342  1.00  0.00     0.002 A 
ATOM     30  C   UNL     1     -20.208 -39.991  22.606  1.00  0.00     0.041 A 
ATOM     31  C   UNL     1     -21.039 -40.476  23.610  1.00  0.00     0.020 A 
ATOM     32  Cl  UNL     1     -20.671 -38.607  21.699  1.00  0.00    -0.084 Cl
ENDBRANCH  25  26
ENDBRANCH   4  25
TORSDOF 7
ENDMDL
MODEL 7
REMARK VINA RESULT:   -10.244      2.853      5.219
REMARK INTER + INTRA:         -15.504
REMARK INTER:                 -14.449
REMARK INTRA:                  -1.055
REMARK UNBOUND:                -1.368
REMARK SMILES COc1cc2c(cc1O)C(=O)[C@H](Cc1cc[n+](Cc3cccc(Cl)c3)cc1C(C)=O)C2
REMARK SMILES IDX 14 1 15 2 16 3 17 4 26 5 27 6 13 7 12 8 3 9 4 10 8 11 5 12
REMARK SMILES IDX 7 13 6 14 31 15 10 16 11 17 2 18 1 19 9 20 28 22 29 23 30 24
REMARK SMILES IDX 18 25 19 26 20 27 25 28 21 29 23 30 22 31 24 32
REMARK H PARENT 9 21
ROOT
ATOM      1  C   UNL     1     -15.646 -43.122  26.702  1.00  0.00    -0.025 A 
ATOM      2  C   UNL     1     -16.603 -42.879  27.696  1.00  0.00     0.075 A 
ATOM      3  C   UNL     1     -17.879 -42.448  27.354  1.00  0.00     0.308 A 
ATOM      4  N   UNL     1     -18.223 -42.277  26.057  1.00  0.00    -0.200 N 
ATOM      5  C   UNL     1     -17.329 -42.521  25.069  1.00  0.00     0.320 A 
ATOM      6  C   UNL     1     -16.032 -42.944  25.365  1.00  0.00     0.084 A 
ENDROOT
BRANCH   1   7
ATOM      7  C   UNL     1     -14.230 -43.466  27.132  1.00  0.00     0.049 C 
BRANCH   7   8
ATOM      8  C   UNL     1     -14.124 -44.687  28.061  1.00  0.00     0.070 C 
ATOM      9  C   UNL     1     -10.388 -45.599  30.860  1.00  0.00     0.160 A 
ATOM     10  C   UNL     1     -11.587 -44.878  30.847  1.00  0.00     0.055 A 
ATOM     11  C   UNL     1     -10.035 -46.383  29.741  1.00  0.00     0.158 A 
ATOM     12  C   UNL     1     -12.398 -44.959  29.719  1.00  0.00    -0.032 A 
ATOM     13  C   UNL     1     -10.842 -46.473  28.615  1.00  0.00     0.062 A 
ATOM     14  C   UNL     1     -12.015 -45.749  28.639  1.00  0.00     0.025 A 
ATOM     15  C   UNL     1     -13.718 -44.287  29.502  1.00  0.00     0.048 C 
ATOM     16  C   UNL     1     -13.035 -45.644  27.608  1.00  0.00     0.167 C 
ATOM     17  O   UNL     1     -12.999 -46.229  26.537  1.00  0.00    -0.294 OA
BRANCH   9  18
ATOM     18  O   UNL     1      -9.476 -45.627  31.884  1.00  0.00    -0.493 OA
ATOM     19  C   UNL     1      -8.656 -44.474  32.046  1.00  0.00     0.278 C 
ENDBRANCH   9  18
BRANCH  11  20
ATOM     20  O   UNL     1      -8.861 -47.088  29.742  1.00  0.00    -0.504 OA
ATOM     21  H   UNL     1      -8.183 -46.462  30.066  1.00  0.00     0.293 HD
ENDBRANCH  11  20
ENDBRANCH   7   8
ENDBRANCH   1   7
BRANCH   6  22
ATOM     22  C   UNL     1     -15.112 -43.219  24.237  1.00  0.00     0.166 C 
ATOM     23  C   UNL     1     -14.782 -44.651  23.908  1.00  0.00     0.094 C 
ATOM     24  O   UNL     1     -14.633 -42.275  23.620  1.00  0.00    -0.294 OA
ENDBRANCH   6  22
BRANCH   4  25
ATOM     25  C   UNL     1     -19.586 -41.791  25.724  1.00  0.00     0.393 C 
BRANCH  25  26
ATOM     26  C   UNL     1     -20.618 -42.864  25.957  1.00  0.00     0.018 A 
ATOM     27  C   UNL     1     -20.503 -44.111  25.323  1.00  0.00     0.010 A 
ATOM     28  C   UNL     1     -21.708 -42.641  26.817  1.00  0.00     0.030 A 
ATOM     29  C   UNL     1     -21.462 -45.107  25.533  1.00  0.00     0.002 A 
ATOM     30  C   UNL     1     -22.661 -43.641  27.020  1.00  0.00     0.041 A 
ATOM     31  C   UNL     1     -22.543 -44.870  26.380  1.00  0.00     0.020 A 
ATOM     32  Cl  UNL     1     -23.990 -43.341  28.067  1.00  0.00    -0.084 Cl
ENDBRANCH  25  26
ENDBRANCH   4  25
TORSDOF 7
ENDMDL
MODEL 8
REMARK VINA RESULT:    -9.955      2.841      5.259
REMARK INTER + INTRA:         -15.105
REMARK INTER:                 -14.511
REMARK INTRA:                  -0.594
REMARK UNBOUND:                -1.368
REMARK SMILES COc1cc2c(cc1O)C(=O)[C@H](Cc1cc[n+](Cc3cccc(Cl)c3)cc1C(C)=O)C2
REMARK SMILES IDX 14 1 15 2 16 3 17 4 26 5 27 6 13 7 12 8 3 9 4 10 8 11 5 12
REMARK SMILES IDX 7 13 6 14 31 15 10 16 11 17 2 18 1 19 9 20 28 22 29 23 30 24
REMARK SMILES IDX 18 25 19 26 20 27 25 28 21 29 23 30 22 31 24 32
REMARK H PARENT 9 21
ROOT
ATOM      1  C   UNL     1     -15.650 -43.174  26.780  1.00  0.00    -0.025 A 
ATOM      2  C   UNL     1     -16.514 -42.959  27.862  1.00  0.00     0.075 A 
ATOM      3  C   UNL     1     -17.793 -42.460  27.653  1.00  0.00     0.308 A 
ATOM      4  N   UNL     1     -18.232 -42.193  26.402  1.00  0.00    -0.200 N 
ATOM      5  C   UNL     1     -17.431 -42.406  25.331  1.00  0.00     0.320 A 
ATOM      6  C   UNL     1     -16.134 -42.896  25.492  1.00  0.00     0.084 A 
ENDROOT
BRANCH   1   7
ATOM      7  C   UNL     1     -14.220 -43.598  27.069  1.00  0.00     0.049 C 
BRANCH   7   8
ATOM      8  C   UNL     1     -14.092 -44.798  28.022  1.00  0.00     0.070 C 
ATOM      9  C   UNL     1     -10.340 -45.583  30.839  1.00  0.00     0.160 A 
ATOM     10  C   UNL     1     -11.553 -44.886  30.811  1.00  0.00     0.055 A 
ATOM     11  C   UNL     1      -9.971 -46.382  29.735  1.00  0.00     0.158 A 
ATOM     12  C   UNL     1     -12.361 -45.005  29.685  1.00  0.00    -0.032 A 
ATOM     13  C   UNL     1     -10.776 -46.510  28.611  1.00  0.00     0.062 A 
ATOM     14  C   UNL     1     -11.963 -45.808  28.621  1.00  0.00     0.025 A 
ATOM     15  C   UNL     1     -13.694 -44.363  29.455  1.00  0.00     0.048 C 
ATOM     16  C   UNL     1     -12.984 -45.743  27.588  1.00  0.00     0.167 C 
ATOM     17  O   UNL     1     -12.936 -46.348  26.528  1.00  0.00    -0.294 OA
BRANCH   9  18
ATOM     18  O   UNL     1      -9.428 -45.574  31.864  1.00  0.00    -0.493 OA
ATOM     19  C   UNL     1      -8.885 -44.310  32.228  1.00  0.00     0.278 C 
ENDBRANCH   9  18
BRANCH  11  20
ATOM     20  O   UNL     1      -8.784 -47.064  29.750  1.00  0.00    -0.504 OA
ATOM     21  H   UNL     1      -9.023 -48.004  29.624  1.00  0.00     0.293 HD
ENDBRANCH  11  20
ENDBRANCH   7   8
ENDBRANCH   1   7
BRANCH   6  22
ATOM     22  C   UNL     1     -15.320 -43.132  24.278  1.00  0.00     0.166 C 
ATOM     23  C   UNL     1     -14.932 -44.546  23.932  1.00  0.00     0.094 C 
ATOM     24  O   UNL     1     -14.970 -42.171  23.603  1.00  0.00    -0.294 OA
ENDBRANCH   6  22
BRANCH   4  25
ATOM     25  C   UNL     1     -19.595 -41.635  26.213  1.00  0.00     0.393 C 
BRANCH  25  26
ATOM     26  C   UNL     1     -20.129 -41.959  24.840  1.00  0.00     0.018 A 
ATOM     27  C   UNL     1     -20.894 -43.117  24.629  1.00  0.00     0.010 A 
ATOM     28  C   UNL     1     -19.880 -41.106  23.751  1.00  0.00     0.030 A 
ATOM     29  C   UNL     1     -21.385 -43.422  23.357  1.00  0.00     0.002 A 
ATOM     30  C   UNL     1     -20.375 -41.419  22.484  1.00  0.00     0.041 A 
ATOM     31  C   UNL     1     -21.123 -42.574  22.283  1.00  0.00     0.020 A 
ATOM     32  Cl  UNL     1     -20.047 -40.366  21.166  1.00  0.00    -0.084 Cl
ENDBRANCH  25  26
ENDBRANCH   4  25
TORSDOF 7
ENDMDL
