MODEL 1
REMARK VINA RESULT:   -11.004      0.000      0.000
REMARK INTER + INTRA:         -15.509
REMARK INTER:                 -14.864
REMARK INTRA:                  -0.646
REMARK UNBOUND:                -0.646
REMARK SMILES COc1ccc(-c2cc(=O)c3ccc(OCC[N@H+]4CC[C@H](C)CC4)cc3o2)cc1
REMARK SMILES IDX 15 1 16 2 17 3 18 4 24 5 19 6 23 7 20 8 21 9 22 11 14 12
REMARK SMILES IDX 13 13 25 14 12 15 26 16 11 17 27 18 9 19 7 20 8 21 10 22
REMARK SMILES IDX 6 23 5 24 28 25 4 26 29 27 3 28 2 29 1 30
REMARK H PARENT 18 10
ROOT
ATOM      1  O   UNL     1     -13.782 -44.304  29.452  1.00  0.00    -0.488 OA
ENDROOT
BRANCH   1   2
ATOM      2  C   UNL     1     -13.423 -45.627  29.853  1.00  0.00     0.290 C 
BRANCH   2   3
ATOM      3  C   UNL     1     -13.096 -45.656  31.350  1.00  0.00     0.304 C 
BRANCH   3   4
ATOM      4  N   UNL     1     -11.633 -45.421  31.680  1.00  0.00    -0.332 N 
ATOM      5  C   UNL     1     -10.680 -46.206  30.809  1.00  0.00     0.262 C 
ATOM      6  C   UNL     1     -11.255 -43.963  31.777  1.00  0.00     0.262 C 
ATOM      7  C   UNL     1      -9.274 -46.103  31.388  1.00  0.00     0.065 C 
ATOM      8  C   UNL     1      -9.852 -43.847  32.361  1.00  0.00     0.065 C 
ATOM      9  C   UNL     1      -8.829 -44.643  31.540  1.00  0.00    -0.003 C 
ATOM     10  H   UNL     1     -11.524 -45.806  32.629  1.00  0.00     0.348 HD
ATOM     11  C   UNL     1      -7.444 -44.562  32.179  1.00  0.00     0.008 C 
ENDBRANCH   3   4
ENDBRANCH   2   3
ENDBRANCH   1   2
BRANCH   1  12
ATOM     12  C   UNL     1     -14.185 -44.080  28.166  1.00  0.00     0.123 A 
ATOM     13  C   UNL     1     -13.462 -44.376  27.008  1.00  0.00     0.047 A 
ATOM     14  C   UNL     1     -15.455 -43.503  28.055  1.00  0.00     0.094 A 
ATOM     15  C   UNL     1     -14.001 -44.082  25.751  1.00  0.00     0.020 A 
ATOM     16  C   UNL     1     -15.995 -43.211  26.801  1.00  0.00     0.142 A 
ATOM     17  C   UNL     1     -15.266 -43.497  25.654  1.00  0.00     0.065 A 
ATOM     18  O   UNL     1     -17.242 -42.644  26.768  1.00  0.00    -0.456 OA
ATOM     19  C   UNL     1     -15.851 -43.176  24.347  1.00  0.00     0.193 A 
ATOM     20  C   UNL     1     -17.800 -42.348  25.532  1.00  0.00     0.138 A 
ATOM     21  C   UNL     1     -17.198 -42.583  24.357  1.00  0.00     0.100 A 
ATOM     22  O   UNL     1     -15.249 -43.380  23.302  1.00  0.00    -0.289 OA
BRANCH  20  23
ATOM     23  C   UNL     1     -19.153 -41.761  25.607  1.00  0.00     0.018 A 
ATOM     24  C   UNL     1     -19.768 -41.575  26.852  1.00  0.00     0.016 A 
ATOM     25  C   UNL     1     -19.844 -41.352  24.457  1.00  0.00     0.016 A 
ATOM     26  C   UNL     1     -21.043 -41.010  26.940  1.00  0.00     0.047 A 
ATOM     27  C   UNL     1     -21.123 -40.786  24.547  1.00  0.00     0.047 A 
ATOM     28  C   UNL     1     -21.729 -40.615  25.791  1.00  0.00     0.118 A 
BRANCH  28  29
ATOM     29  O   UNL     1     -22.965 -40.078  26.019  1.00  0.00    -0.497 OA
ATOM     30  C   UNL     1     -23.331 -39.851  27.374  1.00  0.00     0.278 C 
ENDBRANCH  28  29
ENDBRANCH  20  23
ENDBRANCH   1  12
TORSDOF 6
ENDMDL
MODEL 2
REMARK VINA RESULT:   -10.609      0.961      1.452
REMARK INTER + INTRA:         -14.976
REMARK INTER:                 -14.386
REMARK INTRA:                  -0.590
REMARK UNBOUND:                -0.646
REMARK SMILES COc1ccc(-c2cc(=O)c3ccc(OCC[N@H+]4CC[C@H](C)CC4)cc3o2)cc1
REMARK SMILES IDX 15 1 16 2 17 3 18 4 24 5 19 6 23 7 20 8 21 9 22 11 14 12
REMARK SMILES IDX 13 13 25 14 12 15 26 16 11 17 27 18 9 19 7 20 8 21 10 22
REMARK SMILES IDX 6 23 5 24 28 25 4 26 29 27 3 28 2 29 1 30
REMARK H PARENT 18 10
ROOT
ATOM      1  O   UNL     1     -14.127 -43.989  28.303  1.00  0.00    -0.488 OA
ENDROOT
BRANCH   1   2
ATOM      2  C   UNL     1     -13.390 -45.205  28.433  1.00  0.00     0.290 C 
BRANCH   2   3
ATOM      3  C   UNL     1     -13.160 -45.529  29.914  1.00  0.00     0.304 C 
BRANCH   3   4
ATOM      4  N   UNL     1     -11.816 -45.078  30.457  1.00  0.00    -0.332 N 
ATOM      5  C   UNL     1     -11.879 -43.785  31.237  1.00  0.00     0.262 C 
ATOM      6  C   UNL     1     -11.062 -46.158  31.193  1.00  0.00     0.262 C 
ATOM      7  C   UNL     1     -10.461 -43.296  31.504  1.00  0.00     0.065 C 
ATOM      8  C   UNL     1      -9.639 -45.681  31.461  1.00  0.00     0.065 C 
ATOM      9  C   UNL     1      -9.622 -44.354  32.231  1.00  0.00    -0.003 C 
ATOM     10  H   UNL     1     -11.262 -44.869  29.614  1.00  0.00     0.348 HD
ATOM     11  C   UNL     1      -8.189 -43.866  32.433  1.00  0.00     0.008 C 
ENDBRANCH   3   4
ENDBRANCH   2   3
ENDBRANCH   1   2
BRANCH   1  12
ATOM     12  C   UNL     1     -14.673 -43.662  27.095  1.00  0.00     0.123 A 
ATOM     13  C   UNL     1     -14.061 -43.798  25.846  1.00  0.00     0.047 A 
ATOM     14  C   UNL     1     -15.974 -43.153  27.171  1.00  0.00     0.094 A 
ATOM     15  C   UNL     1     -14.742 -43.413  24.687  1.00  0.00     0.020 A 
ATOM     16  C   UNL     1     -16.656 -42.770  26.014  1.00  0.00     0.142 A 
ATOM     17  C   UNL     1     -16.038 -42.897  24.778  1.00  0.00     0.065 A 
ATOM     18  O   UNL     1     -17.926 -42.278  26.165  1.00  0.00    -0.456 OA
ATOM     19  C   UNL     1     -16.771 -42.482  23.575  1.00  0.00     0.193 A 
ATOM     20  C   UNL     1     -18.624 -41.893  25.028  1.00  0.00     0.138 A 
ATOM     21  C   UNL     1     -18.137 -41.974  23.781  1.00  0.00     0.100 A 
ATOM     22  O   UNL     1     -16.272 -42.545  22.460  1.00  0.00    -0.289 OA
BRANCH  20  23
ATOM     23  C   UNL     1     -19.988 -41.397  25.298  1.00  0.00     0.018 A 
ATOM     24  C   UNL     1     -20.460 -41.327  26.616  1.00  0.00     0.016 A 
ATOM     25  C   UNL     1     -20.833 -40.963  24.266  1.00  0.00     0.016 A 
ATOM     26  C   UNL     1     -21.745 -40.850  26.888  1.00  0.00     0.047 A 
ATOM     27  C   UNL     1     -22.122 -40.485  24.541  1.00  0.00     0.047 A 
ATOM     28  C   UNL     1     -22.583 -40.429  25.855  1.00  0.00     0.118 A 
BRANCH  28  29
ATOM     29  O   UNL     1     -23.811 -39.985  26.259  1.00  0.00    -0.497 OA
ATOM     30  C   UNL     1     -23.841 -38.821  27.075  1.00  0.00     0.278 C 
ENDBRANCH  28  29
ENDBRANCH  20  23
ENDBRANCH   1  12
TORSDOF 6
ENDMDL
MODEL 3
REMARK VINA RESULT:   -10.338      3.404      9.785
REMARK INTER + INTRA:         -14.610
REMARK INTER:                 -13.704
REMARK INTRA:                  -0.906
REMARK UNBOUND:                -0.646
REMARK SMILES COc1ccc(-c2cc(=O)c3ccc(OCC[N@H+]4CC[C@H](C)CC4)cc3o2)cc1
REMARK SMILES IDX 15 1 16 2 17 3 18 4 24 5 19 6 23 7 20 8 21 9 22 11 14 12
REMARK SMILES IDX 13 13 25 14 12 15 26 16 11 17 27 18 9 19 7 20 8 21 10 22
REMARK SMILES IDX 6 23 5 24 28 25 4 26 29 27 3 28 2 29 1 30
REMARK H PARENT 18 10
ROOT
ATOM      1  O   UNL     1     -19.676 -41.630  27.460  1.00  0.00    -0.488 OA
ENDROOT
BRANCH   1   2
ATOM      2  C   UNL     1     -20.938 -41.252  26.909  1.00  0.00     0.290 C 
BRANCH   2   3
ATOM      3  C   UNL     1     -21.988 -42.329  27.205  1.00  0.00     0.304 C 
BRANCH   3   4
ATOM      4  N   UNL     1     -22.023 -43.468  26.202  1.00  0.00    -0.332 N 
ATOM      5  C   UNL     1     -21.311 -44.715  26.673  1.00  0.00     0.262 C 
ATOM      6  C   UNL     1     -23.401 -43.762  25.660  1.00  0.00     0.262 C 
ATOM      7  C   UNL     1     -21.181 -45.685  25.506  1.00  0.00     0.065 C 
ATOM      8  C   UNL     1     -23.282 -44.728  24.487  1.00  0.00     0.065 C 
ATOM      9  C   UNL     1     -22.544 -46.014  24.884  1.00  0.00    -0.003 C 
ATOM     10  H   UNL     1     -21.473 -43.118  25.404  1.00  0.00     0.348 HD
ATOM     11  C   UNL     1     -22.382 -46.938  23.680  1.00  0.00     0.008 C 
ENDBRANCH   3   4
ENDBRANCH   2   3
ENDBRANCH   1   2
BRANCH   1  12
ATOM     12  C   UNL     1     -18.673 -42.029  26.623  1.00  0.00     0.123 A 
ATOM     13  C   UNL     1     -18.700 -42.004  25.227  1.00  0.00     0.047 A 
ATOM     14  C   UNL     1     -17.528 -42.494  27.281  1.00  0.00     0.094 A 
ATOM     15  C   UNL     1     -17.595 -42.454  24.497  1.00  0.00     0.020 A 
ATOM     16  C   UNL     1     -16.424 -42.943  26.553  1.00  0.00     0.142 A 
ATOM     17  C   UNL     1     -16.462 -42.925  25.165  1.00  0.00     0.065 A 
ATOM     18  O   UNL     1     -15.339 -43.387  27.263  1.00  0.00    -0.456 OA
ATOM     19  C   UNL     1     -15.291 -43.407  24.421  1.00  0.00     0.193 A 
ATOM     20  C   UNL     1     -14.229 -43.834  26.561  1.00  0.00     0.138 A 
ATOM     21  C   UNL     1     -14.144 -43.860  25.222  1.00  0.00     0.100 A 
ATOM     22  O   UNL     1     -15.273 -43.441  23.198  1.00  0.00    -0.289 OA
BRANCH  20  23
ATOM     23  C   UNL     1     -13.109 -44.270  27.418  1.00  0.00     0.018 A 
ATOM     24  C   UNL     1     -13.062 -45.587  27.893  1.00  0.00     0.016 A 
ATOM     25  C   UNL     1     -12.060 -43.404  27.759  1.00  0.00     0.016 A 
ATOM     26  C   UNL     1     -12.003 -46.018  28.697  1.00  0.00     0.047 A 
ATOM     27  C   UNL     1     -10.999 -43.837  28.565  1.00  0.00     0.047 A 
ATOM     28  C   UNL     1     -10.968 -45.148  29.039  1.00  0.00     0.118 A 
BRANCH  28  29
ATOM     29  O   UNL     1      -9.997 -45.697  29.829  1.00  0.00    -0.497 OA
ATOM     30  C   UNL     1     -10.392 -46.155  31.116  1.00  0.00     0.278 C 
ENDBRANCH  28  29
ENDBRANCH  20  23
ENDBRANCH   1  12
TORSDOF 6
ENDMDL
MODEL 4
REMARK VINA RESULT:   -10.206      1.564      2.061
REMARK INTER + INTRA:         -14.432
REMARK INTER:                 -13.850
REMARK INTRA:                  -0.582
REMARK UNBOUND:                -0.646
REMARK SMILES COc1ccc(-c2cc(=O)c3ccc(OCC[N@H+]4CC[C@H](C)CC4)cc3o2)cc1
REMARK SMILES IDX 15 1 16 2 17 3 18 4 24 5 19 6 23 7 20 8 21 9 22 11 14 12
REMARK SMILES IDX 13 13 25 14 12 15 26 16 11 17 27 18 9 19 7 20 8 21 10 22
REMARK SMILES IDX 6 23 5 24 28 25 4 26 29 27 3 28 2 29 1 30
REMARK H PARENT 18 10
ROOT
ATOM      1  O   UNL     1     -13.531 -43.655  27.599  1.00  0.00    -0.488 OA
ENDROOT
BRANCH   1   2
ATOM      2  C   UNL     1     -13.359 -45.032  27.935  1.00  0.00     0.290 C 
BRANCH   2   3
ATOM      3  C   UNL     1     -13.226 -45.194  29.454  1.00  0.00     0.304 C 
BRANCH   3   4
ATOM      4  N   UNL     1     -11.796 -45.211  29.964  1.00  0.00    -0.332 N 
ATOM      5  C   UNL     1     -11.230 -43.836  30.234  1.00  0.00     0.262 C 
ATOM      6  C   UNL     1     -11.569 -46.163  31.113  1.00  0.00     0.262 C 
ATOM      7  C   UNL     1      -9.732 -43.955  30.483  1.00  0.00     0.065 C 
ATOM      8  C   UNL     1     -10.072 -46.293  31.367  1.00  0.00     0.065 C 
ATOM      9  C   UNL     1      -9.420 -44.928  31.626  1.00  0.00    -0.003 C 
ATOM     10  H   UNL     1     -11.252 -45.586  29.173  1.00  0.00     0.348 HD
ATOM     11  C   UNL     1      -7.913 -45.077  31.816  1.00  0.00     0.008 C 
ENDBRANCH   3   4
ENDBRANCH   2   3
ENDBRANCH   1   2
BRANCH   1  12
ATOM     12  C   UNL     1     -14.362 -43.315  26.570  1.00  0.00     0.123 A 
ATOM     13  C   UNL     1     -13.996 -43.144  25.233  1.00  0.00     0.047 A 
ATOM     14  C   UNL     1     -15.699 -43.141  26.945  1.00  0.00     0.094 A 
ATOM     15  C   UNL     1     -14.960 -42.787  24.284  1.00  0.00     0.020 A 
ATOM     16  C   UNL     1     -16.661 -42.785  25.998  1.00  0.00     0.142 A 
ATOM     17  C   UNL     1     -16.290 -42.606  24.673  1.00  0.00     0.065 A 
ATOM     18  O   UNL     1     -17.950 -42.629  26.438  1.00  0.00    -0.456 OA
ATOM     19  C   UNL     1     -17.318 -42.226  23.696  1.00  0.00     0.193 A 
ATOM     20  C   UNL     1     -18.925 -42.278  25.514  1.00  0.00     0.138 A 
ATOM     21  C   UNL     1     -18.690 -42.084  24.207  1.00  0.00     0.100 A 
ATOM     22  O   UNL     1     -17.048 -42.028  22.519  1.00  0.00    -0.289 OA
BRANCH  20  23
ATOM     23  C   UNL     1     -20.280 -42.155  26.085  1.00  0.00     0.018 A 
ATOM     24  C   UNL     1     -21.009 -43.306  26.413  1.00  0.00     0.016 A 
ATOM     25  C   UNL     1     -20.863 -40.905  26.339  1.00  0.00     0.016 A 
ATOM     26  C   UNL     1     -22.290 -43.205  26.965  1.00  0.00     0.047 A 
ATOM     27  C   UNL     1     -22.147 -40.806  26.892  1.00  0.00     0.047 A 
ATOM     28  C   UNL     1     -22.867 -41.958  27.205  1.00  0.00     0.118 A 
BRANCH  28  29
ATOM     29  O   UNL     1     -24.121 -42.003  27.747  1.00  0.00    -0.497 OA
ATOM     30  C   UNL     1     -24.611 -43.280  28.136  1.00  0.00     0.278 C 
ENDBRANCH  28  29
ENDBRANCH  20  23
ENDBRANCH   1  12
TORSDOF 6
ENDMDL
MODEL 5
REMARK VINA RESULT:   -10.151      2.865      4.563
REMARK INTER + INTRA:         -14.357
REMARK INTER:                 -13.825
REMARK INTRA:                  -0.532
REMARK UNBOUND:                -0.646
REMARK SMILES COc1ccc(-c2cc(=O)c3ccc(OCC[N@H+]4CC[C@H](C)CC4)cc3o2)cc1
REMARK SMILES IDX 15 1 16 2 17 3 18 4 24 5 19 6 23 7 20 8 21 9 22 11 14 12
REMARK SMILES IDX 13 13 25 14 12 15 26 16 11 17 27 18 9 19 7 20 8 21 10 22
REMARK SMILES IDX 6 23 5 24 28 25 4 26 29 27 3 28 2 29 1 30
REMARK H PARENT 18 10
ROOT
ATOM      1  O   UNL     1     -14.766 -43.344  25.624  1.00  0.00    -0.488 OA
ENDROOT
BRANCH   1   2
ATOM      2  C   UNL     1     -13.818 -43.429  26.688  1.00  0.00     0.290 C 
BRANCH   2   3
ATOM      3  C   UNL     1     -13.562 -44.896  27.054  1.00  0.00     0.304 C 
BRANCH   3   4
ATOM      4  N   UNL     1     -12.499 -45.104  28.118  1.00  0.00    -0.332 N 
ATOM      5  C   UNL     1     -13.020 -44.978  29.531  1.00  0.00     0.262 C 
ATOM      6  C   UNL     1     -11.673 -46.351  27.918  1.00  0.00     0.262 C 
ATOM      7  C   UNL     1     -11.842 -44.943  30.495  1.00  0.00     0.065 C 
ATOM      8  C   UNL     1     -10.486 -46.324  28.875  1.00  0.00     0.065 C 
ATOM      9  C   UNL     1     -10.938 -46.171  30.334  1.00  0.00    -0.003 C 
ATOM     10  H   UNL     1     -11.854 -44.312  27.987  1.00  0.00     0.348 HD
ATOM     11  C   UNL     1      -9.732 -46.084  31.266  1.00  0.00     0.008 C 
ENDBRANCH   3   4
ENDBRANCH   2   3
ENDBRANCH   1   2
BRANCH   1  12
ATOM     12  C   UNL     1     -16.032 -42.905  25.889  1.00  0.00     0.123 A 
ATOM     13  C   UNL     1     -16.641 -42.840  27.144  1.00  0.00     0.047 A 
ATOM     14  C   UNL     1     -16.742 -42.485  24.758  1.00  0.00     0.094 A 
ATOM     15  C   UNL     1     -17.953 -42.373  27.263  1.00  0.00     0.020 A 
ATOM     16  C   UNL     1     -18.052 -42.016  24.876  1.00  0.00     0.142 A 
ATOM     17  C   UNL     1     -18.655 -41.965  26.125  1.00  0.00     0.065 A 
ATOM     18  O   UNL     1     -18.687 -41.624  23.726  1.00  0.00    -0.456 OA
ATOM     19  C   UNL     1     -20.035 -41.475  26.224  1.00  0.00     0.193 A 
ATOM     20  C   UNL     1     -19.988 -41.152  23.819  1.00  0.00     0.138 A 
ATOM     21  C   UNL     1     -20.673 -41.050  24.968  1.00  0.00     0.100 A 
ATOM     22  O   UNL     1     -20.629 -41.430  27.292  1.00  0.00    -0.289 OA
BRANCH  20  23
ATOM     23  C   UNL     1     -20.572 -40.737  22.528  1.00  0.00     0.018 A 
ATOM     24  C   UNL     1     -20.251 -39.487  21.983  1.00  0.00     0.016 A 
ATOM     25  C   UNL     1     -21.433 -41.575  21.804  1.00  0.00     0.016 A 
ATOM     26  C   UNL     1     -20.787 -39.084  20.757  1.00  0.00     0.047 A 
ATOM     27  C   UNL     1     -21.970 -41.170  20.574  1.00  0.00     0.047 A 
ATOM     28  C   UNL     1     -21.650 -39.920  20.047  1.00  0.00     0.118 A 
BRANCH  28  29
ATOM     29  O   UNL     1     -22.101 -39.405  18.864  1.00  0.00    -0.497 OA
ATOM     30  C   UNL     1     -23.287 -39.972  18.323  1.00  0.00     0.278 C 
ENDBRANCH  28  29
ENDBRANCH  20  23
ENDBRANCH   1  12
TORSDOF 6
ENDMDL
MODEL 6
REMARK VINA RESULT:    -9.798      3.135     10.491
REMARK INTER + INTRA:         -13.881
REMARK INTER:                 -13.346
REMARK INTRA:                  -0.535
REMARK UNBOUND:                -0.646
REMARK SMILES COc1ccc(-c2cc(=O)c3ccc(OCC[N@H+]4CC[C@H](C)CC4)cc3o2)cc1
REMARK SMILES IDX 15 1 16 2 17 3 18 4 24 5 19 6 23 7 20 8 21 9 22 11 14 12
REMARK SMILES IDX 13 13 25 14 12 15 26 16 11 17 27 18 9 19 7 20 8 21 10 22
REMARK SMILES IDX 6 23 5 24 28 25 4 26 29 27 3 28 2 29 1 30
REMARK H PARENT 18 10
ROOT
ATOM      1  O   UNL     1     -20.130 -41.653  27.280  1.00  0.00    -0.488 OA
ENDROOT
BRANCH   1   2
ATOM      2  C   UNL     1     -21.231 -40.885  26.793  1.00  0.00     0.290 C 
BRANCH   2   3
ATOM      3  C   UNL     1     -22.554 -41.586  27.126  1.00  0.00     0.304 C 
BRANCH   3   4
ATOM      4  N   UNL     1     -23.445 -40.825  28.091  1.00  0.00    -0.332 N 
ATOM      5  C   UNL     1     -23.743 -39.409  27.655  1.00  0.00     0.262 C 
ATOM      6  C   UNL     1     -24.690 -41.577  28.494  1.00  0.00     0.262 C 
ATOM      7  C   UNL     1     -24.413 -38.665  28.803  1.00  0.00     0.065 C 
ATOM      8  C   UNL     1     -25.366 -40.844  29.647  1.00  0.00     0.065 C 
ATOM      9  C   UNL     1     -25.678 -39.386  29.286  1.00  0.00    -0.003 C 
ATOM     10  H   UNL     1     -22.875 -40.739  28.945  1.00  0.00     0.348 HD
ATOM     11  C   UNL     1     -26.298 -38.656  30.476  1.00  0.00     0.008 C 
ENDBRANCH   3   4
ENDBRANCH   2   3
ENDBRANCH   1   2
BRANCH   1  12
ATOM     12  C   UNL     1     -19.115 -41.982  26.428  1.00  0.00     0.123 A 
ATOM     13  C   UNL     1     -19.161 -41.949  25.032  1.00  0.00     0.047 A 
ATOM     14  C   UNL     1     -17.934 -42.379  27.068  1.00  0.00     0.094 A 
ATOM     15  C   UNL     1     -18.039 -42.324  24.286  1.00  0.00     0.020 A 
ATOM     16  C   UNL     1     -16.814 -42.751  26.323  1.00  0.00     0.142 A 
ATOM     17  C   UNL     1     -16.870 -42.727  24.937  1.00  0.00     0.065 A 
ATOM     18  O   UNL     1     -15.694 -43.131  27.017  1.00  0.00    -0.456 OA
ATOM     19  C   UNL     1     -15.681 -43.129  24.174  1.00  0.00     0.193 A 
ATOM     20  C   UNL     1     -14.567 -43.502  26.297  1.00  0.00     0.138 A 
ATOM     21  C   UNL     1     -14.497 -43.513  24.958  1.00  0.00     0.100 A 
ATOM     22  O   UNL     1     -15.676 -43.152  22.951  1.00  0.00    -0.289 OA
BRANCH  20  23
ATOM     23  C   UNL     1     -13.411 -43.872  27.138  1.00  0.00     0.018 A 
ATOM     24  C   UNL     1     -13.400 -45.100  27.812  1.00  0.00     0.016 A 
ATOM     25  C   UNL     1     -12.293 -43.034  27.266  1.00  0.00     0.016 A 
ATOM     26  C   UNL     1     -12.308 -45.469  28.603  1.00  0.00     0.047 A 
ATOM     27  C   UNL     1     -11.199 -43.406  28.060  1.00  0.00     0.047 A 
ATOM     28  C   UNL     1     -11.204 -44.626  28.734  1.00  0.00     0.118 A 
BRANCH  28  29
ATOM     29  O   UNL     1     -10.208 -45.108  29.534  1.00  0.00    -0.497 OA
ATOM     30  C   UNL     1      -9.381 -44.151  30.185  1.00  0.00     0.278 C 
ENDBRANCH  28  29
ENDBRANCH  20  23
ENDBRANCH   1  12
TORSDOF 6
ENDMDL
MODEL 7
REMARK VINA RESULT:    -9.774      2.769      4.850
REMARK INTER + INTRA:         -13.848
REMARK INTER:                 -13.320
REMARK INTRA:                  -0.528
REMARK UNBOUND:                -0.646
REMARK SMILES COc1ccc(-c2cc(=O)c3ccc(OCC[N@H+]4CC[C@H](C)CC4)cc3o2)cc1
REMARK SMILES IDX 15 1 16 2 17 3 18 4 24 5 19 6 23 7 20 8 21 9 22 11 14 12
REMARK SMILES IDX 13 13 25 14 12 15 26 16 11 17 27 18 9 19 7 20 8 21 10 22
REMARK SMILES IDX 6 23 5 24 28 25 4 26 29 27 3 28 2 29 1 30
REMARK H PARENT 18 10
ROOT
ATOM      1  O   UNL     1      -9.450 -43.068  30.031  1.00  0.00    -0.488 OA
ENDROOT
BRANCH   1   2
ATOM      2  C   UNL     1      -8.486 -43.540  30.971  1.00  0.00     0.290 C 
BRANCH   2   3
ATOM      3  C   UNL     1      -9.174 -43.942  32.281  1.00  0.00     0.304 C 
BRANCH   3   4
ATOM      4  N   UNL     1     -10.566 -43.362  32.465  1.00  0.00    -0.332 N 
ATOM      5  C   UNL     1     -11.677 -44.340  32.160  1.00  0.00     0.262 C 
ATOM      6  C   UNL     1     -10.764 -42.659  33.785  1.00  0.00     0.262 C 
ATOM      7  C   UNL     1     -13.003 -43.591  32.121  1.00  0.00     0.065 C 
ATOM      8  C   UNL     1     -12.086 -41.901  33.756  1.00  0.00     0.065 C 
ATOM      9  C   UNL     1     -13.263 -42.828  33.426  1.00  0.00    -0.003 C 
ATOM     10  H   UNL     1     -10.631 -42.632  31.741  1.00  0.00     0.348 HD
ATOM     11  C   UNL     1     -14.566 -42.037  33.341  1.00  0.00     0.008 C 
ENDBRANCH   3   4
ENDBRANCH   2   3
ENDBRANCH   1   2
BRANCH   1  12
ATOM     12  C   UNL     1     -10.164 -43.970  29.293  1.00  0.00     0.123 A 
ATOM     13  C   UNL     1      -9.894 -45.335  29.167  1.00  0.00     0.047 A 
ATOM     14  C   UNL     1     -11.265 -43.422  28.624  1.00  0.00     0.094 A 
ATOM     15  C   UNL     1     -10.712 -46.139  28.367  1.00  0.00     0.020 A 
ATOM     16  C   UNL     1     -12.082 -44.225  27.826  1.00  0.00     0.142 A 
ATOM     17  C   UNL     1     -11.802 -45.578  27.697  1.00  0.00     0.065 A 
ATOM     18  O   UNL     1     -13.140 -43.620  27.199  1.00  0.00    -0.456 OA
ATOM     19  C   UNL     1     -12.672 -46.401  26.847  1.00  0.00     0.193 A 
ATOM     20  C   UNL     1     -13.968 -44.399  26.403  1.00  0.00     0.138 A 
ATOM     21  C   UNL     1     -13.804 -45.716  26.206  1.00  0.00     0.100 A 
ATOM     22  O   UNL     1     -12.462 -47.594  26.673  1.00  0.00    -0.289 OA
BRANCH  20  23
ATOM     23  C   UNL     1     -15.088 -43.656  25.791  1.00  0.00     0.018 A 
ATOM     24  C   UNL     1     -15.151 -43.505  24.400  1.00  0.00     0.016 A 
ATOM     25  C   UNL     1     -16.122 -43.109  26.566  1.00  0.00     0.016 A 
ATOM     26  C   UNL     1     -16.210 -42.814  23.805  1.00  0.00     0.047 A 
ATOM     27  C   UNL     1     -17.183 -42.416  25.968  1.00  0.00     0.047 A 
ATOM     28  C   UNL     1     -17.229 -42.264  24.583  1.00  0.00     0.118 A 
BRANCH  28  29
ATOM     29  O   UNL     1     -18.203 -41.616  23.876  1.00  0.00    -0.497 OA
ATOM     30  C   UNL     1     -17.898 -41.262  22.532  1.00  0.00     0.278 C 
ENDBRANCH  28  29
ENDBRANCH  20  23
ENDBRANCH   1  12
TORSDOF 6
ENDMDL
MODEL 8
REMARK VINA RESULT:    -9.769      2.054      2.831
REMARK INTER + INTRA:         -13.842
REMARK INTER:                 -13.312
REMARK INTRA:                  -0.530
REMARK UNBOUND:                -0.646
REMARK SMILES COc1ccc(-c2cc(=O)c3ccc(OCC[N@H+]4CC[C@H](C)CC4)cc3o2)cc1
REMARK SMILES IDX 15 1 16 2 17 3 18 4 24 5 19 6 23 7 20 8 21 9 22 11 14 12
REMARK SMILES IDX 13 13 25 14 12 15 26 16 11 17 27 18 9 19 7 20 8 21 10 22
REMARK SMILES IDX 6 23 5 24 28 25 4 26 29 27 3 28 2 29 1 30
REMARK H PARENT 18 10
ROOT
ATOM      1  O   UNL     1     -14.848 -43.903  27.258  1.00  0.00    -0.488 OA
ENDROOT
BRANCH   1   2
ATOM      2  C   UNL     1     -13.484 -44.171  27.581  1.00  0.00     0.290 C 
BRANCH   2   3
ATOM      3  C   UNL     1     -13.392 -45.353  28.553  1.00  0.00     0.304 C 
BRANCH   3   4
ATOM      4  N   UNL     1     -12.062 -45.473  29.276  1.00  0.00    -0.332 N 
ATOM      5  C   UNL     1     -12.197 -45.638  30.772  1.00  0.00     0.262 C 
ATOM      6  C   UNL     1     -11.126 -46.489  28.667  1.00  0.00     0.262 C 
ATOM      7  C   UNL     1     -10.824 -45.485  31.415  1.00  0.00     0.065 C 
ATOM      8  C   UNL     1      -9.747 -46.341  29.300  1.00  0.00     0.065 C 
ATOM      9  C   UNL     1      -9.807 -46.472  30.827  1.00  0.00    -0.003 C 
ATOM     10  H   UNL     1     -11.616 -44.556  29.136  1.00  0.00     0.348 HD
ATOM     11  C   UNL     1      -8.426 -46.259  31.443  1.00  0.00     0.008 C 
ENDBRANCH   3   4
ENDBRANCH   2   3
ENDBRANCH   1   2
BRANCH   1  12
ATOM     12  C   UNL     1     -15.149 -43.299  26.071  1.00  0.00     0.123 A 
ATOM     13  C   UNL     1     -14.243 -42.944  25.069  1.00  0.00     0.047 A 
ATOM     14  C   UNL     1     -16.512 -43.039  25.888  1.00  0.00     0.094 A 
ATOM     15  C   UNL     1     -14.697 -42.321  23.902  1.00  0.00     0.020 A 
ATOM     16  C   UNL     1     -16.967 -42.419  24.723  1.00  0.00     0.142 A 
ATOM     17  C   UNL     1     -16.060 -42.058  23.736  1.00  0.00     0.065 A 
ATOM     18  O   UNL     1     -18.314 -42.193  24.613  1.00  0.00    -0.456 OA
ATOM     19  C   UNL     1     -16.560 -41.402  22.522  1.00  0.00     0.193 A 
ATOM     20  C   UNL     1     -18.790 -41.581  23.462  1.00  0.00     0.138 A 
ATOM     21  C   UNL     1     -18.013 -41.193  22.439  1.00  0.00     0.100 A 
ATOM     22  O   UNL     1     -15.807 -41.038  21.628  1.00  0.00    -0.289 OA
BRANCH  20  23
ATOM     23  C   UNL     1     -20.255 -41.403  23.436  1.00  0.00     0.018 A 
ATOM     24  C   UNL     1     -20.809 -40.236  22.892  1.00  0.00     0.016 A 
ATOM     25  C   UNL     1     -21.127 -42.389  23.920  1.00  0.00     0.016 A 
ATOM     26  C   UNL     1     -22.195 -40.058  22.850  1.00  0.00     0.047 A 
ATOM     27  C   UNL     1     -22.516 -42.209  23.877  1.00  0.00     0.047 A 
ATOM     28  C   UNL     1     -23.055 -41.040  23.343  1.00  0.00     0.118 A 
BRANCH  28  29
ATOM     29  O   UNL     1     -24.385 -40.739  23.240  1.00  0.00    -0.497 OA
ATOM     30  C   UNL     1     -24.750 -39.370  23.369  1.00  0.00     0.278 C 
ENDBRANCH  28  29
ENDBRANCH  20  23
ENDBRANCH   1  12
TORSDOF 6
ENDMDL
MODEL 9
REMARK VINA RESULT:    -9.597      3.136     10.246
REMARK INTER + INTRA:         -13.609
REMARK INTER:                 -12.745
REMARK INTRA:                  -0.864
REMARK UNBOUND:                -0.646
REMARK SMILES COc1ccc(-c2cc(=O)c3ccc(OCC[N@H+]4CC[C@H](C)CC4)cc3o2)cc1
REMARK SMILES IDX 15 1 16 2 17 3 18 4 24 5 19 6 23 7 20 8 21 9 22 11 14 12
REMARK SMILES IDX 13 13 25 14 12 15 26 16 11 17 27 18 9 19 7 20 8 21 10 22
REMARK SMILES IDX 6 23 5 24 28 25 4 26 29 27 3 28 2 29 1 30
REMARK H PARENT 18 10
ROOT
ATOM      1  O   UNL     1     -19.893 -42.262  27.541  1.00  0.00    -0.488 OA
ENDROOT
BRANCH   1   2
ATOM      2  C   UNL     1     -21.062 -43.037  27.277  1.00  0.00     0.290 C 
BRANCH   2   3
ATOM      3  C   UNL     1     -22.251 -42.117  26.976  1.00  0.00     0.304 C 
BRANCH   3   4
ATOM      4  N   UNL     1     -22.510 -41.883  25.499  1.00  0.00    -0.332 N 
ATOM      5  C   UNL     1     -21.993 -40.557  24.993  1.00  0.00     0.262 C 
ATOM      6  C   UNL     1     -22.096 -43.036  24.617  1.00  0.00     0.262 C 
ATOM      7  C   UNL     1     -22.531 -40.315  23.588  1.00  0.00     0.065 C 
ATOM      8  C   UNL     1     -22.634 -42.808  23.209  1.00  0.00     0.065 C 
ATOM      9  C   UNL     1     -22.169 -41.463  22.636  1.00  0.00    -0.003 C 
ATOM     10  H   UNL     1     -23.536 -41.827  25.429  1.00  0.00     0.348 HD
ATOM     11  C   UNL     1     -22.770 -41.229  21.252  1.00  0.00     0.008 C 
ENDBRANCH   3   4
ENDBRANCH   2   3
ENDBRANCH   1   2
BRANCH   1  12
ATOM     12  C   UNL     1     -18.834 -42.331  26.681  1.00  0.00     0.123 A 
ATOM     13  C   UNL     1     -18.860 -42.052  25.313  1.00  0.00     0.047 A 
ATOM     14  C   UNL     1     -17.630 -42.718  27.282  1.00  0.00     0.094 A 
ATOM     15  C   UNL     1     -17.693 -42.173  24.552  1.00  0.00     0.020 A 
ATOM     16  C   UNL     1     -16.465 -42.837  26.523  1.00  0.00     0.142 A 
ATOM     17  C   UNL     1     -16.499 -42.569  25.162  1.00  0.00     0.065 A 
ATOM     18  O   UNL     1     -15.324 -43.223  27.177  1.00  0.00    -0.456 OA
ATOM     19  C   UNL     1     -15.263 -42.708  24.382  1.00  0.00     0.193 A 
ATOM     20  C   UNL     1     -14.152 -43.346  26.444  1.00  0.00     0.138 A 
ATOM     21  C   UNL     1     -14.058 -43.108  25.126  1.00  0.00     0.100 A 
ATOM     22  O   UNL     1     -15.234 -42.510  23.175  1.00  0.00    -0.289 OA
BRANCH  20  23
ATOM     23  C   UNL     1     -12.978 -43.745  27.245  1.00  0.00     0.018 A 
ATOM     24  C   UNL     1     -11.920 -42.847  27.433  1.00  0.00     0.016 A 
ATOM     25  C   UNL     1     -12.897 -45.005  27.857  1.00  0.00     0.016 A 
ATOM     26  C   UNL     1     -10.807 -43.207  28.199  1.00  0.00     0.047 A 
ATOM     27  C   UNL     1     -11.780 -45.364  28.624  1.00  0.00     0.047 A 
ATOM     28  C   UNL     1     -10.729 -44.466  28.795  1.00  0.00     0.118 A 
BRANCH  28  29
ATOM     29  O   UNL     1      -9.588 -44.687  29.516  1.00  0.00    -0.497 OA
ATOM     30  C   UNL     1      -8.820 -43.546  29.877  1.00  0.00     0.278 C 
ENDBRANCH  28  29
ENDBRANCH  20  23
ENDBRANCH   1  12
TORSDOF 6
ENDMDL
