MODEL 1
REMARK VINA RESULT:   -11.687      0.000      0.000
REMARK INTER + INTRA:         -15.728
REMARK INTER:                 -15.444
REMARK INTRA:                  -0.284
REMARK UNBOUND:                -0.284
REMARK SMILES O=c1c2ccccc2nc(O)n1CC[C@H]1CC[N@@H+](Cc2ccccc2)CC1
REMARK SMILES IDX 13 1 12 2 10 3 9 4 8 5 2 6 7 7 3 8 6 9 4 10 5 11 1 12 11 13
REMARK SMILES IDX 14 15 15 16 16 17 27 18 17 19 26 20 18 21 19 23 20 24 21 25
REMARK SMILES IDX 25 26 22 27 24 28 23 29
REMARK H PARENT 11 14 18 22
ROOT
ATOM      1  C   UNL     1     -13.975 -43.380  26.606  1.00  0.00     0.131 C 
ENDROOT
BRANCH   1   2
ATOM      2  N   UNL     1     -15.312 -43.054  26.127  1.00  0.00    -0.262 N 
ATOM      3  C   UNL     1     -15.635 -43.128  24.799  1.00  0.00     0.297 A 
ATOM      4  N   UNL     1     -16.778 -42.875  24.271  1.00  0.00    -0.197 NA
ATOM      5  C   UNL     1     -17.804 -42.478  25.142  1.00  0.00     0.081 A 
ATOM      6  C   UNL     1     -16.293 -42.755  27.063  1.00  0.00     0.264 A 
ATOM      7  C   UNL     1     -19.054 -42.151  24.611  1.00  0.00     0.029 A 
ATOM      8  C   UNL     1     -17.623 -42.406  26.524  1.00  0.00     0.066 A 
ATOM      9  C   UNL     1     -20.102 -41.761  25.449  1.00  0.00     0.002 A 
ATOM     10  C   UNL     1     -18.666 -42.019  27.373  1.00  0.00     0.016 A 
ATOM     11  C   UNL     1     -19.908 -41.695  26.830  1.00  0.00     0.001 A 
ATOM     12  O   UNL     1     -16.110 -42.795  28.277  1.00  0.00    -0.268 OA
BRANCH   3  13
ATOM     13  O   UNL     1     -14.653 -43.518  23.968  1.00  0.00    -0.480 OA
ATOM     14  H   UNL     1     -13.949 -43.875  24.541  1.00  0.00     0.296 HD
ENDBRANCH   3  13
ENDBRANCH   1   2
BRANCH   1  15
ATOM     15  C   UNL     1     -13.995 -44.644  27.477  1.00  0.00     0.026 C 
BRANCH  15  16
ATOM     16  C   UNL     1     -12.630 -45.360  27.556  1.00  0.00     0.002 C 
ATOM     17  C   UNL     1     -12.608 -46.524  28.562  1.00  0.00     0.065 C 
ATOM     18  C   UNL     1     -11.510 -44.365  27.908  1.00  0.00     0.065 C 
ATOM     19  C   UNL     1     -12.654 -46.058  30.014  1.00  0.00     0.262 C 
ATOM     20  C   UNL     1     -11.561 -43.902  29.360  1.00  0.00     0.262 C 
ATOM     21  N   UNL     1     -11.512 -45.108  30.266  1.00  0.00    -0.331 N 
ATOM     22  H   UNL     1     -10.653 -45.615  30.022  1.00  0.00     0.348 HD
BRANCH  21  23
ATOM     23  C   UNL     1     -11.335 -44.753  31.732  1.00  0.00     0.299 C 
BRANCH  23  24
ATOM     24  C   UNL     1      -9.950 -44.332  32.143  1.00  0.00     0.006 A 
ATOM     25  C   UNL     1      -8.823 -45.024  31.674  1.00  0.00     0.009 A 
ATOM     26  C   UNL     1      -9.761 -43.239  33.003  1.00  0.00     0.009 A 
ATOM     27  C   UNL     1      -7.538 -44.619  32.041  1.00  0.00     0.001 A 
ATOM     28  C   UNL     1      -8.475 -42.837  33.368  1.00  0.00     0.001 A 
ATOM     29  C   UNL     1      -7.366 -43.524  32.885  1.00  0.00     0.000 A 
ENDBRANCH  23  24
ENDBRANCH  21  23
ENDBRANCH  15  16
ENDBRANCH   1  15
TORSDOF 6
ENDMDL
MODEL 2
REMARK VINA RESULT:   -11.211      0.889      2.228
REMARK INTER + INTRA:         -15.100
REMARK INTER:                 -14.740
REMARK INTRA:                  -0.360
REMARK UNBOUND:                -0.284
REMARK SMILES O=c1c2ccccc2nc(O)n1CC[C@H]1CC[N@@H+](Cc2ccccc2)CC1
REMARK SMILES IDX 13 1 12 2 10 3 9 4 8 5 2 6 7 7 3 8 6 9 4 10 5 11 1 12 11 13
REMARK SMILES IDX 14 15 15 16 16 17 27 18 17 19 26 20 18 21 19 23 20 24 21 25
REMARK SMILES IDX 25 26 22 27 24 28 23 29
REMARK H PARENT 11 14 18 22
ROOT
ATOM      1  C   UNL     1     -14.244 -43.128  26.743  1.00  0.00     0.131 C 
ENDROOT
BRANCH   1   2
ATOM      2  N   UNL     1     -15.596 -42.866  26.265  1.00  0.00    -0.262 N 
ATOM      3  C   UNL     1     -16.626 -42.617  27.132  1.00  0.00     0.297 A 
ATOM      4  N   UNL     1     -17.846 -42.365  26.823  1.00  0.00    -0.197 NA
ATOM      5  C   UNL     1     -18.162 -42.347  25.455  1.00  0.00     0.081 A 
ATOM      6  C   UNL     1     -15.807 -42.778  24.896  1.00  0.00     0.264 A 
ATOM      7  C   UNL     1     -19.485 -42.119  25.069  1.00  0.00     0.029 A 
ATOM      8  C   UNL     1     -17.198 -42.539  24.464  1.00  0.00     0.066 A 
ATOM      9  C   UNL     1     -19.834 -42.084  23.717  1.00  0.00     0.002 A 
ATOM     10  C   UNL     1     -17.536 -42.503  23.107  1.00  0.00     0.016 A 
ATOM     11  C   UNL     1     -18.860 -42.275  22.736  1.00  0.00     0.001 A 
ATOM     12  O   UNL     1     -14.908 -42.863  24.063  1.00  0.00    -0.268 OA
BRANCH   3  13
ATOM     13  O   UNL     1     -16.319 -42.626  28.440  1.00  0.00    -0.480 OA
ATOM     14  H   UNL     1     -16.989 -42.064  28.872  1.00  0.00     0.296 HD
ENDBRANCH   3  13
ENDBRANCH   1   2
BRANCH   1  15
ATOM     15  C   UNL     1     -14.160 -44.496  27.434  1.00  0.00     0.026 C 
BRANCH  15  16
ATOM     16  C   UNL     1     -12.768 -45.153  27.337  1.00  0.00     0.002 C 
ATOM     17  C   UNL     1     -12.644 -46.452  28.152  1.00  0.00     0.065 C 
ATOM     18  C   UNL     1     -11.667 -44.171  27.778  1.00  0.00     0.065 C 
ATOM     19  C   UNL     1     -12.627 -46.209  29.659  1.00  0.00     0.262 C 
ATOM     20  C   UNL     1     -11.654 -43.932  29.284  1.00  0.00     0.262 C 
ATOM     21  N   UNL     1     -11.509 -45.255  29.994  1.00  0.00    -0.331 N 
ATOM     22  H   UNL     1     -10.646 -45.681  29.634  1.00  0.00     0.348 HD
BRANCH  21  23
ATOM     23  C   UNL     1     -11.263 -45.115  31.486  1.00  0.00     0.299 C 
BRANCH  23  24
ATOM     24  C   UNL     1      -9.879 -44.681  31.885  1.00  0.00     0.006 A 
ATOM     25  C   UNL     1      -9.682 -43.503  32.622  1.00  0.00     0.009 A 
ATOM     26  C   UNL     1      -8.759 -45.450  31.529  1.00  0.00     0.009 A 
ATOM     27  C   UNL     1      -8.398 -43.115  33.009  1.00  0.00     0.001 A 
ATOM     28  C   UNL     1      -7.476 -45.058  31.918  1.00  0.00     0.001 A 
ATOM     29  C   UNL     1      -7.298 -43.894  32.659  1.00  0.00     0.000 A 
ENDBRANCH  23  24
ENDBRANCH  21  23
ENDBRANCH  15  16
ENDBRANCH   1  15
TORSDOF 6
ENDMDL
MODEL 3
REMARK VINA RESULT:   -10.753      1.563      2.318
REMARK INTER + INTRA:         -14.494
REMARK INTER:                 -14.018
REMARK INTRA:                  -0.475
REMARK UNBOUND:                -0.284
REMARK SMILES O=c1c2ccccc2nc(O)n1CC[C@H]1CC[N@@H+](Cc2ccccc2)CC1
REMARK SMILES IDX 13 1 12 2 10 3 9 4 8 5 2 6 7 7 3 8 6 9 4 10 5 11 1 12 11 13
REMARK SMILES IDX 14 15 15 16 16 17 27 18 17 19 26 20 18 21 19 23 20 24 21 25
REMARK SMILES IDX 25 26 22 27 24 28 23 29
REMARK H PARENT 11 14 18 22
ROOT
ATOM      1  C   UNL     1     -14.272 -43.002  26.551  1.00  0.00     0.131 C 
ENDROOT
BRANCH   1   2
ATOM      2  N   UNL     1     -15.632 -42.773  26.080  1.00  0.00    -0.262 N 
ATOM      3  C   UNL     1     -15.960 -42.890  24.756  1.00  0.00     0.297 A 
ATOM      4  N   UNL     1     -17.121 -42.722  24.236  1.00  0.00    -0.197 NA
ATOM      5  C   UNL     1     -18.164 -42.377  25.110  1.00  0.00     0.081 A 
ATOM      6  C   UNL     1     -16.623 -42.523  27.020  1.00  0.00     0.264 A 
ATOM      7  C   UNL     1     -19.437 -42.142  24.585  1.00  0.00     0.029 A 
ATOM      8  C   UNL     1     -17.977 -42.270  26.489  1.00  0.00     0.066 A 
ATOM      9  C   UNL     1     -20.501 -41.807  25.427  1.00  0.00     0.002 A 
ATOM     10  C   UNL     1     -19.035 -41.938  27.341  1.00  0.00     0.016 A 
ATOM     11  C   UNL     1     -20.301 -41.705  26.804  1.00  0.00     0.001 A 
ATOM     12  O   UNL     1     -16.427 -42.529  28.233  1.00  0.00    -0.268 OA
BRANCH   3  13
ATOM     13  O   UNL     1     -14.962 -43.229  23.923  1.00  0.00    -0.480 OA
ATOM     14  H   UNL     1     -14.374 -42.453  23.886  1.00  0.00     0.296 HD
ENDBRANCH   3  13
ENDBRANCH   1   2
BRANCH   1  15
ATOM     15  C   UNL     1     -14.143 -44.383  27.209  1.00  0.00     0.026 C 
BRANCH  15  16
ATOM     16  C   UNL     1     -12.717 -44.969  27.141  1.00  0.00     0.002 C 
ATOM     17  C   UNL     1     -12.592 -46.354  27.799  1.00  0.00     0.065 C 
ATOM     18  C   UNL     1     -11.700 -44.008  27.784  1.00  0.00     0.065 C 
ATOM     19  C   UNL     1     -12.696 -46.302  29.321  1.00  0.00     0.262 C 
ATOM     20  C   UNL     1     -11.809 -43.960  29.305  1.00  0.00     0.262 C 
ATOM     21  N   UNL     1     -11.652 -45.355  29.856  1.00  0.00    -0.331 N 
ATOM     22  H   UNL     1     -10.746 -45.699  29.516  1.00  0.00     0.348 HD
BRANCH  21  23
ATOM     23  C   UNL     1     -11.524 -45.394  31.369  1.00  0.00     0.299 C 
BRANCH  23  24
ATOM     24  C   UNL     1     -12.295 -44.343  32.121  1.00  0.00     0.006 A 
ATOM     25  C   UNL     1     -13.691 -44.428  32.241  1.00  0.00     0.009 A 
ATOM     26  C   UNL     1     -11.630 -43.259  32.717  1.00  0.00     0.009 A 
ATOM     27  C   UNL     1     -14.401 -43.462  32.956  1.00  0.00     0.001 A 
ATOM     28  C   UNL     1     -12.344 -42.295  33.432  1.00  0.00     0.001 A 
ATOM     29  C   UNL     1     -13.727 -42.399  33.553  1.00  0.00     0.000 A 
ENDBRANCH  23  24
ENDBRANCH  21  23
ENDBRANCH  15  16
ENDBRANCH   1  15
TORSDOF 6
ENDMDL
MODEL 4
REMARK VINA RESULT:   -10.748      2.919      9.131
REMARK INTER + INTRA:         -14.488
REMARK INTER:                 -14.885
REMARK INTRA:                   0.397
REMARK UNBOUND:                -0.284
REMARK SMILES O=c1c2ccccc2nc(O)n1CC[C@H]1CC[N@@H+](Cc2ccccc2)CC1
REMARK SMILES IDX 13 1 12 2 10 3 9 4 8 5 2 6 7 7 3 8 6 9 4 10 5 11 1 12 11 13
REMARK SMILES IDX 14 15 15 16 16 17 27 18 17 19 26 20 18 21 19 23 20 24 21 25
REMARK SMILES IDX 25 26 22 27 24 28 23 29
REMARK H PARENT 11 14 18 22
ROOT
ATOM      1  C   UNL     1      -9.140 -46.412  30.709  1.00  0.00     0.131 C 
ENDROOT
BRANCH   1   2
ATOM      2  N   UNL     1      -8.994 -45.285  31.620  1.00  0.00    -0.262 N 
ATOM      3  C   UNL     1      -7.762 -44.782  31.945  1.00  0.00     0.297 A 
ATOM      4  N   UNL     1      -7.519 -43.791  32.725  1.00  0.00    -0.197 NA
ATOM      5  C   UNL     1      -8.627 -43.158  33.310  1.00  0.00     0.081 A 
ATOM      6  C   UNL     1     -10.142 -44.659  32.086  1.00  0.00     0.264 A 
ATOM      7  C   UNL     1      -8.412 -42.102  34.199  1.00  0.00     0.029 A 
ATOM      8  C   UNL     1      -9.939 -43.540  33.028  1.00  0.00     0.066 A 
ATOM      9  C   UNL     1      -9.491 -41.442  34.793  1.00  0.00     0.002 A 
ATOM     10  C   UNL     1     -11.027 -42.885  33.615  1.00  0.00     0.016 A 
ATOM     11  C   UNL     1     -10.798 -41.833  34.501  1.00  0.00     0.001 A 
ATOM     12  O   UNL     1     -11.277 -44.974  31.737  1.00  0.00    -0.268 OA
BRANCH   3  13
ATOM     13  O   UNL     1      -6.704 -45.383  31.376  1.00  0.00    -0.480 OA
ATOM     14  H   UNL     1      -6.381 -44.762  30.698  1.00  0.00     0.296 HD
ENDBRANCH   3  13
ENDBRANCH   1   2
BRANCH   1  15
ATOM     15  C   UNL     1     -10.493 -46.364  29.987  1.00  0.00     0.026 C 
BRANCH  15  16
ATOM     16  C   UNL     1     -10.393 -45.908  28.516  1.00  0.00     0.002 C 
ATOM     17  C   UNL     1     -10.593 -44.394  28.328  1.00  0.00     0.065 C 
ATOM     18  C   UNL     1     -11.406 -46.666  27.638  1.00  0.00     0.065 C 
ATOM     19  C   UNL     1     -12.034 -43.951  28.559  1.00  0.00     0.262 C 
ATOM     20  C   UNL     1     -12.845 -46.219  27.873  1.00  0.00     0.262 C 
ATOM     21  N   UNL     1     -12.944 -44.731  27.645  1.00  0.00    -0.331 N 
ATOM     22  H   UNL     1     -12.609 -44.564  26.688  1.00  0.00     0.348 HD
BRANCH  21  23
ATOM     23  C   UNL     1     -14.374 -44.218  27.635  1.00  0.00     0.299 C 
BRANCH  23  24
ATOM     24  C   UNL     1     -14.917 -43.813  26.292  1.00  0.00     0.006 A 
ATOM     25  C   UNL     1     -14.392 -44.362  25.112  1.00  0.00     0.009 A 
ATOM     26  C   UNL     1     -15.961 -42.879  26.196  1.00  0.00     0.009 A 
ATOM     27  C   UNL     1     -14.913 -43.999  23.868  1.00  0.00     0.001 A 
ATOM     28  C   UNL     1     -16.479 -42.519  24.950  1.00  0.00     0.001 A 
ATOM     29  C   UNL     1     -15.957 -43.081  23.789  1.00  0.00     0.000 A 
ENDBRANCH  23  24
ENDBRANCH  21  23
ENDBRANCH  15  16
ENDBRANCH   1  15
TORSDOF 6
ENDMDL
MODEL 5
REMARK VINA RESULT:   -10.339      2.848      4.743
REMARK INTER + INTRA:         -13.947
REMARK INTER:                 -13.461
REMARK INTRA:                  -0.486
REMARK UNBOUND:                -0.284
REMARK SMILES O=c1c2ccccc2nc(O)n1CC[C@H]1CC[N@@H+](Cc2ccccc2)CC1
REMARK SMILES IDX 13 1 12 2 10 3 9 4 8 5 2 6 7 7 3 8 6 9 4 10 5 11 1 12 11 13
REMARK SMILES IDX 14 15 15 16 16 17 27 18 17 19 26 20 18 21 19 23 20 24 21 25
REMARK SMILES IDX 25 26 22 27 24 28 23 29
REMARK H PARENT 11 14 18 22
ROOT
ATOM      1  C   UNL     1     -17.107 -43.068  23.690  1.00  0.00     0.131 C 
ENDROOT
BRANCH   1   2
ATOM      2  N   UNL     1     -17.984 -42.034  23.154  1.00  0.00    -0.262 N 
ATOM      3  C   UNL     1     -17.529 -41.104  22.258  1.00  0.00     0.297 A 
ATOM      4  N   UNL     1     -18.213 -40.162  21.717  1.00  0.00    -0.197 NA
ATOM      5  C   UNL     1     -19.565 -40.069  22.082  1.00  0.00     0.081 A 
ATOM      6  C   UNL     1     -19.328 -42.065  23.498  1.00  0.00     0.264 A 
ATOM      7  C   UNL     1     -20.339 -39.034  21.553  1.00  0.00     0.029 A 
ATOM      8  C   UNL     1     -20.167 -40.981  22.951  1.00  0.00     0.066 A 
ATOM      9  C   UNL     1     -21.691 -38.916  21.887  1.00  0.00     0.002 A 
ATOM     10  C   UNL     1     -21.520 -40.874  23.290  1.00  0.00     0.016 A 
ATOM     11  C   UNL     1     -22.282 -39.836  22.755  1.00  0.00     0.001 A 
ATOM     12  O   UNL     1     -19.832 -42.944  24.194  1.00  0.00    -0.268 OA
BRANCH   3  13
ATOM     13  O   UNL     1     -16.237 -41.201  21.902  1.00  0.00    -0.480 OA
ATOM     14  H   UNL     1     -16.002 -40.333  21.525  1.00  0.00     0.296 HD
ENDBRANCH   3  13
ENDBRANCH   1   2
BRANCH   1  15
ATOM     15  C   UNL     1     -16.731 -42.769  25.148  1.00  0.00     0.026 C 
BRANCH  15  16
ATOM     16  C   UNL     1     -15.244 -42.406  25.340  1.00  0.00     0.002 C 
ATOM     17  C   UNL     1     -14.288 -43.281  24.511  1.00  0.00     0.065 C 
ATOM     18  C   UNL     1     -14.848 -42.491  26.826  1.00  0.00     0.065 C 
ATOM     19  C   UNL     1     -14.195 -44.714  25.025  1.00  0.00     0.262 C 
ATOM     20  C   UNL     1     -14.757 -43.926  27.334  1.00  0.00     0.262 C 
ATOM     21  N   UNL     1     -13.784 -44.694  26.475  1.00  0.00    -0.331 N 
ATOM     22  H   UNL     1     -12.895 -44.181  26.518  1.00  0.00     0.348 HD
BRANCH  21  23
ATOM     23  C   UNL     1     -13.450 -46.069  27.026  1.00  0.00     0.299 C 
BRANCH  23  24
ATOM     24  C   UNL     1     -12.534 -46.094  28.220  1.00  0.00     0.006 A 
ATOM     25  C   UNL     1     -13.050 -45.984  29.520  1.00  0.00     0.009 A 
ATOM     26  C   UNL     1     -11.147 -46.231  28.053  1.00  0.00     0.009 A 
ATOM     27  C   UNL     1     -12.199 -46.027  30.627  1.00  0.00     0.001 A 
ATOM     28  C   UNL     1     -10.299 -46.274  29.162  1.00  0.00     0.001 A 
ATOM     29  C   UNL     1     -10.827 -46.176  30.446  1.00  0.00     0.000 A 
ENDBRANCH  23  24
ENDBRANCH  21  23
ENDBRANCH  15  16
ENDBRANCH   1  15
TORSDOF 6
ENDMDL
MODEL 6
REMARK VINA RESULT:   -10.226      1.737      3.138
REMARK INTER + INTRA:         -13.798
REMARK INTER:                 -13.483
REMARK INTRA:                  -0.315
REMARK UNBOUND:                -0.284
REMARK SMILES O=c1c2ccccc2nc(O)n1CC[C@H]1CC[N@@H+](Cc2ccccc2)CC1
REMARK SMILES IDX 13 1 12 2 10 3 9 4 8 5 2 6 7 7 3 8 6 9 4 10 5 11 1 12 11 13
REMARK SMILES IDX 14 15 15 16 16 17 27 18 17 19 26 20 18 21 19 23 20 24 21 25
REMARK SMILES IDX 25 26 22 27 24 28 23 29
REMARK H PARENT 11 14 18 22
ROOT
ATOM      1  C   UNL     1     -14.283 -43.020  26.609  1.00  0.00     0.131 C 
ENDROOT
BRANCH   1   2
ATOM      2  N   UNL     1     -15.651 -42.782  26.171  1.00  0.00    -0.262 N 
ATOM      3  C   UNL     1     -16.667 -42.588  27.068  1.00  0.00     0.297 A 
ATOM      4  N   UNL     1     -17.901 -42.361  26.794  1.00  0.00    -0.197 NA
ATOM      5  C   UNL     1     -18.249 -42.310  25.435  1.00  0.00     0.081 A 
ATOM      6  C   UNL     1     -15.896 -42.658  24.810  1.00  0.00     0.264 A 
ATOM      7  C   UNL     1     -19.587 -42.108  25.086  1.00  0.00     0.029 A 
ATOM      8  C   UNL     1     -17.304 -42.445  24.417  1.00  0.00     0.066 A 
ATOM      9  C   UNL     1     -19.968 -42.042  23.743  1.00  0.00     0.002 A 
ATOM     10  C   UNL     1     -17.674 -42.377  23.070  1.00  0.00     0.016 A 
ATOM     11  C   UNL     1     -19.012 -42.176  22.735  1.00  0.00     0.001 A 
ATOM     12  O   UNL     1     -15.015 -42.692  23.955  1.00  0.00    -0.268 OA
BRANCH   3  13
ATOM     13  O   UNL     1     -16.330 -42.628  28.368  1.00  0.00    -0.480 OA
ATOM     14  H   UNL     1     -16.068 -41.718  28.600  1.00  0.00     0.296 HD
ENDBRANCH   3  13
ENDBRANCH   1   2
BRANCH   1  15
ATOM     15  C   UNL     1     -14.156 -44.383  27.302  1.00  0.00     0.026 C 
BRANCH  15  16
ATOM     16  C   UNL     1     -12.731 -44.974  27.248  1.00  0.00     0.002 C 
ATOM     17  C   UNL     1     -12.604 -46.332  27.959  1.00  0.00     0.065 C 
ATOM     18  C   UNL     1     -11.709 -43.991  27.846  1.00  0.00     0.065 C 
ATOM     19  C   UNL     1     -12.698 -46.221  29.477  1.00  0.00     0.262 C 
ATOM     20  C   UNL     1     -11.807 -43.883  29.364  1.00  0.00     0.262 C 
ATOM     21  N   UNL     1     -11.649 -45.256  29.969  1.00  0.00    -0.331 N 
ATOM     22  H   UNL     1     -10.746 -45.615  29.636  1.00  0.00     0.348 HD
BRANCH  21  23
ATOM     23  C   UNL     1     -11.510 -45.236  31.481  1.00  0.00     0.299 C 
BRANCH  23  24
ATOM     24  C   UNL     1     -12.378 -44.244  32.207  1.00  0.00     0.006 A 
ATOM     25  C   UNL     1     -11.810 -43.139  32.860  1.00  0.00     0.009 A 
ATOM     26  C   UNL     1     -13.772 -44.405  32.241  1.00  0.00     0.009 A 
ATOM     27  C   UNL     1     -12.620 -42.209  33.515  1.00  0.00     0.001 A 
ATOM     28  C   UNL     1     -14.579 -43.473  32.897  1.00  0.00     0.001 A 
ATOM     29  C   UNL     1     -14.002 -42.376  33.530  1.00  0.00     0.000 A 
ENDBRANCH  23  24
ENDBRANCH  21  23
ENDBRANCH  15  16
ENDBRANCH   1  15
TORSDOF 6
ENDMDL
MODEL 7
REMARK VINA RESULT:   -10.061      2.190      9.784
REMARK INTER + INTRA:         -13.580
REMARK INTER:                 -12.932
REMARK INTRA:                  -0.649
REMARK UNBOUND:                -0.284
REMARK SMILES O=c1c2ccccc2nc(O)n1CC[C@H]1CC[N@@H+](Cc2ccccc2)CC1
REMARK SMILES IDX 13 1 12 2 10 3 9 4 8 5 2 6 7 7 3 8 6 9 4 10 5 11 1 12 11 13
REMARK SMILES IDX 14 15 15 16 16 17 27 18 17 19 26 20 18 21 19 23 20 24 21 25
REMARK SMILES IDX 25 26 22 27 24 28 23 29
REMARK H PARENT 11 14 18 22
ROOT
ATOM      1  C   UNL     1     -13.255 -44.435  26.468  1.00  0.00     0.131 C 
ENDROOT
BRANCH   1   2
ATOM      2  N   UNL     1     -12.469 -44.802  27.639  1.00  0.00    -0.262 N 
ATOM      3  C   UNL     1     -12.248 -46.112  27.970  1.00  0.00     0.297 A 
ATOM      4  N   UNL     1     -11.566 -46.547  28.967  1.00  0.00    -0.197 NA
ATOM      5  C   UNL     1     -10.991 -45.584  29.811  1.00  0.00     0.081 A 
ATOM      6  C   UNL     1     -11.861 -43.791  28.370  1.00  0.00     0.264 A 
ATOM      7  C   UNL     1     -10.275 -46.007  30.933  1.00  0.00     0.029 A 
ATOM      8  C   UNL     1     -11.100 -44.215  29.562  1.00  0.00     0.066 A 
ATOM      9  C   UNL     1      -9.681 -45.077  31.789  1.00  0.00     0.002 A 
ATOM     10  C   UNL     1     -10.506 -43.274  30.411  1.00  0.00     0.016 A 
ATOM     11  C   UNL     1      -9.796 -43.711  31.529  1.00  0.00     0.001 A 
ATOM     12  O   UNL     1     -11.910 -42.603  28.059  1.00  0.00    -0.268 OA
BRANCH   3  13
ATOM     13  O   UNL     1     -12.791 -47.033  27.156  1.00  0.00    -0.480 OA
ATOM     14  H   UNL     1     -12.082 -47.677  26.976  1.00  0.00     0.296 HD
ENDBRANCH   3  13
ENDBRANCH   1   2
BRANCH   1  15
ATOM     15  C   UNL     1     -14.717 -44.167  26.849  1.00  0.00     0.026 C 
BRANCH  15  16
ATOM     16  C   UNL     1     -15.118 -42.680  26.754  1.00  0.00     0.002 C 
ATOM     17  C   UNL     1     -16.624 -42.437  26.947  1.00  0.00     0.065 C 
ATOM     18  C   UNL     1     -14.676 -42.079  25.408  1.00  0.00     0.065 C 
ATOM     19  C   UNL     1     -17.462 -42.927  25.769  1.00  0.00     0.262 C 
ATOM     20  C   UNL     1     -15.515 -42.572  24.234  1.00  0.00     0.262 C 
ATOM     21  N   UNL     1     -16.969 -42.271  24.505  1.00  0.00    -0.331 N 
ATOM     22  H   UNL     1     -17.029 -41.258  24.661  1.00  0.00     0.348 HD
BRANCH  21  23
ATOM     23  C   UNL     1     -17.868 -42.520  23.307  1.00  0.00     0.299 C 
BRANCH  23  24
ATOM     24  C   UNL     1     -18.916 -41.472  23.044  1.00  0.00     0.006 A 
ATOM     25  C   UNL     1     -18.747 -40.532  22.016  1.00  0.00     0.009 A 
ATOM     26  C   UNL     1     -20.084 -41.419  23.822  1.00  0.00     0.009 A 
ATOM     27  C   UNL     1     -19.731 -39.574  21.762  1.00  0.00     0.001 A 
ATOM     28  C   UNL     1     -21.065 -40.459  23.565  1.00  0.00     0.001 A 
ATOM     29  C   UNL     1     -20.889 -39.541  22.534  1.00  0.00     0.000 A 
ENDBRANCH  23  24
ENDBRANCH  21  23
ENDBRANCH  15  16
ENDBRANCH   1  15
TORSDOF 6
ENDMDL
MODEL 8
REMARK VINA RESULT:    -9.810      2.871      4.999
REMARK INTER + INTRA:         -13.248
REMARK INTER:                 -13.221
REMARK INTRA:                  -0.027
REMARK UNBOUND:                -0.284
REMARK SMILES O=c1c2ccccc2nc(O)n1CC[C@H]1CC[N@@H+](Cc2ccccc2)CC1
REMARK SMILES IDX 13 1 12 2 10 3 9 4 8 5 2 6 7 7 3 8 6 9 4 10 5 11 1 12 11 13
REMARK SMILES IDX 14 15 15 16 16 17 27 18 17 19 26 20 18 21 19 23 20 24 21 25
REMARK SMILES IDX 25 26 22 27 24 28 23 29
REMARK H PARENT 11 14 18 22
ROOT
ATOM      1  C   UNL     1     -17.088 -42.910  23.504  1.00  0.00     0.131 C 
ENDROOT
BRANCH   1   2
ATOM      2  N   UNL     1     -18.335 -42.208  23.228  1.00  0.00    -0.262 N 
ATOM      3  C   UNL     1     -19.514 -42.585  23.814  1.00  0.00     0.297 A 
ATOM      4  N   UNL     1     -20.662 -42.034  23.652  1.00  0.00    -0.197 NA
ATOM      5  C   UNL     1     -20.721 -40.936  22.780  1.00  0.00     0.081 A 
ATOM      6  C   UNL     1     -18.292 -41.078  22.424  1.00  0.00     0.264 A 
ATOM      7  C   UNL     1     -21.955 -40.329  22.538  1.00  0.00     0.029 A 
ATOM      8  C   UNL     1     -19.586 -40.420  22.153  1.00  0.00     0.066 A 
ATOM      9  C   UNL     1     -22.050 -39.227  21.684  1.00  0.00     0.002 A 
ATOM     10  C   UNL     1     -19.668 -39.316  21.299  1.00  0.00     0.016 A 
ATOM     11  C   UNL     1     -20.907 -38.720  21.065  1.00  0.00     0.001 A 
ATOM     12  O   UNL     1     -17.253 -40.607  21.968  1.00  0.00    -0.268 OA
BRANCH   3  13
ATOM     13  O   UNL     1     -19.453 -43.631  24.655  1.00  0.00    -0.480 OA
ATOM     14  H   UNL     1     -19.933 -43.353  25.457  1.00  0.00     0.296 HD
ENDBRANCH   3  13
ENDBRANCH   1   2
BRANCH   1  15
ATOM     15  C   UNL     1     -16.732 -42.833  24.995  1.00  0.00     0.026 C 
BRANCH  15  16
ATOM     16  C   UNL     1     -15.266 -42.429  25.260  1.00  0.00     0.002 C 
ATOM     17  C   UNL     1     -14.249 -43.244  24.443  1.00  0.00     0.065 C 
ATOM     18  C   UNL     1     -14.928 -42.549  26.757  1.00  0.00     0.065 C 
ATOM     19  C   UNL     1     -14.128 -44.690  24.915  1.00  0.00     0.262 C 
ATOM     20  C   UNL     1     -14.808 -43.996  27.224  1.00  0.00     0.262 C 
ATOM     21  N   UNL     1     -13.776 -44.704  26.381  1.00  0.00    -0.331 N 
ATOM     22  H   UNL     1     -12.907 -44.165  26.476  1.00  0.00     0.348 HD
BRANCH  21  23
ATOM     23  C   UNL     1     -13.419 -46.085  26.902  1.00  0.00     0.299 C 
BRANCH  23  24
ATOM     24  C   UNL     1     -12.534 -46.120  28.119  1.00  0.00     0.006 A 
ATOM     25  C   UNL     1     -11.146 -46.284  27.991  1.00  0.00     0.009 A 
ATOM     26  C   UNL     1     -13.083 -45.986  29.404  1.00  0.00     0.009 A 
ATOM     27  C   UNL     1     -10.326 -46.295  29.121  1.00  0.00     0.001 A 
ATOM     28  C   UNL     1     -12.259 -45.997  30.532  1.00  0.00     0.001 A 
ATOM     29  C   UNL     1     -10.883 -46.148  30.389  1.00  0.00     0.000 A 
ENDBRANCH  23  24
ENDBRANCH  21  23
ENDBRANCH  15  16
ENDBRANCH   1  15
TORSDOF 6
ENDMDL
MODEL 9
REMARK VINA RESULT:    -9.804      2.761      5.036
REMARK INTER + INTRA:         -13.240
REMARK INTER:                 -12.568
REMARK INTRA:                  -0.672
REMARK UNBOUND:                -0.284
REMARK SMILES O=c1c2ccccc2nc(O)n1CC[C@H]1CC[N@@H+](Cc2ccccc2)CC1
REMARK SMILES IDX 13 1 12 2 10 3 9 4 8 5 2 6 7 7 3 8 6 9 4 10 5 11 1 12 11 13
REMARK SMILES IDX 14 15 15 16 16 17 27 18 17 19 26 20 18 21 19 23 20 24 21 25
REMARK SMILES IDX 25 26 22 27 24 28 23 29
REMARK H PARENT 11 14 18 22
ROOT
ATOM      1  C   UNL     1     -18.404 -42.049  25.142  1.00  0.00     0.131 C 
ENDROOT
BRANCH   1   2
ATOM      2  N   UNL     1     -19.372 -42.769  25.959  1.00  0.00    -0.262 N 
ATOM      3  C   UNL     1     -19.308 -42.753  27.327  1.00  0.00     0.297 A 
ATOM      4  N   UNL     1     -20.109 -43.340  28.140  1.00  0.00    -0.197 NA
ATOM      5  C   UNL     1     -21.159 -44.079  27.573  1.00  0.00     0.081 A 
ATOM      6  C   UNL     1     -20.431 -43.403  25.323  1.00  0.00     0.264 A 
ATOM      7  C   UNL     1     -22.033 -44.770  28.415  1.00  0.00     0.029 A 
ATOM      8  C   UNL     1     -21.367 -44.141  26.194  1.00  0.00     0.066 A 
ATOM      9  C   UNL     1     -23.095 -45.509  27.886  1.00  0.00     0.002 A 
ATOM     10  C   UNL     1     -22.429 -44.875  25.654  1.00  0.00     0.016 A 
ATOM     11  C   UNL     1     -23.293 -45.561  26.506  1.00  0.00     0.001 A 
ATOM     12  O   UNL     1     -20.625 -43.353  24.111  1.00  0.00    -0.268 OA
BRANCH   3  13
ATOM     13  O   UNL     1     -18.308 -42.037  27.868  1.00  0.00    -0.480 OA
ATOM     14  H   UNL     1     -17.701 -42.689  28.264  1.00  0.00     0.296 HD
ENDBRANCH   3  13
ENDBRANCH   1   2
BRANCH   1  15
ATOM     15  C   UNL     1     -17.287 -42.984  24.659  1.00  0.00     0.026 C 
BRANCH  15  16
ATOM     16  C   UNL     1     -15.874 -42.381  24.795  1.00  0.00     0.002 C 
ATOM     17  C   UNL     1     -14.787 -43.199  24.078  1.00  0.00     0.065 C 
ATOM     18  C   UNL     1     -15.490 -42.217  26.277  1.00  0.00     0.065 C 
ATOM     19  C   UNL     1     -14.486 -44.526  24.768  1.00  0.00     0.262 C 
ATOM     20  C   UNL     1     -15.191 -43.546  26.963  1.00  0.00     0.262 C 
ATOM     21  N   UNL     1     -14.103 -44.262  26.202  1.00  0.00    -0.331 N 
ATOM     22  H   UNL     1     -13.301 -43.620  26.175  1.00  0.00     0.348 HD
BRANCH  21  23
ATOM     23  C   UNL     1     -13.574 -45.491  26.920  1.00  0.00     0.299 C 
BRANCH  23  24
ATOM     24  C   UNL     1     -12.297 -45.301  27.694  1.00  0.00     0.006 A 
ATOM     25  C   UNL     1     -11.509 -46.404  28.057  1.00  0.00     0.009 A 
ATOM     26  C   UNL     1     -11.870 -44.015  28.063  1.00  0.00     0.009 A 
ATOM     27  C   UNL     1     -10.314 -46.222  28.757  1.00  0.00     0.001 A 
ATOM     28  C   UNL     1     -10.675 -43.838  28.763  1.00  0.00     0.001 A 
ATOM     29  C   UNL     1      -9.898 -44.940  29.106  1.00  0.00     0.000 A 
ENDBRANCH  23  24
ENDBRANCH  21  23
ENDBRANCH  15  16
ENDBRANCH   1  15
TORSDOF 6
ENDMDL
