MODEL 1
REMARK VINA RESULT:   -12.953      0.000      0.000
REMARK INTER + INTRA:         -18.765
REMARK INTER:                 -17.875
REMARK INTRA:                  -0.890
REMARK UNBOUND:                -0.890
REMARK SMILES O=C(CC[C@H]1CC[N@H+](Cc2ccccc2O)CC1)c1cc2c3c(ccn3C(=O)CC2)c1
REMARK SMILES IDX 7 1 8 2 17 3 6 4 5 5 18 6 9 8 10 9 11 10 15 11 12 12 14 13
REMARK SMILES IDX 13 14 16 15 4 17 3 18 2 19 1 20 19 21 20 22 31 23 21 24
REMARK SMILES IDX 23 25 22 26 30 27 24 28 26 29 29 30 25 31 27 32 28 33
REMARK H PARENT 8 7 16 16
ROOT
ATOM      1  C   UNL     1     -11.093 -46.530  28.992  1.00  0.00     0.262 C 
ATOM      2  N   UNL     1     -11.547 -45.726  30.172  1.00  0.00    -0.331 N 
ATOM      3  C   UNL     1     -13.041 -45.715  30.326  1.00  0.00     0.262 C 
ATOM      4  C   UNL     1     -11.711 -45.959  27.725  1.00  0.00     0.065 C 
ATOM      5  C   UNL     1     -13.247 -45.892  27.800  1.00  0.00     0.000 C 
ATOM      6  C   UNL     1     -13.680 -45.140  29.067  1.00  0.00     0.065 C 
ATOM      7  H   UNL     1     -11.241 -44.746  30.025  1.00  0.00     0.348 HD
ENDROOT
BRANCH   2   8
ATOM      8  C   UNL     1     -10.827 -46.114  31.445  1.00  0.00     0.302 C 
BRANCH   8   9
ATOM      9  C   UNL     1      -9.630 -45.256  31.753  1.00  0.00     0.048 A 
ATOM     10  C   UNL     1      -9.803 -43.984  32.321  1.00  0.00     0.013 A 
ATOM     11  C   UNL     1      -8.323 -45.718  31.539  1.00  0.00     0.124 A 
ATOM     12  C   UNL     1      -8.696 -43.196  32.642  1.00  0.00     0.001 A 
ATOM     13  C   UNL     1      -7.216 -44.936  31.859  1.00  0.00     0.046 A 
ATOM     14  C   UNL     1      -7.406 -43.671  32.411  1.00  0.00     0.004 A 
BRANCH  11  15
ATOM     15  O   UNL     1      -8.153 -46.959  30.983  1.00  0.00    -0.507 OA
ATOM     16  H   UNL     1      -8.537 -46.933  30.082  1.00  0.00     0.293 HD
ENDBRANCH  11  15
ENDBRANCH   8   9
ENDBRANCH   2   8
BRANCH   5  17
ATOM     17  C   UNL     1     -13.791 -45.237  26.516  1.00  0.00     0.012 C 
BRANCH  17  18
ATOM     18  C   UNL     1     -13.852 -43.705  26.566  1.00  0.00     0.081 C 
BRANCH  18  19
ATOM     19  C   UNL     1     -14.440 -43.138  25.282  1.00  0.00     0.162 C 
ATOM     20  O   UNL     1     -13.752 -42.985  24.274  1.00  0.00    -0.294 OA
BRANCH  19  21
ATOM     21  C   UNL     1     -15.885 -42.749  25.253  1.00  0.00     0.019 A 
ATOM     22  C   UNL     1     -16.558 -42.477  24.049  1.00  0.00     0.017 A 
ATOM     23  C   UNL     1     -16.567 -42.682  26.488  1.00  0.00     0.022 A 
ATOM     24  C   UNL     1     -17.907 -42.106  24.053  1.00  0.00    -0.022 A 
ATOM     25  C   UNL     1     -17.928 -42.333  26.503  1.00  0.00     0.001 A 
ATOM     26  C   UNL     1     -18.532 -42.043  25.295  1.00  0.00     0.059 A 
ATOM     27  C   UNL     1     -18.758 -41.881  22.841  1.00  0.00     0.047 C 
ATOM     28  C   UNL     1     -18.940 -42.203  27.495  1.00  0.00     0.029 A 
ATOM     29  N   UNL     1     -19.851 -41.707  25.514  1.00  0.00    -0.287 N 
ATOM     30  C   UNL     1     -19.971 -40.992  23.174  1.00  0.00     0.106 C 
ATOM     31  C   UNL     1     -20.115 -41.849  26.858  1.00  0.00     0.095 A 
ATOM     32  C   UNL     1     -20.701 -41.301  24.477  1.00  0.00     0.231 C 
ATOM     33  O   UNL     1     -21.889 -41.116  24.696  1.00  0.00    -0.274 OA
ENDBRANCH  19  21
ENDBRANCH  18  19
ENDBRANCH  17  18
ENDBRANCH   5  17
TORSDOF 7
ENDMDL
MODEL 2
REMARK VINA RESULT:   -12.719      0.607      1.861
REMARK INTER + INTRA:         -18.443
REMARK INTER:                 -17.668
REMARK INTRA:                  -0.775
REMARK UNBOUND:                -0.890
REMARK SMILES O=C(CC[C@H]1CC[N@H+](Cc2ccccc2O)CC1)c1cc2c3c(ccn3C(=O)CC2)c1
REMARK SMILES IDX 7 1 8 2 17 3 6 4 5 5 18 6 9 8 10 9 11 10 15 11 12 12 14 13
REMARK SMILES IDX 13 14 16 15 4 17 3 18 2 19 1 20 19 21 20 22 31 23 21 24
REMARK SMILES IDX 23 25 22 26 30 27 24 28 26 29 29 30 25 31 27 32 28 33
REMARK H PARENT 8 7 16 16
ROOT
ATOM      1  C   UNL     1     -11.448 -46.534  29.032  1.00  0.00     0.262 C 
ATOM      2  N   UNL     1     -11.757 -45.501  30.073  1.00  0.00    -0.331 N 
ATOM      3  C   UNL     1     -13.220 -45.170  30.144  1.00  0.00     0.262 C 
ATOM      4  C   UNL     1     -11.902 -46.028  27.671  1.00  0.00     0.065 C 
ATOM      5  C   UNL     1     -13.392 -45.645  27.654  1.00  0.00     0.000 C 
ATOM      6  C   UNL     1     -13.693 -44.655  28.790  1.00  0.00     0.065 C 
ATOM      7  H   UNL     1     -11.251 -44.633  29.818  1.00  0.00     0.348 HD
ENDROOT
BRANCH   2   8
ATOM      8  C   UNL     1     -11.165 -45.849  31.422  1.00  0.00     0.302 C 
BRANCH   8   9
ATOM      9  C   UNL     1      -9.854 -45.167  31.706  1.00  0.00     0.048 A 
ATOM     10  C   UNL     1      -9.837 -43.884  32.275  1.00  0.00     0.013 A 
ATOM     11  C   UNL     1      -8.629 -45.807  31.467  1.00  0.00     0.124 A 
ATOM     12  C   UNL     1      -8.625 -43.259  32.574  1.00  0.00     0.001 A 
ATOM     13  C   UNL     1      -7.417 -45.189  31.765  1.00  0.00     0.046 A 
ATOM     14  C   UNL     1      -7.418 -43.910  32.319  1.00  0.00     0.004 A 
BRANCH  11  15
ATOM     15  O   UNL     1      -8.646 -47.059  30.910  1.00  0.00    -0.507 OA
ATOM     16  H   UNL     1      -7.739 -47.424  30.977  1.00  0.00     0.293 HD
ENDBRANCH  11  15
ENDBRANCH   8   9
ENDBRANCH   2   8
BRANCH   5  17
ATOM     17  C   UNL     1     -13.756 -45.075  26.270  1.00  0.00     0.012 C 
BRANCH  17  18
ATOM     18  C   UNL     1     -14.408 -43.687  26.310  1.00  0.00     0.081 C 
BRANCH  18  19
ATOM     19  C   UNL     1     -15.043 -43.341  24.971  1.00  0.00     0.162 C 
ATOM     20  O   UNL     1     -14.436 -43.500  23.914  1.00  0.00    -0.294 OA
BRANCH  19  21
ATOM     21  C   UNL     1     -16.432 -42.785  24.947  1.00  0.00     0.019 A 
ATOM     22  C   UNL     1     -17.194 -42.635  26.119  1.00  0.00     0.017 A 
ATOM     23  C   UNL     1     -16.954 -42.390  23.695  1.00  0.00     0.022 A 
ATOM     24  C   UNL     1     -18.494 -42.120  26.064  1.00  0.00    -0.022 A 
ATOM     25  C   UNL     1     -18.251 -41.851  23.631  1.00  0.00     0.001 A 
ATOM     26  C   UNL     1     -18.968 -41.757  24.807  1.00  0.00     0.059 A 
ATOM     27  C   UNL     1     -19.370 -41.826  27.243  1.00  0.00     0.047 C 
ATOM     28  C   UNL     1     -19.086 -41.316  22.612  1.00  0.00     0.029 A 
ATOM     29  N   UNL     1     -20.212 -41.226  24.541  1.00  0.00    -0.287 N 
ATOM     30  C   UNL     1     -20.856 -41.797  26.835  1.00  0.00     0.106 C 
ATOM     31  C   UNL     1     -20.269 -40.913  23.201  1.00  0.00     0.095 A 
ATOM     32  C   UNL     1     -21.187 -41.071  25.535  1.00  0.00     0.231 C 
ATOM     33  O   UNL     1     -22.236 -40.498  25.280  1.00  0.00    -0.274 OA
ENDBRANCH  19  21
ENDBRANCH  18  19
ENDBRANCH  17  18
ENDBRANCH   5  17
TORSDOF 7
ENDMDL
MODEL 3
REMARK VINA RESULT:   -12.105      2.065     11.002
REMARK INTER + INTRA:         -17.596
REMARK INTER:                 -17.345
REMARK INTRA:                  -0.250
REMARK UNBOUND:                -0.890
REMARK SMILES O=C(CC[C@H]1CC[N@H+](Cc2ccccc2O)CC1)c1cc2c3c(ccn3C(=O)CC2)c1
REMARK SMILES IDX 7 1 8 2 17 3 6 4 5 5 18 6 9 8 10 9 11 10 15 11 12 12 14 13
REMARK SMILES IDX 13 14 16 15 4 17 3 18 2 19 1 20 19 21 20 22 31 23 21 24
REMARK SMILES IDX 23 25 22 26 30 27 24 28 26 29 29 30 25 31 27 32 28 33
REMARK H PARENT 8 7 16 16
ROOT
ATOM      1  C   UNL     1     -14.640 -44.086  24.617  1.00  0.00     0.262 C 
ATOM      2  N   UNL     1     -15.835 -43.326  25.106  1.00  0.00    -0.331 N 
ATOM      3  C   UNL     1     -15.544 -42.519  26.339  1.00  0.00     0.262 C 
ATOM      4  C   UNL     1     -14.157 -45.024  25.713  1.00  0.00     0.065 C 
ATOM      5  C   UNL     1     -13.850 -44.283  27.026  1.00  0.00     0.000 C 
ATOM      6  C   UNL     1     -15.063 -43.442  27.452  1.00  0.00     0.065 C 
ATOM      7  H   UNL     1     -16.571 -44.015  25.349  1.00  0.00     0.348 HD
ENDROOT
BRANCH   2   8
ATOM      8  C   UNL     1     -16.488 -42.511  24.010  1.00  0.00     0.302 C 
BRANCH   8   9
ATOM      9  C   UNL     1     -17.905 -42.105  24.315  1.00  0.00     0.048 A 
ATOM     10  C   UNL     1     -18.377 -42.138  25.637  1.00  0.00     0.013 A 
ATOM     11  C   UNL     1     -18.763 -41.633  23.312  1.00  0.00     0.124 A 
ATOM     12  C   UNL     1     -19.678 -41.728  25.933  1.00  0.00     0.001 A 
ATOM     13  C   UNL     1     -20.062 -41.223  23.602  1.00  0.00     0.046 A 
ATOM     14  C   UNL     1     -20.519 -41.273  24.918  1.00  0.00     0.004 A 
BRANCH  11  15
ATOM     15  O   UNL     1     -18.303 -41.603  22.021  1.00  0.00    -0.507 OA
ATOM     16  H   UNL     1     -19.071 -41.431  21.439  1.00  0.00     0.293 HD
ENDBRANCH  11  15
ENDBRANCH   8   9
ENDBRANCH   2   8
BRANCH   5  17
ATOM     17  C   UNL     1     -13.440 -45.305  28.103  1.00  0.00     0.012 C 
BRANCH  17  18
ATOM     18  C   UNL     1     -13.988 -45.001  29.504  1.00  0.00     0.081 C 
BRANCH  18  19
ATOM     19  C   UNL     1     -13.303 -45.859  30.558  1.00  0.00     0.162 C 
ATOM     20  O   UNL     1     -13.840 -46.868  31.012  1.00  0.00    -0.294 OA
BRANCH  19  21
ATOM     21  C   UNL     1     -11.952 -45.454  31.060  1.00  0.00     0.019 A 
ATOM     22  C   UNL     1     -11.782 -44.394  31.967  1.00  0.00     0.017 A 
ATOM     23  C   UNL     1     -10.839 -46.196  30.604  1.00  0.00     0.022 A 
ATOM     24  C   UNL     1     -10.506 -44.033  32.412  1.00  0.00    -0.022 A 
ATOM     25  C   UNL     1      -9.554 -45.857  31.062  1.00  0.00     0.001 A 
ATOM     26  C   UNL     1      -9.440 -44.785  31.926  1.00  0.00     0.059 A 
ATOM     27  C   UNL     1     -10.199 -42.989  33.441  1.00  0.00     0.047 C 
ATOM     28  C   UNL     1      -8.238 -46.364  30.882  1.00  0.00     0.029 A 
ATOM     29  N   UNL     1      -8.113 -44.596  32.246  1.00  0.00    -0.287 N 
ATOM     30  C   UNL     1      -8.752 -42.480  33.300  1.00  0.00     0.106 C 
ATOM     31  C   UNL     1      -7.378 -45.593  31.642  1.00  0.00     0.095 A 
ATOM     32  C   UNL     1      -7.682 -43.539  33.058  1.00  0.00     0.231 C 
ATOM     33  O   UNL     1      -6.512 -43.470  33.404  1.00  0.00    -0.274 OA
ENDBRANCH  19  21
ENDBRANCH  18  19
ENDBRANCH  17  18
ENDBRANCH   5  17
TORSDOF 7
ENDMDL
MODEL 4
REMARK VINA RESULT:   -11.965      2.667      9.289
REMARK INTER + INTRA:         -17.402
REMARK INTER:                 -16.891
REMARK INTRA:                  -0.511
REMARK UNBOUND:                -0.890
REMARK SMILES O=C(CC[C@H]1CC[N@H+](Cc2ccccc2O)CC1)c1cc2c3c(ccn3C(=O)CC2)c1
REMARK SMILES IDX 7 1 8 2 17 3 6 4 5 5 18 6 9 8 10 9 11 10 15 11 12 12 14 13
REMARK SMILES IDX 13 14 16 15 4 17 3 18 2 19 1 20 19 21 20 22 31 23 21 24
REMARK SMILES IDX 23 25 22 26 30 27 24 28 26 29 29 30 25 31 27 32 28 33
REMARK H PARENT 8 7 16 16
ROOT
ATOM      1  C   UNL     1     -13.769 -45.392  26.160  1.00  0.00     0.262 C 
ATOM      2  N   UNL     1     -13.939 -43.970  26.600  1.00  0.00    -0.331 N 
ATOM      3  C   UNL     1     -12.645 -43.337  27.024  1.00  0.00     0.262 C 
ATOM      4  C   UNL     1     -13.178 -46.205  27.301  1.00  0.00     0.065 C 
ATOM      5  C   UNL     1     -11.853 -45.618  27.815  1.00  0.00     0.000 C 
ATOM      6  C   UNL     1     -12.038 -44.135  28.172  1.00  0.00     0.065 C 
ATOM      7  H   UNL     1     -14.573 -43.965  27.420  1.00  0.00     0.348 HD
ENDROOT
BRANCH   2   8
ATOM      8  C   UNL     1     -14.696 -43.139  25.587  1.00  0.00     0.302 C 
BRANCH   8   9
ATOM      9  C   UNL     1     -16.108 -42.818  25.996  1.00  0.00     0.048 A 
ATOM     10  C   UNL     1     -16.441 -42.718  27.356  1.00  0.00     0.013 A 
ATOM     11  C   UNL     1     -17.105 -42.556  25.045  1.00  0.00     0.124 A 
ATOM     12  C   UNL     1     -17.740 -42.386  27.744  1.00  0.00     0.001 A 
ATOM     13  C   UNL     1     -18.402 -42.223  25.426  1.00  0.00     0.046 A 
ATOM     14  C   UNL     1     -18.718 -42.140  26.781  1.00  0.00     0.004 A 
BRANCH  11  15
ATOM     15  O   UNL     1     -16.781 -42.656  23.717  1.00  0.00    -0.507 OA
ATOM     16  H   UNL     1     -17.156 -43.497  23.384  1.00  0.00     0.293 HD
ENDBRANCH  11  15
ENDBRANCH   8   9
ENDBRANCH   2   8
BRANCH   5  17
ATOM     17  C   UNL     1     -11.357 -46.450  29.013  1.00  0.00     0.012 C 
BRANCH  17  18
ATOM     18  C   UNL     1      -9.834 -46.443  29.199  1.00  0.00     0.081 C 
BRANCH  18  19
ATOM     19  C   UNL     1      -9.461 -46.180  30.651  1.00  0.00     0.162 C 
ATOM     20  O   UNL     1      -8.528 -46.772  31.191  1.00  0.00    -0.294 OA
BRANCH  19  21
ATOM     21  C   UNL     1     -10.258 -45.187  31.439  1.00  0.00     0.019 A 
ATOM     22  C   UNL     1     -11.664 -45.192  31.436  1.00  0.00     0.017 A 
ATOM     23  C   UNL     1      -9.544 -44.246  32.213  1.00  0.00     0.022 A 
ATOM     24  C   UNL     1     -12.382 -44.246  32.175  1.00  0.00    -0.022 A 
ATOM     25  C   UNL     1     -10.255 -43.305  32.978  1.00  0.00     0.001 A 
ATOM     26  C   UNL     1     -11.635 -43.332  32.912  1.00  0.00     0.059 A 
ATOM     27  C   UNL     1     -13.871 -44.201  32.328  1.00  0.00     0.047 C 
ATOM     28  C   UNL     1      -9.921 -42.263  33.886  1.00  0.00     0.029 A 
ATOM     29  N   UNL     1     -12.149 -42.331  33.708  1.00  0.00    -0.287 N 
ATOM     30  C   UNL     1     -14.345 -42.789  32.724  1.00  0.00     0.106 C 
ATOM     31  C   UNL     1     -11.100 -41.703  34.342  1.00  0.00     0.095 A 
ATOM     32  C   UNL     1     -13.523 -42.074  33.791  1.00  0.00     0.231 C 
ATOM     33  O   UNL     1     -13.945 -41.249  34.589  1.00  0.00    -0.274 OA
ENDBRANCH  19  21
ENDBRANCH  18  19
ENDBRANCH  17  18
ENDBRANCH   5  17
TORSDOF 7
ENDMDL
MODEL 5
REMARK VINA RESULT:   -11.592      1.759      2.391
REMARK INTER + INTRA:         -16.887
REMARK INTER:                 -15.929
REMARK INTRA:                  -0.958
REMARK UNBOUND:                -0.890
REMARK SMILES O=C(CC[C@H]1CC[N@H+](Cc2ccccc2O)CC1)c1cc2c3c(ccn3C(=O)CC2)c1
REMARK SMILES IDX 7 1 8 2 17 3 6 4 5 5 18 6 9 8 10 9 11 10 15 11 12 12 14 13
REMARK SMILES IDX 13 14 16 15 4 17 3 18 2 19 1 20 19 21 20 22 31 23 21 24
REMARK SMILES IDX 23 25 22 26 30 27 24 28 26 29 29 30 25 31 27 32 28 33
REMARK H PARENT 8 7 16 16
ROOT
ATOM      1  C   UNL     1     -11.168 -44.020  28.443  1.00  0.00     0.262 C 
ATOM      2  N   UNL     1     -12.050 -44.515  29.548  1.00  0.00    -0.331 N 
ATOM      3  C   UNL     1     -13.192 -45.352  29.048  1.00  0.00     0.262 C 
ATOM      4  C   UNL     1     -11.994 -43.190  27.473  1.00  0.00     0.065 C 
ATOM      5  C   UNL     1     -13.203 -43.964  26.919  1.00  0.00     0.000 C 
ATOM      6  C   UNL     1     -14.036 -44.535  28.076  1.00  0.00     0.065 C 
ATOM      7  H   UNL     1     -12.454 -43.688  30.026  1.00  0.00     0.348 HD
ENDROOT
BRANCH   2   8
ATOM      8  C   UNL     1     -11.266 -45.190  30.653  1.00  0.00     0.302 C 
BRANCH   8   9
ATOM      9  C   UNL     1     -10.799 -44.248  31.730  1.00  0.00     0.048 A 
ATOM     10  C   UNL     1      -9.452 -44.245  32.126  1.00  0.00     0.013 A 
ATOM     11  C   UNL     1     -11.669 -43.320  32.321  1.00  0.00     0.124 A 
ATOM     12  C   UNL     1      -9.003 -43.350  33.099  1.00  0.00     0.001 A 
ATOM     13  C   UNL     1     -11.226 -42.425  33.291  1.00  0.00     0.046 A 
ATOM     14  C   UNL     1      -9.888 -42.443  33.680  1.00  0.00     0.004 A 
BRANCH  11  15
ATOM     15  O   UNL     1     -12.985 -43.325  31.936  1.00  0.00    -0.507 OA
ATOM     16  H   UNL     1     -13.529 -43.244  32.747  1.00  0.00     0.293 HD
ENDBRANCH  11  15
ENDBRANCH   8   9
ENDBRANCH   2   8
BRANCH   5  17
ATOM     17  C   UNL     1     -14.027 -43.037  26.006  1.00  0.00     0.012 C 
BRANCH  17  18
ATOM     18  C   UNL     1     -15.511 -43.412  25.900  1.00  0.00     0.081 C 
BRANCH  18  19
ATOM     19  C   UNL     1     -16.077 -43.027  24.541  1.00  0.00     0.162 C 
ATOM     20  O   UNL     1     -15.440 -43.212  23.505  1.00  0.00    -0.294 OA
BRANCH  19  21
ATOM     21  C   UNL     1     -17.433 -42.398  24.469  1.00  0.00     0.019 A 
ATOM     22  C   UNL     1     -17.979 -41.943  23.256  1.00  0.00     0.017 A 
ATOM     23  C   UNL     1     -18.168 -42.294  25.672  1.00  0.00     0.022 A 
ATOM     24  C   UNL     1     -19.246 -41.350  23.221  1.00  0.00    -0.022 A 
ATOM     25  C   UNL     1     -19.451 -41.721  25.645  1.00  0.00     0.001 A 
ATOM     26  C   UNL     1     -19.925 -41.259  24.432  1.00  0.00     0.059 A 
ATOM     27  C   UNL     1     -19.973 -40.910  21.988  1.00  0.00     0.047 C 
ATOM     28  C   UNL     1     -20.485 -41.484  26.592  1.00  0.00     0.029 A 
ATOM     29  N   UNL     1     -21.181 -40.720  24.609  1.00  0.00    -0.287 N 
ATOM     30  C   UNL     1     -21.041 -39.851  22.323  1.00  0.00     0.106 C 
ATOM     31  C   UNL     1     -21.545 -40.898  25.926  1.00  0.00     0.095 A 
ATOM     32  C   UNL     1     -21.889 -40.113  23.564  1.00  0.00     0.231 C 
ATOM     33  O   UNL     1     -23.041 -39.744  23.737  1.00  0.00    -0.274 OA
ENDBRANCH  19  21
ENDBRANCH  18  19
ENDBRANCH  17  18
ENDBRANCH   5  17
TORSDOF 7
ENDMDL
MODEL 6
REMARK VINA RESULT:   -11.389      2.424     11.579
REMARK INTER + INTRA:         -16.607
REMARK INTER:                 -15.798
REMARK INTRA:                  -0.809
REMARK UNBOUND:                -0.890
REMARK SMILES O=C(CC[C@H]1CC[N@H+](Cc2ccccc2O)CC1)c1cc2c3c(ccn3C(=O)CC2)c1
REMARK SMILES IDX 7 1 8 2 17 3 6 4 5 5 18 6 9 8 10 9 11 10 15 11 12 12 14 13
REMARK SMILES IDX 13 14 16 15 4 17 3 18 2 19 1 20 19 21 20 22 31 23 21 24
REMARK SMILES IDX 23 25 22 26 30 27 24 28 26 29 29 30 25 31 27 32 28 33
REMARK H PARENT 8 7 16 16
ROOT
ATOM      1  C   UNL     1     -18.900 -42.792  24.559  1.00  0.00     0.262 C 
ATOM      2  N   UNL     1     -18.854 -41.957  23.316  1.00  0.00    -0.331 N 
ATOM      3  C   UNL     1     -17.640 -42.235  22.476  1.00  0.00     0.262 C 
ATOM      4  C   UNL     1     -17.657 -42.522  25.393  1.00  0.00     0.065 C 
ATOM      5  C   UNL     1     -16.358 -42.764  24.605  1.00  0.00     0.000 C 
ATOM      6  C   UNL     1     -16.382 -41.965  23.293  1.00  0.00     0.065 C 
ATOM      7  H   UNL     1     -18.815 -40.962  23.604  1.00  0.00     0.348 HD
ENDROOT
BRANCH   2   8
ATOM      8  C   UNL     1     -20.143 -42.027  22.527  1.00  0.00     0.302 C 
BRANCH   8   9
ATOM      9  C   UNL     1     -20.381 -40.833  21.642  1.00  0.00     0.048 A 
ATOM     10  C   UNL     1     -20.403 -39.542  22.194  1.00  0.00     0.013 A 
ATOM     11  C   UNL     1     -20.528 -40.967  20.254  1.00  0.00     0.124 A 
ATOM     12  C   UNL     1     -20.588 -38.426  21.375  1.00  0.00     0.001 A 
ATOM     13  C   UNL     1     -20.711 -39.858  19.433  1.00  0.00     0.046 A 
ATOM     14  C   UNL     1     -20.742 -38.584  19.998  1.00  0.00     0.004 A 
BRANCH  11  15
ATOM     15  O   UNL     1     -20.508 -42.228  19.716  1.00  0.00    -0.507 OA
ATOM     16  H   UNL     1     -21.430 -42.463  19.484  1.00  0.00     0.293 HD
ENDBRANCH  11  15
ENDBRANCH   8   9
ENDBRANCH   2   8
BRANCH   5  17
ATOM     17  C   UNL     1     -15.150 -42.401  25.489  1.00  0.00     0.012 C 
BRANCH  17  18
ATOM     18  C   UNL     1     -15.016 -43.254  26.758  1.00  0.00     0.081 C 
BRANCH  18  19
ATOM     19  C   UNL     1     -13.989 -44.360  26.568  1.00  0.00     0.162 C 
ATOM     20  O   UNL     1     -14.172 -45.275  25.767  1.00  0.00    -0.294 OA
BRANCH  19  21
ATOM     21  C   UNL     1     -12.736 -44.337  27.386  1.00  0.00     0.019 A 
ATOM     22  C   UNL     1     -12.349 -45.427  28.185  1.00  0.00     0.017 A 
ATOM     23  C   UNL     1     -11.930 -43.179  27.313  1.00  0.00     0.022 A 
ATOM     24  C   UNL     1     -11.177 -45.374  28.947  1.00  0.00    -0.022 A 
ATOM     25  C   UNL     1     -10.738 -43.123  28.055  1.00  0.00     0.001 A 
ATOM     26  C   UNL     1     -10.423 -44.208  28.851  1.00  0.00     0.059 A 
ATOM     27  C   UNL     1     -10.610 -46.495  29.763  1.00  0.00     0.047 C 
ATOM     28  C   UNL     1      -9.674 -42.193  28.212  1.00  0.00     0.029 A 
ATOM     29  N   UNL     1      -9.239 -43.961  29.510  1.00  0.00    -0.287 N 
ATOM     30  C   UNL     1      -9.667 -45.961  30.857  1.00  0.00     0.106 C 
ATOM     31  C   UNL     1      -8.754 -42.743  29.085  1.00  0.00     0.095 A 
ATOM     32  C   UNL     1      -8.699 -44.859  30.439  1.00  0.00     0.231 C 
ATOM     33  O   UNL     1      -7.594 -44.652  30.921  1.00  0.00    -0.274 OA
ENDBRANCH  19  21
ENDBRANCH  18  19
ENDBRANCH  17  18
ENDBRANCH   5  17
TORSDOF 7
ENDMDL
MODEL 7
REMARK VINA RESULT:   -11.055      2.203     11.375
REMARK INTER + INTRA:         -16.146
REMARK INTER:                 -15.249
REMARK INTRA:                  -0.897
REMARK UNBOUND:                -0.890
REMARK SMILES O=C(CC[C@H]1CC[N@H+](Cc2ccccc2O)CC1)c1cc2c3c(ccn3C(=O)CC2)c1
REMARK SMILES IDX 7 1 8 2 17 3 6 4 5 5 18 6 9 8 10 9 11 10 15 11 12 12 14 13
REMARK SMILES IDX 13 14 16 15 4 17 3 18 2 19 1 20 19 21 20 22 31 23 21 24
REMARK SMILES IDX 23 25 22 26 30 27 24 28 26 29 29 30 25 31 27 32 28 33
REMARK H PARENT 8 7 16 16
ROOT
ATOM      1  C   UNL     1     -20.428 -41.576  25.516  1.00  0.00     0.262 C 
ATOM      2  N   UNL     1     -20.257 -41.165  24.085  1.00  0.00    -0.331 N 
ATOM      3  C   UNL     1     -19.457 -42.156  23.289  1.00  0.00     0.262 C 
ATOM      4  C   UNL     1     -19.060 -41.731  26.162  1.00  0.00     0.065 C 
ATOM      5  C   UNL     1     -18.160 -42.719  25.400  1.00  0.00     0.000 C 
ATOM      6  C   UNL     1     -18.079 -42.322  23.918  1.00  0.00     0.065 C 
ATOM      7  H   UNL     1     -19.742 -40.265  24.073  1.00  0.00     0.348 HD
ENDROOT
BRANCH   2   8
ATOM      8  C   UNL     1     -21.572 -40.806  23.427  1.00  0.00     0.302 C 
BRANCH   8   9
ATOM      9  C   UNL     1     -21.426 -40.264  22.031  1.00  0.00     0.048 A 
ATOM     10  C   UNL     1     -20.665 -39.107  21.802  1.00  0.00     0.013 A 
ATOM     11  C   UNL     1     -21.991 -40.920  20.927  1.00  0.00     0.124 A 
ATOM     12  C   UNL     1     -20.495 -38.618  20.505  1.00  0.00     0.001 A 
ATOM     13  C   UNL     1     -21.824 -40.436  19.632  1.00  0.00     0.046 A 
ATOM     14  C   UNL     1     -21.075 -39.280  19.424  1.00  0.00     0.004 A 
BRANCH  11  15
ATOM     15  O   UNL     1     -22.737 -42.048  21.151  1.00  0.00    -0.507 OA
ATOM     16  H   UNL     1     -22.126 -42.813  21.135  1.00  0.00     0.293 HD
ENDBRANCH  11  15
ENDBRANCH   8   9
ENDBRANCH   2   8
BRANCH   5  17
ATOM     17  C   UNL     1     -16.773 -42.766  26.070  1.00  0.00     0.012 C 
BRANCH  17  18
ATOM     18  C   UNL     1     -15.613 -42.366  25.149  1.00  0.00     0.081 C 
BRANCH  18  19
ATOM     19  C   UNL     1     -14.596 -43.491  25.029  1.00  0.00     0.162 C 
ATOM     20  O   UNL     1     -14.542 -44.203  24.028  1.00  0.00    -0.294 OA
BRANCH  19  21
ATOM     21  C   UNL     1     -13.651 -43.741  26.162  1.00  0.00     0.019 A 
ATOM     22  C   UNL     1     -12.666 -42.807  26.530  1.00  0.00     0.017 A 
ATOM     23  C   UNL     1     -13.794 -44.953  26.875  1.00  0.00     0.022 A 
ATOM     24  C   UNL     1     -11.790 -43.072  27.587  1.00  0.00    -0.022 A 
ATOM     25  C   UNL     1     -12.934 -45.220  27.954  1.00  0.00     0.001 A 
ATOM     26  C   UNL     1     -11.962 -44.284  28.251  1.00  0.00     0.059 A 
ATOM     27  C   UNL     1     -10.764 -42.128  28.134  1.00  0.00     0.047 C 
ATOM     28  C   UNL     1     -12.789 -46.261  28.912  1.00  0.00     0.029 A 
ATOM     29  N   UNL     1     -11.213 -44.728  29.319  1.00  0.00    -0.287 N 
ATOM     30  C   UNL     1      -9.654 -42.888  28.884  1.00  0.00     0.106 C 
ATOM     31  C   UNL     1     -11.747 -45.920  29.755  1.00  0.00     0.095 A 
ATOM     32  C   UNL     1     -10.110 -44.015  29.806  1.00  0.00     0.231 C 
ATOM     33  O   UNL     1      -9.538 -44.388  30.820  1.00  0.00    -0.274 OA
ENDBRANCH  19  21
ENDBRANCH  18  19
ENDBRANCH  17  18
ENDBRANCH   5  17
TORSDOF 7
ENDMDL
MODEL 8
REMARK VINA RESULT:   -11.038      2.266     11.431
REMARK INTER + INTRA:         -16.123
REMARK INTER:                 -15.038
REMARK INTRA:                  -1.085
REMARK UNBOUND:                -0.890
REMARK SMILES O=C(CC[C@H]1CC[N@H+](Cc2ccccc2O)CC1)c1cc2c3c(ccn3C(=O)CC2)c1
REMARK SMILES IDX 7 1 8 2 17 3 6 4 5 5 18 6 9 8 10 9 11 10 15 11 12 12 14 13
REMARK SMILES IDX 13 14 16 15 4 17 3 18 2 19 1 20 19 21 20 22 31 23 21 24
REMARK SMILES IDX 23 25 22 26 30 27 24 28 26 29 29 30 25 31 27 32 28 33
REMARK H PARENT 8 7 16 16
ROOT
ATOM      1  C   UNL     1     -20.548 -41.801  25.159  1.00  0.00     0.262 C 
ATOM      2  N   UNL     1     -20.356 -41.279  23.768  1.00  0.00    -0.331 N 
ATOM      3  C   UNL     1     -19.444 -42.143  22.945  1.00  0.00     0.262 C 
ATOM      4  C   UNL     1     -19.198 -41.889  25.854  1.00  0.00     0.065 C 
ATOM      5  C   UNL     1     -18.188 -42.745  25.070  1.00  0.00     0.000 C 
ATOM      6  C   UNL     1     -18.083 -42.240  23.623  1.00  0.00     0.065 C 
ATOM      7  H   UNL     1     -19.919 -40.341  23.839  1.00  0.00     0.348 HD
ENDROOT
BRANCH   2   8
ATOM      8  C   UNL     1     -21.670 -40.984  23.077  1.00  0.00     0.302 C 
BRANCH   8   9
ATOM      9  C   UNL     1     -21.516 -40.458  21.675  1.00  0.00     0.048 A 
ATOM     10  C   UNL     1     -22.105 -41.139  20.599  1.00  0.00     0.013 A 
ATOM     11  C   UNL     1     -20.839 -39.257  21.414  1.00  0.00     0.124 A 
ATOM     12  C   UNL     1     -21.997 -40.638  19.300  1.00  0.00     0.001 A 
ATOM     13  C   UNL     1     -20.729 -38.753  20.121  1.00  0.00     0.046 A 
ATOM     14  C   UNL     1     -21.310 -39.449  19.062  1.00  0.00     0.004 A 
BRANCH  11  15
ATOM     15  O   UNL     1     -20.262 -38.593  22.464  1.00  0.00    -0.507 OA
ATOM     16  H   UNL     1     -20.782 -38.802  23.267  1.00  0.00     0.293 HD
ENDBRANCH  11  15
ENDBRANCH   8   9
ENDBRANCH   2   8
BRANCH   5  17
ATOM     17  C   UNL     1     -16.830 -42.725  25.797  1.00  0.00     0.012 C 
BRANCH  17  18
ATOM     18  C   UNL     1     -15.640 -42.358  24.901  1.00  0.00     0.081 C 
BRANCH  18  19
ATOM     19  C   UNL     1     -14.632 -43.496  24.837  1.00  0.00     0.162 C 
ATOM     20  O   UNL     1     -14.554 -44.230  23.853  1.00  0.00    -0.294 OA
BRANCH  19  21
ATOM     21  C   UNL     1     -13.725 -43.732  26.004  1.00  0.00     0.019 A 
ATOM     22  C   UNL     1     -13.774 -44.920  26.756  1.00  0.00     0.017 A 
ATOM     23  C   UNL     1     -12.791 -42.720  26.320  1.00  0.00     0.022 A 
ATOM     24  C   UNL     1     -12.921 -45.109  27.848  1.00  0.00    -0.022 A 
ATOM     25  C   UNL     1     -11.913 -42.908  27.401  1.00  0.00     0.001 A 
ATOM     26  C   UNL     1     -12.027 -44.078  28.127  1.00  0.00     0.059 A 
ATOM     27  C   UNL     1     -12.810 -46.357  28.668  1.00  0.00     0.047 C 
ATOM     28  C   UNL     1     -10.844 -42.178  27.989  1.00  0.00     0.029 A 
ATOM     29  N   UNL     1     -11.102 -44.072  29.148  1.00  0.00    -0.287 N 
ATOM     30  C   UNL     1     -12.215 -46.056  30.057  1.00  0.00     0.106 C 
ATOM     31  C   UNL     1     -10.345 -42.927  29.038  1.00  0.00     0.095 A 
ATOM     32  C   UNL     1     -11.024 -45.105  30.092  1.00  0.00     0.231 C 
ATOM     33  O   UNL     1     -10.122 -45.114  30.917  1.00  0.00    -0.274 OA
ENDBRANCH  19  21
ENDBRANCH  18  19
ENDBRANCH  17  18
ENDBRANCH   5  17
TORSDOF 7
ENDMDL
MODEL 9
REMARK VINA RESULT:   -11.018      1.785      3.119
REMARK INTER + INTRA:         -16.096
REMARK INTER:                 -15.639
REMARK INTRA:                  -0.457
REMARK UNBOUND:                -0.890
REMARK SMILES O=C(CC[C@H]1CC[N@H+](Cc2ccccc2O)CC1)c1cc2c3c(ccn3C(=O)CC2)c1
REMARK SMILES IDX 7 1 8 2 17 3 6 4 5 5 18 6 9 8 10 9 11 10 15 11 12 12 14 13
REMARK SMILES IDX 13 14 16 15 4 17 3 18 2 19 1 20 19 21 20 22 31 23 21 24
REMARK SMILES IDX 23 25 22 26 30 27 24 28 26 29 29 30 25 31 27 32 28 33
REMARK H PARENT 8 7 16 16
ROOT
ATOM      1  C   UNL     1     -14.485 -44.206  29.368  1.00  0.00     0.262 C 
ATOM      2  N   UNL     1     -13.792 -45.534  29.404  1.00  0.00    -0.331 N 
ATOM      3  C   UNL     1     -12.634 -45.609  28.451  1.00  0.00     0.262 C 
ATOM      4  C   UNL     1     -14.993 -43.941  27.959  1.00  0.00     0.065 C 
ATOM      5  C   UNL     1     -13.873 -44.016  26.907  1.00  0.00     0.000 C 
ATOM      6  C   UNL     1     -13.124 -45.351  27.031  1.00  0.00     0.065 C 
ATOM      7  H   UNL     1     -14.479 -46.257  29.120  1.00  0.00     0.348 HD
ENDROOT
BRANCH   2   8
ATOM      8  C   UNL     1     -13.426 -45.955  30.810  1.00  0.00     0.302 C 
BRANCH   8   9
ATOM      9  C   UNL     1     -12.062 -45.492  31.248  1.00  0.00     0.048 A 
ATOM     10  C   UNL     1     -10.951 -46.338  31.102  1.00  0.00     0.013 A 
ATOM     11  C   UNL     1     -11.854 -44.200  31.754  1.00  0.00     0.124 A 
ATOM     12  C   UNL     1      -9.678 -45.903  31.473  1.00  0.00     0.001 A 
ATOM     13  C   UNL     1     -10.586 -43.761  32.124  1.00  0.00     0.046 A 
ATOM     14  C   UNL     1      -9.496 -44.618  31.983  1.00  0.00     0.004 A 
BRANCH  11  15
ATOM     15  O   UNL     1     -12.939 -43.374  31.899  1.00  0.00    -0.507 OA
ATOM     16  H   UNL     1     -12.791 -42.831  32.699  1.00  0.00     0.293 HD
ENDBRANCH  11  15
ENDBRANCH   8   9
ENDBRANCH   2   8
BRANCH   5  17
ATOM     17  C   UNL     1     -14.476 -43.811  25.505  1.00  0.00     0.012 C 
BRANCH  17  18
ATOM     18  C   UNL     1     -14.464 -42.355  25.019  1.00  0.00     0.081 C 
BRANCH  18  19
ATOM     19  C   UNL     1     -15.519 -42.128  23.946  1.00  0.00     0.162 C 
ATOM     20  O   UNL     1     -15.210 -41.799  22.802  1.00  0.00    -0.294 OA
BRANCH  19  21
ATOM     21  C   UNL     1     -16.964 -42.297  24.298  1.00  0.00     0.019 A 
ATOM     22  C   UNL     1     -17.394 -42.430  25.630  1.00  0.00     0.017 A 
ATOM     23  C   UNL     1     -17.898 -42.297  23.238  1.00  0.00     0.022 A 
ATOM     24  C   UNL     1     -18.751 -42.597  25.929  1.00  0.00    -0.022 A 
ATOM     25  C   UNL     1     -19.265 -42.441  23.527  1.00  0.00     0.001 A 
ATOM     26  C   UNL     1     -19.631 -42.603  24.850  1.00  0.00     0.059 A 
ATOM     27  C   UNL     1     -19.345 -42.658  27.302  1.00  0.00     0.047 C 
ATOM     28  C   UNL     1     -20.474 -42.447  22.777  1.00  0.00     0.029 A 
ATOM     29  N   UNL     1     -20.999 -42.745  24.930  1.00  0.00    -0.287 N 
ATOM     30  C   UNL     1     -20.713 -43.366  27.283  1.00  0.00     0.106 C 
ATOM     31  C   UNL     1     -21.523 -42.604  23.664  1.00  0.00     0.095 A 
ATOM     32  C   UNL     1     -21.655 -42.989  26.144  1.00  0.00     0.231 C 
ATOM     33  O   UNL     1     -22.877 -43.002  26.188  1.00  0.00    -0.274 OA
ENDBRANCH  19  21
ENDBRANCH  18  19
ENDBRANCH  17  18
ENDBRANCH   5  17
TORSDOF 7
ENDMDL
