MODEL 1
REMARK VINA RESULT:   -13.410      0.000      0.000
REMARK INTER + INTRA:         -19.346
REMARK INTER:                 -18.505
REMARK INTRA:                  -0.840
REMARK UNBOUND:                -0.840
REMARK SMILES O=C1C(NCCCNc2c3c(nc4cc(Cl)ccc24)CCCC3)=CC(=O)c2c(O)cccc21
REMARK SMILES IDX 5 1 4 2 3 4 2 5 33 6 24 7 32 8 27 9 25 10 31 11 28 12 30 13
REMARK SMILES IDX 1 14 26 15 29 16 6 18 7 19 8 20 9 22 10 23 19 24 11 25 23 26
REMARK SMILES IDX 18 27 13 28 12 29 20 30 22 31 17 32 14 33 21 34 15 35 16 36
REMARK H PARENT 4 3 29 17 8 21
ROOT
ATOM      1  C   UNL     1     -12.309 -44.403  28.056  1.00  0.00     0.115 C 
ENDROOT
BRANCH   1   2
ATOM      2  N   UNL     1     -13.668 -43.904  28.047  1.00  0.00    -0.382 N 
ATOM      3  H   UNL     1     -13.982 -43.423  28.896  1.00  0.00     0.160 HD
BRANCH   2   4
ATOM      4  C   UNL     1     -14.514 -43.660  26.977  1.00  0.00     0.087 C 
ATOM      5  C   UNL     1     -15.851 -43.074  27.358  1.00  0.00     0.209 C 
ATOM      6  C   UNL     1     -16.830 -42.788  26.294  1.00  0.00     0.039 A 
ATOM      7  C   UNL     1     -14.253 -43.894  25.686  1.00  0.00     0.082 C 
ATOM      8  C   UNL     1     -18.079 -42.251  26.637  1.00  0.00     0.013 A 
ATOM      9  C   UNL     1     -16.523 -43.046  24.960  1.00  0.00     0.075 A 
ATOM     10  C   UNL     1     -15.212 -43.611  24.607  1.00  0.00     0.192 C 
ATOM     11  C   UNL     1     -19.018 -41.974  25.643  1.00  0.00     0.005 A 
ATOM     12  C   UNL     1     -17.472 -42.765  23.967  1.00  0.00     0.127 A 
ATOM     13  C   UNL     1     -18.713 -42.232  24.307  1.00  0.00     0.047 A 
ATOM     14  O   UNL     1     -16.108 -42.846  28.539  1.00  0.00    -0.287 OA
ATOM     15  O   UNL     1     -14.923 -43.842  23.438  1.00  0.00    -0.289 OA
BRANCH  12  16
ATOM     16  O   UNL     1     -17.251 -42.988  22.635  1.00  0.00    -0.507 OA
ATOM     17  H   UNL     1     -16.464 -42.470  22.355  1.00  0.00     0.293 HD
ENDBRANCH  12  16
ENDBRANCH   2   4
ENDBRANCH   1   2
BRANCH   1  18
ATOM     18  C   UNL     1     -12.229 -45.872  28.471  1.00  0.00     0.042 C 
BRANCH  18  19
ATOM     19  C   UNL     1     -11.019 -46.240  29.332  1.00  0.00     0.114 C 
BRANCH  19  20
ATOM     20  N   UNL     1     -11.397 -46.370  30.747  1.00  0.00    -0.384 N 
ATOM     21  H   UNL     1     -10.845 -47.110  31.179  1.00  0.00     0.160 HD
BRANCH  20  22
ATOM     22  C   UNL     1     -11.142 -45.157  31.456  1.00  0.00     0.049 A 
ATOM     23  C   UNL     1      -9.823 -44.855  31.818  1.00  0.00    -0.003 A 
ATOM     24  C   UNL     1     -12.198 -44.302  31.888  1.00  0.00     0.024 A 
ATOM     25  C   UNL     1      -9.598 -43.714  32.583  1.00  0.00     0.046 A 
ATOM     26  C   UNL     1      -8.632 -45.703  31.459  1.00  0.00     0.039 C 
ATOM     27  C   UNL     1     -13.571 -44.518  31.610  1.00  0.00     0.014 A 
ATOM     28  C   UNL     1     -11.841 -43.166  32.653  1.00  0.00     0.074 A 
ATOM     29  N   UNL     1     -10.578 -42.881  32.994  1.00  0.00    -0.252 NA
ATOM     30  C   UNL     1      -8.187 -43.404  33.011  1.00  0.00     0.056 C 
ATOM     31  C   UNL     1      -7.441 -44.845  31.017  1.00  0.00     0.005 C 
ATOM     32  C   UNL     1     -14.553 -43.637  32.063  1.00  0.00     0.021 A 
ATOM     33  C   UNL     1     -12.833 -42.301  33.091  1.00  0.00     0.049 A 
ATOM     34  C   UNL     1      -7.223 -43.567  31.838  1.00  0.00     0.007 C 
ATOM     35  C   UNL     1     -14.175 -42.528  32.802  1.00  0.00     0.043 A 
ATOM     36  Cl  UNL     1     -15.373 -41.432  33.371  1.00  0.00    -0.084 Cl
ENDBRANCH  20  22
ENDBRANCH  19  20
ENDBRANCH  18  19
ENDBRANCH   1  18
TORSDOF 7
ENDMDL
MODEL 2
REMARK VINA RESULT:   -12.372      1.899      3.656
REMARK INTER + INTRA:         -17.913
REMARK INTER:                 -17.339
REMARK INTRA:                  -0.575
REMARK UNBOUND:                -0.840
REMARK SMILES O=C1C(NCCCNc2c3c(nc4cc(Cl)ccc24)CCCC3)=CC(=O)c2c(O)cccc21
REMARK SMILES IDX 5 1 4 2 3 4 2 5 33 6 24 7 32 8 27 9 25 10 31 11 28 12 30 13
REMARK SMILES IDX 1 14 26 15 29 16 6 18 7 19 8 20 9 22 10 23 19 24 11 25 23 26
REMARK SMILES IDX 18 27 13 28 12 29 20 30 22 31 17 32 14 33 21 34 15 35 16 36
REMARK H PARENT 4 3 29 17 8 21
ROOT
ATOM      1  C   UNL     1     -12.299 -44.323  27.822  1.00  0.00     0.115 C 
ENDROOT
BRANCH   1   2
ATOM      2  N   UNL     1     -13.619 -43.730  27.853  1.00  0.00    -0.382 N 
ATOM      3  H   UNL     1     -13.838 -43.152  28.671  1.00  0.00     0.160 HD
BRANCH   2   4
ATOM      4  C   UNL     1     -14.521 -43.523  26.822  1.00  0.00     0.087 C 
ATOM      5  C   UNL     1     -15.860 -42.984  27.261  1.00  0.00     0.209 C 
ATOM      6  C   UNL     1     -16.896 -42.740  26.241  1.00  0.00     0.039 A 
ATOM      7  C   UNL     1     -14.310 -43.756  25.522  1.00  0.00     0.082 C 
ATOM      8  C   UNL     1     -18.147 -42.247  26.638  1.00  0.00     0.013 A 
ATOM      9  C   UNL     1     -16.640 -42.996  24.895  1.00  0.00     0.075 A 
ATOM     10  C   UNL     1     -15.327 -43.514  24.486  1.00  0.00     0.192 C 
ATOM     11  C   UNL     1     -19.140 -42.011  25.687  1.00  0.00     0.005 A 
ATOM     12  C   UNL     1     -17.643 -42.755  23.946  1.00  0.00     0.127 A 
ATOM     13  C   UNL     1     -18.886 -42.265  24.339  1.00  0.00     0.047 A 
ATOM     14  O   UNL     1     -16.071 -42.758  28.451  1.00  0.00    -0.287 OA
ATOM     15  O   UNL     1     -15.083 -43.743  23.306  1.00  0.00    -0.289 OA
BRANCH  12  16
ATOM     16  O   UNL     1     -17.475 -42.979  22.606  1.00  0.00    -0.507 OA
ATOM     17  H   UNL     1     -18.148 -43.632  22.310  1.00  0.00     0.293 HD
ENDBRANCH  12  16
ENDBRANCH   2   4
ENDBRANCH   1   2
BRANCH   1  18
ATOM     18  C   UNL     1     -12.249 -45.673  28.538  1.00  0.00     0.042 C 
BRANCH  18  19
ATOM     19  C   UNL     1     -13.419 -45.953  29.482  1.00  0.00     0.114 C 
BRANCH  19  20
ATOM     20  N   UNL     1     -12.941 -46.433  30.787  1.00  0.00    -0.384 N 
ATOM     21  H   UNL     1     -12.343 -47.248  30.651  1.00  0.00     0.160 HD
BRANCH  20  22
ATOM     22  C   UNL     1     -12.174 -45.429  31.452  1.00  0.00     0.049 A 
ATOM     23  C   UNL     1     -12.833 -44.291  31.935  1.00  0.00    -0.003 A 
ATOM     24  C   UNL     1     -10.754 -45.507  31.549  1.00  0.00     0.024 A 
ATOM     25  C   UNL     1     -12.064 -43.280  32.504  1.00  0.00     0.046 A 
ATOM     26  C   UNL     1     -14.321 -44.075  31.850  1.00  0.00     0.039 C 
ATOM     27  C   UNL     1      -9.975 -46.592  31.072  1.00  0.00     0.014 A 
ATOM     28  C   UNL     1     -10.084 -44.420  32.158  1.00  0.00     0.074 A 
ATOM     29  N   UNL     1     -10.720 -43.335  32.620  1.00  0.00    -0.252 NA
ATOM     30  C   UNL     1     -12.760 -42.035  32.988  1.00  0.00     0.056 C 
ATOM     31  C   UNL     1     -14.880 -43.481  33.148  1.00  0.00     0.005 C 
ATOM     32  C   UNL     1      -8.587 -46.603  31.202  1.00  0.00     0.021 A 
ATOM     33  C   UNL     1      -8.703 -44.453  32.280  1.00  0.00     0.049 A 
ATOM     34  C   UNL     1     -14.006 -42.396  33.793  1.00  0.00     0.007 C 
ATOM     35  C   UNL     1      -7.957 -45.530  31.810  1.00  0.00     0.043 A 
ATOM     36  Cl  UNL     1      -6.245 -45.527  31.977  1.00  0.00    -0.084 Cl
ENDBRANCH  20  22
ENDBRANCH  19  20
ENDBRANCH  18  19
ENDBRANCH   1  18
TORSDOF 7
ENDMDL
MODEL 3
REMARK VINA RESULT:   -11.817      0.973      2.074
REMARK INTER + INTRA:         -17.147
REMARK INTER:                 -16.327
REMARK INTRA:                  -0.820
REMARK UNBOUND:                -0.840
REMARK SMILES O=C1C(NCCCNc2c3c(nc4cc(Cl)ccc24)CCCC3)=CC(=O)c2c(O)cccc21
REMARK SMILES IDX 5 1 4 2 3 4 2 5 33 6 24 7 32 8 27 9 25 10 31 11 28 12 30 13
REMARK SMILES IDX 1 14 26 15 29 16 6 18 7 19 8 20 9 22 10 23 19 24 11 25 23 26
REMARK SMILES IDX 18 27 13 28 12 29 20 30 22 31 17 32 14 33 21 34 15 35 16 36
REMARK H PARENT 4 3 29 17 8 21
ROOT
ATOM      1  C   UNL     1     -12.313 -44.050  27.814  1.00  0.00     0.115 C 
ENDROOT
BRANCH   1   2
ATOM      2  N   UNL     1     -13.291 -44.109  26.748  1.00  0.00    -0.382 N 
ATOM      3  H   UNL     1     -13.134 -44.818  26.025  1.00  0.00     0.160 HD
BRANCH   2   4
ATOM      4  C   UNL     1     -14.583 -43.609  26.703  1.00  0.00     0.087 C 
ATOM      5  C   UNL     1     -15.129 -43.413  25.310  1.00  0.00     0.209 C 
ATOM      6  C   UNL     1     -16.492 -42.873  25.151  1.00  0.00     0.039 A 
ATOM      7  C   UNL     1     -15.352 -43.295  27.751  1.00  0.00     0.082 C 
ATOM      8  C   UNL     1     -17.007 -42.680  23.862  1.00  0.00     0.013 A 
ATOM      9  C   UNL     1     -17.264 -42.557  26.268  1.00  0.00     0.075 A 
ATOM     10  C   UNL     1     -16.716 -42.761  27.616  1.00  0.00     0.192 C 
ATOM     11  C   UNL     1     -18.294 -42.169  23.693  1.00  0.00     0.005 A 
ATOM     12  C   UNL     1     -18.556 -42.046  26.089  1.00  0.00     0.127 A 
ATOM     13  C   UNL     1     -19.069 -41.853  24.808  1.00  0.00     0.047 A 
ATOM     14  O   UNL     1     -14.439 -43.700  24.334  1.00  0.00    -0.287 OA
ATOM     15  O   UNL     1     -17.382 -42.492  28.611  1.00  0.00    -0.289 OA
BRANCH  12  16
ATOM     16  O   UNL     1     -19.380 -41.710  27.129  1.00  0.00    -0.507 OA
ATOM     17  H   UNL     1     -18.856 -41.725  27.962  1.00  0.00     0.293 HD
ENDBRANCH  12  16
ENDBRANCH   2   4
ENDBRANCH   1   2
BRANCH   1  18
ATOM     18  C   UNL     1     -11.986 -45.430  28.383  1.00  0.00     0.042 C 
BRANCH  18  19
ATOM     19  C   UNL     1     -12.978 -45.958  29.421  1.00  0.00     0.114 C 
BRANCH  19  20
ATOM     20  N   UNL     1     -12.288 -46.358  30.656  1.00  0.00    -0.384 N 
ATOM     21  H   UNL     1     -11.488 -46.946  30.423  1.00  0.00     0.160 HD
BRANCH  20  22
ATOM     22  C   UNL     1     -11.804 -45.215  31.363  1.00  0.00     0.049 A 
ATOM     23  C   UNL     1     -10.429 -45.111  31.610  1.00  0.00    -0.003 A 
ATOM     24  C   UNL     1     -12.687 -44.235  31.903  1.00  0.00     0.024 A 
ATOM     25  C   UNL     1      -9.981 -44.037  32.374  1.00  0.00     0.046 A 
ATOM     26  C   UNL     1      -9.405 -46.104  31.131  1.00  0.00     0.039 C 
ATOM     27  C   UNL     1     -14.097 -44.250  31.745  1.00  0.00     0.014 A 
ATOM     28  C   UNL     1     -12.110 -43.185  32.655  1.00  0.00     0.074 A 
ATOM     29  N   UNL     1     -10.794 -43.089  32.887  1.00  0.00    -0.252 NA
ATOM     30  C   UNL     1      -8.509 -43.940  32.680  1.00  0.00     0.056 C 
ATOM     31  C   UNL     1      -8.148 -45.407  30.600  1.00  0.00     0.005 C 
ATOM     32  C   UNL     1     -14.901 -43.256  32.301  1.00  0.00     0.021 A 
ATOM     33  C   UNL     1     -12.928 -42.204  33.196  1.00  0.00     0.049 A 
ATOM     34  C   UNL     1      -7.682 -44.198  31.423  1.00  0.00     0.007 C 
ATOM     35  C   UNL     1     -14.309 -42.234  33.024  1.00  0.00     0.043 A 
ATOM     36  Cl  UNL     1     -15.287 -41.000  33.718  1.00  0.00    -0.084 Cl
ENDBRANCH  20  22
ENDBRANCH  19  20
ENDBRANCH  18  19
ENDBRANCH   1  18
TORSDOF 7
ENDMDL
MODEL 4
REMARK VINA RESULT:   -11.399      4.337     10.489
REMARK INTER + INTRA:         -16.571
REMARK INTER:                 -15.990
REMARK INTRA:                  -0.581
REMARK UNBOUND:                -0.840
REMARK SMILES O=C1C(NCCCNc2c3c(nc4cc(Cl)ccc24)CCCC3)=CC(=O)c2c(O)cccc21
REMARK SMILES IDX 5 1 4 2 3 4 2 5 33 6 24 7 32 8 27 9 25 10 31 11 28 12 30 13
REMARK SMILES IDX 1 14 26 15 29 16 6 18 7 19 8 20 9 22 10 23 19 24 11 25 23 26
REMARK SMILES IDX 18 27 13 28 12 29 20 30 22 31 17 32 14 33 21 34 15 35 16 36
REMARK H PARENT 4 3 29 17 8 21
ROOT
ATOM      1  C   UNL     1     -14.784 -42.517  25.378  1.00  0.00     0.115 C 
ENDROOT
BRANCH   1   2
ATOM      2  N   UNL     1     -14.100 -43.627  26.009  1.00  0.00    -0.382 N 
ATOM      3  H   UNL     1     -14.293 -44.557  25.623  1.00  0.00     0.160 HD
BRANCH   2   4
ATOM      4  C   UNL     1     -12.976 -43.629  26.818  1.00  0.00     0.087 C 
ATOM      5  C   UNL     1     -12.721 -44.934  27.529  1.00  0.00     0.209 C 
ATOM      6  C   UNL     1     -11.555 -45.038  28.426  1.00  0.00     0.039 A 
ATOM      7  C   UNL     1     -12.136 -42.607  27.015  1.00  0.00     0.082 C 
ATOM      8  C   UNL     1     -11.312 -46.244  29.098  1.00  0.00     0.013 A 
ATOM      9  C   UNL     1     -10.701 -43.952  28.607  1.00  0.00     0.075 A 
ATOM     10  C   UNL     1     -10.963 -42.690  27.901  1.00  0.00     0.192 C 
ATOM     11  C   UNL     1     -10.214 -46.360  29.951  1.00  0.00     0.005 A 
ATOM     12  C   UNL     1      -9.600 -44.077  29.465  1.00  0.00     0.127 A 
ATOM     13  C   UNL     1      -9.357 -45.275  30.134  1.00  0.00     0.047 A 
ATOM     14  O   UNL     1     -13.479 -45.886  27.357  1.00  0.00    -0.287 OA
ATOM     15  O   UNL     1     -10.220 -41.725  28.045  1.00  0.00    -0.289 OA
BRANCH  12  16
ATOM     16  O   UNL     1      -8.713 -43.061  29.699  1.00  0.00    -0.507 OA
ATOM     17  H   UNL     1      -8.726 -42.449  28.930  1.00  0.00     0.293 HD
ENDBRANCH  12  16
ENDBRANCH   2   4
ENDBRANCH   1   2
BRANCH   1  18
ATOM     18  C   UNL     1     -15.244 -42.846  23.958  1.00  0.00     0.042 C 
BRANCH  18  19
ATOM     19  C   UNL     1     -16.158 -41.804  23.312  1.00  0.00     0.114 C 
BRANCH  19  20
ATOM     20  N   UNL     1     -17.389 -42.425  22.799  1.00  0.00    -0.384 N 
ATOM     21  H   UNL     1     -17.470 -43.371  23.168  1.00  0.00     0.160 HD
BRANCH  20  22
ATOM     22  C   UNL     1     -18.541 -41.690  23.212  1.00  0.00     0.049 A 
ATOM     23  C   UNL     1     -19.074 -41.935  24.484  1.00  0.00    -0.003 A 
ATOM     24  C   UNL     1     -19.215 -40.791  22.334  1.00  0.00     0.024 A 
ATOM     25  C   UNL     1     -20.247 -41.275  24.842  1.00  0.00     0.046 A 
ATOM     26  C   UNL     1     -18.478 -42.892  25.481  1.00  0.00     0.039 C 
ATOM     27  C   UNL     1     -18.789 -40.485  21.017  1.00  0.00     0.014 A 
ATOM     28  C   UNL     1     -20.393 -40.174  22.816  1.00  0.00     0.074 A 
ATOM     29  N   UNL     1     -20.897 -40.411  24.035  1.00  0.00    -0.252 NA
ATOM     30  C   UNL     1     -20.849 -41.565  26.192  1.00  0.00     0.056 C 
ATOM     31  C   UNL     1     -18.494 -42.313  26.900  1.00  0.00     0.005 C 
ATOM     32  C   UNL     1     -19.498 -39.594  20.212  1.00  0.00     0.021 A 
ATOM     33  C   UNL     1     -21.081 -39.288  22.001  1.00  0.00     0.049 A 
ATOM     34  C   UNL     1     -19.773 -41.551  27.274  1.00  0.00     0.007 C 
ATOM     35  C   UNL     1     -20.643 -38.996  20.712  1.00  0.00     0.043 A 
ATOM     36  Cl  UNL     1     -21.531 -37.895  19.732  1.00  0.00    -0.084 Cl
ENDBRANCH  20  22
ENDBRANCH  19  20
ENDBRANCH  18  19
ENDBRANCH   1  18
TORSDOF 7
ENDMDL
MODEL 5
REMARK VINA RESULT:   -11.307      2.209      4.199
REMARK INTER + INTRA:         -16.444
REMARK INTER:                 -15.932
REMARK INTRA:                  -0.512
REMARK UNBOUND:                -0.840
REMARK SMILES O=C1C(NCCCNc2c3c(nc4cc(Cl)ccc24)CCCC3)=CC(=O)c2c(O)cccc21
REMARK SMILES IDX 5 1 4 2 3 4 2 5 33 6 24 7 32 8 27 9 25 10 31 11 28 12 30 13
REMARK SMILES IDX 1 14 26 15 29 16 6 18 7 19 8 20 9 22 10 23 19 24 11 25 23 26
REMARK SMILES IDX 18 27 13 28 12 29 20 30 22 31 17 32 14 33 21 34 15 35 16 36
REMARK H PARENT 4 3 29 17 8 21
ROOT
ATOM      1  C   UNL     1     -13.434 -44.852  26.932  1.00  0.00     0.115 C 
ENDROOT
BRANCH   1   2
ATOM      2  N   UNL     1     -13.988 -43.520  26.807  1.00  0.00    -0.382 N 
ATOM      3  H   UNL     1     -13.316 -42.761  26.655  1.00  0.00     0.160 HD
BRANCH   2   4
ATOM      4  C   UNL     1     -15.284 -43.124  26.518  1.00  0.00     0.087 C 
ATOM      5  C   UNL     1     -15.592 -43.020  25.045  1.00  0.00     0.209 C 
ATOM      6  C   UNL     1     -16.941 -42.594  24.630  1.00  0.00     0.039 A 
ATOM      7  C   UNL     1     -16.243 -42.835  27.404  1.00  0.00     0.082 C 
ATOM      8  C   UNL     1     -17.236 -42.487  23.264  1.00  0.00     0.013 A 
ATOM      9  C   UNL     1     -17.915 -42.300  25.582  1.00  0.00     0.075 A 
ATOM     10  C   UNL     1     -17.598 -42.414  27.012  1.00  0.00     0.192 C 
ATOM     11  C   UNL     1     -18.508 -42.084  22.853  1.00  0.00     0.005 A 
ATOM     12  C   UNL     1     -19.190 -41.898  25.161  1.00  0.00     0.127 A 
ATOM     13  C   UNL     1     -19.485 -41.790  23.803  1.00  0.00     0.047 A 
ATOM     14  O   UNL     1     -14.725 -43.287  24.216  1.00  0.00    -0.287 OA
ATOM     15  O   UNL     1     -18.444 -42.162  27.864  1.00  0.00    -0.289 OA
BRANCH  12  16
ATOM     16  O   UNL     1     -20.203 -41.590  26.028  1.00  0.00    -0.507 OA
ATOM     17  H   UNL     1     -21.045 -41.539  25.523  1.00  0.00     0.293 HD
ENDBRANCH  12  16
ENDBRANCH   2   4
ENDBRANCH   1   2
BRANCH   1  18
ATOM     18  C   UNL     1     -12.882 -45.126  28.330  1.00  0.00     0.042 C 
BRANCH  18  19
ATOM     19  C   UNL     1     -13.905 -45.037  29.464  1.00  0.00     0.114 C 
BRANCH  19  20
ATOM     20  N   UNL     1     -13.440 -45.762  30.655  1.00  0.00    -0.384 N 
ATOM     21  H   UNL     1     -12.939 -46.602  30.367  1.00  0.00     0.160 HD
BRANCH  20  22
ATOM     22  C   UNL     1     -12.547 -44.958  31.426  1.00  0.00     0.049 A 
ATOM     23  C   UNL     1     -13.059 -43.838  32.094  1.00  0.00    -0.003 A 
ATOM     24  C   UNL     1     -11.143 -45.206  31.454  1.00  0.00     0.024 A 
ATOM     25  C   UNL     1     -12.165 -43.014  32.772  1.00  0.00     0.046 A 
ATOM     26  C   UNL     1     -14.513 -43.449  32.102  1.00  0.00     0.039 C 
ATOM     27  C   UNL     1     -10.506 -46.288  30.794  1.00  0.00     0.014 A 
ATOM     28  C   UNL     1     -10.339 -44.301  32.185  1.00  0.00     0.074 A 
ATOM     29  N   UNL     1     -10.834 -43.234  32.824  1.00  0.00    -0.252 NA
ATOM     30  C   UNL     1     -12.702 -41.785  33.458  1.00  0.00     0.056 C 
ATOM     31  C   UNL     1     -14.969 -42.996  33.493  1.00  0.00     0.005 C 
ATOM     32  C   UNL     1      -9.126 -46.471  30.865  1.00  0.00     0.021 A 
ATOM     33  C   UNL     1      -8.968 -44.504  32.246  1.00  0.00     0.049 A 
ATOM     34  C   UNL     1     -13.962 -42.121  34.252  1.00  0.00     0.007 C 
ATOM     35  C   UNL     1      -8.362 -45.576  31.596  1.00  0.00     0.043 A 
ATOM     36  Cl  UNL     1      -6.658 -45.787  31.693  1.00  0.00    -0.084 Cl
ENDBRANCH  20  22
ENDBRANCH  19  20
ENDBRANCH  18  19
ENDBRANCH   1  18
TORSDOF 7
ENDMDL
MODEL 6
REMARK VINA RESULT:   -10.725      3.450      9.429
REMARK INTER + INTRA:         -15.641
REMARK INTER:                 -15.332
REMARK INTRA:                  -0.309
REMARK UNBOUND:                -0.840
REMARK SMILES O=C1C(NCCCNc2c3c(nc4cc(Cl)ccc24)CCCC3)=CC(=O)c2c(O)cccc21
REMARK SMILES IDX 5 1 4 2 3 4 2 5 33 6 24 7 32 8 27 9 25 10 31 11 28 12 30 13
REMARK SMILES IDX 1 14 26 15 29 16 6 18 7 19 8 20 9 22 10 23 19 24 11 25 23 26
REMARK SMILES IDX 18 27 13 28 12 29 20 30 22 31 17 32 14 33 21 34 15 35 16 36
REMARK H PARENT 4 3 29 17 8 21
ROOT
ATOM      1  C   UNL     1     -14.781 -44.142  31.218  1.00  0.00     0.115 C 
ENDROOT
BRANCH   1   2
ATOM      2  N   UNL     1     -13.407 -44.105  30.762  1.00  0.00    -0.382 N 
ATOM      3  H   UNL     1     -13.265 -44.072  29.747  1.00  0.00     0.160 HD
BRANCH   2   4
ATOM      4  C   UNL     1     -12.255 -43.765  31.452  1.00  0.00     0.087 C 
ATOM      5  C   UNL     1     -11.021 -44.516  31.016  1.00  0.00     0.209 C 
ATOM      6  C   UNL     1      -9.743 -44.237  31.697  1.00  0.00     0.039 A 
ATOM      7  C   UNL     1     -12.153 -42.865  32.436  1.00  0.00     0.082 C 
ATOM      8  C   UNL     1      -8.591 -44.935  31.305  1.00  0.00     0.013 A 
ATOM      9  C   UNL     1      -9.675 -43.292  32.718  1.00  0.00     0.075 A 
ATOM     10  C   UNL     1     -10.887 -42.566  33.124  1.00  0.00     0.192 C 
ATOM     11  C   UNL     1      -7.373 -44.684  31.939  1.00  0.00     0.005 A 
ATOM     12  C   UNL     1      -8.447 -43.046  33.348  1.00  0.00     0.127 A 
ATOM     13  C   UNL     1      -7.302 -43.738  32.961  1.00  0.00     0.047 A 
ATOM     14  O   UNL     1     -11.093 -45.344  30.110  1.00  0.00    -0.287 OA
ATOM     15  O   UNL     1     -10.846 -41.728  34.019  1.00  0.00    -0.289 OA
BRANCH  12  16
ATOM     16  O   UNL     1      -8.293 -42.136  34.359  1.00  0.00    -0.507 OA
ATOM     17  H   UNL     1      -7.739 -41.393  34.031  1.00  0.00     0.293 HD
ENDBRANCH  12  16
ENDBRANCH   2   4
ENDBRANCH   1   2
BRANCH   1  18
ATOM     18  C   UNL     1     -15.619 -43.003  30.639  1.00  0.00     0.042 C 
BRANCH  18  19
ATOM     19  C   UNL     1     -16.407 -43.352  29.374  1.00  0.00     0.114 C 
BRANCH  19  20
ATOM     20  N   UNL     1     -16.769 -42.139  28.626  1.00  0.00    -0.384 N 
ATOM     21  H   UNL     1     -15.998 -41.472  28.666  1.00  0.00     0.160 HD
BRANCH  20  22
ATOM     22  C   UNL     1     -17.019 -42.442  27.254  1.00  0.00     0.049 A 
ATOM     23  C   UNL     1     -15.959 -42.903  26.463  1.00  0.00    -0.003 A 
ATOM     24  C   UNL     1     -18.287 -42.197  26.648  1.00  0.00     0.024 A 
ATOM     25  C   UNL     1     -16.195 -43.113  25.107  1.00  0.00     0.046 A 
ATOM     26  C   UNL     1     -14.567 -43.157  26.978  1.00  0.00     0.039 C 
ATOM     27  C   UNL     1     -19.424 -41.705  27.337  1.00  0.00     0.014 A 
ATOM     28  C   UNL     1     -18.405 -42.459  25.263  1.00  0.00     0.074 A 
ATOM     29  N   UNL     1     -17.388 -42.902  24.512  1.00  0.00    -0.252 NA
ATOM     30  C   UNL     1     -15.049 -43.569  24.242  1.00  0.00     0.056 C 
ATOM     31  C   UNL     1     -13.981 -44.453  26.407  1.00  0.00     0.005 C 
ATOM     32  C   UNL     1     -20.635 -41.490  26.680  1.00  0.00     0.021 A 
ATOM     33  C   UNL     1     -19.620 -42.241  24.630  1.00  0.00     0.049 A 
ATOM     34  C   UNL     1     -14.280 -44.699  24.922  1.00  0.00     0.007 C 
ATOM     35  C   UNL     1     -20.727 -41.763  25.325  1.00  0.00     0.043 A 
ATOM     36  Cl  UNL     1     -22.213 -41.501  24.500  1.00  0.00    -0.084 Cl
ENDBRANCH  20  22
ENDBRANCH  19  20
ENDBRANCH  18  19
ENDBRANCH   1  18
TORSDOF 7
ENDMDL
MODEL 7
REMARK VINA RESULT:   -10.598      3.645      9.192
REMARK INTER + INTRA:         -15.465
REMARK INTER:                 -15.066
REMARK INTRA:                  -0.399
REMARK UNBOUND:                -0.840
REMARK SMILES O=C1C(NCCCNc2c3c(nc4cc(Cl)ccc24)CCCC3)=CC(=O)c2c(O)cccc21
REMARK SMILES IDX 5 1 4 2 3 4 2 5 33 6 24 7 32 8 27 9 25 10 31 11 28 12 30 13
REMARK SMILES IDX 1 14 26 15 29 16 6 18 7 19 8 20 9 22 10 23 19 24 11 25 23 26
REMARK SMILES IDX 18 27 13 28 12 29 20 30 22 31 17 32 14 33 21 34 15 35 16 36
REMARK H PARENT 4 3 29 17 8 21
ROOT
ATOM      1  C   UNL     1     -14.916 -43.842  31.392  1.00  0.00     0.115 C 
ENDROOT
BRANCH   1   2
ATOM      2  N   UNL     1     -13.611 -43.330  31.756  1.00  0.00    -0.382 N 
ATOM      3  H   UNL     1     -13.598 -42.533  32.400  1.00  0.00     0.160 HD
BRANCH   2   4
ATOM      4  C   UNL     1     -12.366 -43.931  31.658  1.00  0.00     0.087 C 
ATOM      5  C   UNL     1     -11.257 -43.187  32.359  1.00  0.00     0.209 C 
ATOM      6  C   UNL     1      -9.889 -43.736  32.306  1.00  0.00     0.039 A 
ATOM      7  C   UNL     1     -12.079 -45.068  31.017  1.00  0.00     0.082 C 
ATOM      8  C   UNL     1      -8.849 -43.049  32.947  1.00  0.00     0.013 A 
ATOM      9  C   UNL     1      -9.628 -44.924  31.627  1.00  0.00     0.075 A 
ATOM     10  C   UNL     1     -10.724 -45.638  30.956  1.00  0.00     0.192 C 
ATOM     11  C   UNL     1      -7.548 -43.553  32.907  1.00  0.00     0.005 A 
ATOM     12  C   UNL     1      -8.320 -45.424  31.592  1.00  0.00     0.127 A 
ATOM     13  C   UNL     1      -7.285 -44.743  32.228  1.00  0.00     0.047 A 
ATOM     14  O   UNL     1     -11.501 -42.142  32.959  1.00  0.00    -0.287 OA
ATOM     15  O   UNL     1     -10.514 -46.687  30.356  1.00  0.00    -0.289 OA
BRANCH  12  16
ATOM     16  O   UNL     1      -7.978 -46.583  30.948  1.00  0.00    -0.507 OA
ATOM     17  H   UNL     1      -8.795 -47.000  30.596  1.00  0.00     0.293 HD
ENDBRANCH  12  16
ENDBRANCH   2   4
ENDBRANCH   1   2
BRANCH   1  18
ATOM     18  C   UNL     1     -15.804 -42.775  30.753  1.00  0.00     0.042 C 
BRANCH  18  19
ATOM     19  C   UNL     1     -16.452 -43.177  29.427  1.00  0.00     0.114 C 
BRANCH  19  20
ATOM     20  N   UNL     1     -16.727 -41.997  28.594  1.00  0.00    -0.384 N 
ATOM     21  H   UNL     1     -15.906 -41.393  28.580  1.00  0.00     0.160 HD
BRANCH  20  22
ATOM     22  C   UNL     1     -17.017 -42.379  27.249  1.00  0.00     0.049 A 
ATOM     23  C   UNL     1     -15.972 -42.855  26.446  1.00  0.00    -0.003 A 
ATOM     24  C   UNL     1     -18.310 -42.198  26.677  1.00  0.00     0.024 A 
ATOM     25  C   UNL     1     -16.249 -43.143  25.112  1.00  0.00     0.046 A 
ATOM     26  C   UNL     1     -14.557 -43.047  26.923  1.00  0.00     0.039 C 
ATOM     27  C   UNL     1     -19.436 -41.698  27.380  1.00  0.00     0.014 A 
ATOM     28  C   UNL     1     -18.469 -42.536  25.312  1.00  0.00     0.074 A 
ATOM     29  N   UNL     1     -17.467 -42.992  24.550  1.00  0.00    -0.252 NA
ATOM     30  C   UNL     1     -15.123 -43.615  24.231  1.00  0.00     0.056 C 
ATOM     31  C   UNL     1     -13.957 -44.356  26.400  1.00  0.00     0.005 C 
ATOM     32  C   UNL     1     -20.674 -41.548  26.757  1.00  0.00     0.021 A 
ATOM     33  C   UNL     1     -19.711 -42.382  24.713  1.00  0.00     0.049 A 
ATOM     34  C   UNL     1     -14.301 -44.689  24.941  1.00  0.00     0.007 C 
ATOM     35  C   UNL     1     -20.805 -41.895  25.422  1.00  0.00     0.043 A 
ATOM     36  Cl  UNL     1     -22.325 -41.714  24.637  1.00  0.00    -0.084 Cl
ENDBRANCH  20  22
ENDBRANCH  19  20
ENDBRANCH  18  19
ENDBRANCH   1  18
TORSDOF 7
ENDMDL
