MODEL 1
REMARK VINA RESULT:    -9.836      0.000      0.000
REMARK INTER + INTRA:         -14.573
REMARK INTER:                 -13.573
REMARK INTRA:                  -1.000
REMARK UNBOUND:                -1.000
REMARK SMILES COc1ccc([C@@H]2C=C(c3cc(F)ccc3F)NN2c2ccc(S(N)(=O)=O)cc2)c(OC)c1
REMARK SMILES IDX 20 1 21 2 22 3 23 4 28 5 29 6 19 7 18 8 9 9 8 10 7 11 10 13
REMARK SMILES IDX 11 14 16 15 12 16 15 17 14 18 17 19 13 20 6 21 5 22 30 23
REMARK SMILES IDX 4 24 33 25 3 26 31 27 32 28 2 29 1 30 24 31 26 32 27 33
REMARK SMILES IDX 25 34
REMARK H PARENT 18 12 25 35 25 36
ROOT
ATOM      1  C   UNL     1     -17.716 -42.515  25.200  1.00  0.00     0.058 A 
ATOM      2  C   UNL     1     -16.687 -43.103  24.436  1.00  0.00     0.029 A 
ATOM      3  C   UNL     1     -15.490 -43.540  25.014  1.00  0.00     0.024 A 
ATOM      4  C   UNL     1     -15.303 -43.394  26.386  1.00  0.00     0.082 A 
ATOM      5  C   UNL     1     -16.307 -42.841  27.179  1.00  0.00     0.024 A 
ATOM      6  C   UNL     1     -17.499 -42.410  26.584  1.00  0.00     0.029 A 
ENDROOT
BRANCH   1   7
ATOM      7  N   UNL     1     -18.910 -42.111  24.583  1.00  0.00    -0.276 N 
ATOM      8  N   UNL     1     -18.935 -41.524  23.321  1.00  0.00    -0.297 N 
ATOM      9  C   UNL     1     -20.066 -40.734  23.166  1.00  0.00     0.063 C 
ATOM     10  C   UNL     1     -20.740 -40.681  24.327  1.00  0.00     0.033 C 
ATOM     11  C   UNL     1     -20.053 -41.548  25.368  1.00  0.00     0.164 C 
ATOM     12  H   UNL     1     -18.813 -42.170  22.535  1.00  0.00     0.188 HD
BRANCH   9  13
ATOM     13  C   UNL     1     -20.435 -40.136  21.879  1.00  0.00     0.038 A 
ATOM     14  C   UNL     1     -21.762 -39.764  21.613  1.00  0.00     0.052 A 
ATOM     15  C   UNL     1     -19.479 -39.898  20.878  1.00  0.00     0.132 A 
ATOM     16  C   UNL     1     -22.101 -39.187  20.390  1.00  0.00     0.124 A 
ATOM     17  C   UNL     1     -19.821 -39.320  19.654  1.00  0.00     0.043 A 
ATOM     18  C   UNL     1     -21.143 -38.962  19.408  1.00  0.00     0.042 A 
ATOM     19  F   UNL     1     -18.193 -40.237  21.072  1.00  0.00    -0.206 F 
ATOM     20  F   UNL     1     -23.373 -38.839  20.160  1.00  0.00    -0.207 F 
ENDBRANCH   9  13
BRANCH  11  21
ATOM     21  C   UNL     1     -20.985 -42.590  25.961  1.00  0.00     0.023 A 
ATOM     22  C   UNL     1     -20.799 -43.937  25.596  1.00  0.00     0.014 A 
ATOM     23  C   UNL     1     -22.009 -42.303  26.878  1.00  0.00     0.128 A 
ATOM     24  C   UNL     1     -21.611 -44.946  26.121  1.00  0.00     0.047 A 
ATOM     25  C   UNL     1     -22.807 -43.320  27.423  1.00  0.00     0.093 A 
ATOM     26  C   UNL     1     -22.618 -44.645  27.037  1.00  0.00     0.122 A 
BRANCH  23  27
ATOM     27  O   UNL     1     -22.187 -41.020  27.329  1.00  0.00    -0.496 OA
ATOM     28  C   UNL     1     -23.571 -40.741  27.548  1.00  0.00     0.278 C 
ENDBRANCH  23  27
BRANCH  26  29
ATOM     29  O   UNL     1     -23.328 -45.726  27.482  1.00  0.00    -0.497 OA
ATOM     30  C   UNL     1     -24.007 -45.581  28.723  1.00  0.00     0.278 C 
ENDBRANCH  26  29
ENDBRANCH  11  21
ENDBRANCH   1   7
BRANCH   4  31
ATOM     31  S   UNL     1     -13.796 -43.942  27.138  1.00  0.00     0.238 S 
ATOM     32  O   UNL     1     -12.859 -42.843  27.148  1.00  0.00    -0.207 OA
ATOM     33  O   UNL     1     -13.464 -45.242  26.607  1.00  0.00    -0.207 OA
BRANCH  31  34
ATOM     34  N   UNL     1     -14.276 -44.144  28.740  1.00  0.00    -0.225 NA
ATOM     35  H   UNL     1     -14.373 -45.123  29.009  1.00  0.00     0.137 HD
ATOM     36  H   UNL     1     -15.139 -43.620  28.893  1.00  0.00     0.137 HD
ENDBRANCH  31  34
ENDBRANCH   4  31
TORSDOF 7
ENDMDL
MODEL 2
REMARK VINA RESULT:    -9.725      3.119      6.036
REMARK INTER + INTRA:         -14.420
REMARK INTER:                 -13.079
REMARK INTRA:                  -1.341
REMARK UNBOUND:                -1.000
REMARK SMILES COc1ccc([C@@H]2C=C(c3cc(F)ccc3F)NN2c2ccc(S(N)(=O)=O)cc2)c(OC)c1
REMARK SMILES IDX 20 1 21 2 22 3 23 4 28 5 29 6 19 7 18 8 9 9 8 10 7 11 10 13
REMARK SMILES IDX 11 14 16 15 12 16 15 17 14 18 17 19 13 20 6 21 5 22 30 23
REMARK SMILES IDX 4 24 33 25 3 26 31 27 32 28 2 29 1 30 24 31 26 32 27 33
REMARK SMILES IDX 25 34
REMARK H PARENT 18 12 25 35 25 36
ROOT
ATOM      1  C   UNL     1     -18.652 -42.100  25.974  1.00  0.00     0.058 A 
ATOM      2  C   UNL     1     -18.142 -42.232  27.282  1.00  0.00     0.029 A 
ATOM      3  C   UNL     1     -16.848 -42.699  27.532  1.00  0.00     0.024 A 
ATOM      4  C   UNL     1     -16.031 -43.047  26.460  1.00  0.00     0.082 A 
ATOM      5  C   UNL     1     -16.488 -42.906  25.151  1.00  0.00     0.024 A 
ATOM      6  C   UNL     1     -17.787 -42.435  24.919  1.00  0.00     0.029 A 
ENDROOT
BRANCH   1   7
ATOM      7  N   UNL     1     -19.949 -41.606  25.768  1.00  0.00    -0.276 N 
ATOM      8  N   UNL     1     -20.718 -41.076  26.801  1.00  0.00    -0.297 N 
ATOM      9  C   UNL     1     -22.071 -41.179  26.511  1.00  0.00     0.063 C 
ATOM     10  C   UNL     1     -22.237 -41.865  25.368  1.00  0.00     0.033 C 
ATOM     11  C   UNL     1     -20.884 -42.229  24.780  1.00  0.00     0.164 C 
ATOM     12  H   UNL     1     -20.463 -40.129  27.095  1.00  0.00     0.188 HD
BRANCH   9  13
ATOM     13  C   UNL     1     -23.102 -40.548  27.342  1.00  0.00     0.038 A 
ATOM     14  C   UNL     1     -23.219 -39.151  27.407  1.00  0.00     0.052 A 
ATOM     15  C   UNL     1     -24.016 -41.313  28.085  1.00  0.00     0.132 A 
ATOM     16  C   UNL     1     -24.208 -38.562  28.191  1.00  0.00     0.124 A 
ATOM     17  C   UNL     1     -25.006 -40.720  28.871  1.00  0.00     0.043 A 
ATOM     18  C   UNL     1     -25.102 -39.332  28.925  1.00  0.00     0.042 A 
ATOM     19  F   UNL     1     -23.952 -42.655  28.068  1.00  0.00    -0.206 F 
ATOM     20  F   UNL     1     -24.301 -37.226  28.236  1.00  0.00    -0.207 F 
ENDBRANCH   9  13
BRANCH  11  21
ATOM     21  C   UNL     1     -20.719 -41.733  23.354  1.00  0.00     0.023 A 
ATOM     22  C   UNL     1     -20.140 -40.465  23.151  1.00  0.00     0.014 A 
ATOM     23  C   UNL     1     -21.080 -42.469  22.215  1.00  0.00     0.128 A 
ATOM     24  C   UNL     1     -19.944 -39.959  21.864  1.00  0.00     0.047 A 
ATOM     25  C   UNL     1     -20.860 -41.970  20.923  1.00  0.00     0.093 A 
ATOM     26  C   UNL     1     -20.300 -40.707  20.743  1.00  0.00     0.122 A 
BRANCH  23  27
ATOM     27  O   UNL     1     -21.577 -43.741  22.348  1.00  0.00    -0.496 OA
ATOM     28  C   UNL     1     -22.297 -44.135  21.179  1.00  0.00     0.278 C 
ENDBRANCH  23  27
BRANCH  26  29
ATOM     29  O   UNL     1     -20.042 -40.101  19.545  1.00  0.00    -0.497 OA
ATOM     30  C   UNL     1     -20.528 -38.774  19.378  1.00  0.00     0.278 C 
ENDBRANCH  26  29
ENDBRANCH  11  21
ENDBRANCH   1   7
BRANCH   4  31
ATOM     31  S   UNL     1     -14.387 -43.639  26.754  1.00  0.00     0.238 S 
ATOM     32  O   UNL     1     -13.488 -42.508  26.782  1.00  0.00    -0.207 OA
ATOM     33  O   UNL     1     -14.159 -44.794  25.920  1.00  0.00    -0.207 OA
BRANCH  31  34
ATOM     34  N   UNL     1     -14.503 -44.166  28.350  1.00  0.00    -0.225 NA
ATOM     35  H   UNL     1     -14.266 -45.152  28.463  1.00  0.00     0.137 HD
ATOM     36  H   UNL     1     -15.440 -43.957  28.698  1.00  0.00     0.137 HD
ENDBRANCH  31  34
ENDBRANCH   4  31
TORSDOF 7
ENDMDL
MODEL 3
REMARK VINA RESULT:    -9.519      4.358      7.494
REMARK INTER + INTRA:         -14.135
REMARK INTER:                 -12.650
REMARK INTRA:                  -1.485
REMARK UNBOUND:                -1.000
REMARK SMILES COc1ccc([C@@H]2C=C(c3cc(F)ccc3F)NN2c2ccc(S(N)(=O)=O)cc2)c(OC)c1
REMARK SMILES IDX 20 1 21 2 22 3 23 4 28 5 29 6 19 7 18 8 9 9 8 10 7 11 10 13
REMARK SMILES IDX 11 14 16 15 12 16 15 17 14 18 17 19 13 20 6 21 5 22 30 23
REMARK SMILES IDX 4 24 33 25 3 26 31 27 32 28 2 29 1 30 24 31 26 32 27 33
REMARK SMILES IDX 25 34
REMARK H PARENT 18 12 25 35 25 36
ROOT
ATOM      1  C   UNL     1     -20.744 -40.436  22.707  1.00  0.00     0.058 A 
ATOM      2  C   UNL     1     -19.950 -39.764  21.755  1.00  0.00     0.029 A 
ATOM      3  C   UNL     1     -20.511 -39.007  20.722  1.00  0.00     0.024 A 
ATOM      4  C   UNL     1     -21.896 -38.909  20.623  1.00  0.00     0.082 A 
ATOM      5  C   UNL     1     -22.714 -39.537  21.559  1.00  0.00     0.024 A 
ATOM      6  C   UNL     1     -22.136 -40.291  22.589  1.00  0.00     0.029 A 
ENDROOT
BRANCH   1   7
ATOM      7  N   UNL     1     -20.140 -41.167  23.741  1.00  0.00    -0.276 N 
ATOM      8  N   UNL     1     -18.768 -41.402  23.785  1.00  0.00    -0.297 N 
ATOM      9  C   UNL     1     -18.486 -42.546  24.518  1.00  0.00     0.063 C 
ATOM     10  C   UNL     1     -19.634 -43.151  24.869  1.00  0.00     0.033 C 
ATOM     11  C   UNL     1     -20.820 -42.333  24.387  1.00  0.00     0.164 C 
ATOM     12  H   UNL     1     -18.197 -40.607  24.088  1.00  0.00     0.188 HD
BRANCH   9  13
ATOM     13  C   UNL     1     -17.117 -42.935  24.872  1.00  0.00     0.038 A 
ATOM     14  C   UNL     1     -16.268 -43.523  23.922  1.00  0.00     0.052 A 
ATOM     15  C   UNL     1     -16.601 -42.716  26.160  1.00  0.00     0.132 A 
ATOM     16  C   UNL     1     -14.965 -43.879  24.265  1.00  0.00     0.124 A 
ATOM     17  C   UNL     1     -15.295 -43.073  26.500  1.00  0.00     0.043 A 
ATOM     18  C   UNL     1     -14.471 -43.660  25.545  1.00  0.00     0.042 A 
ATOM     19  F   UNL     1     -17.367 -42.160  27.114  1.00  0.00    -0.206 F 
ATOM     20  F   UNL     1     -14.173 -44.438  23.341  1.00  0.00    -0.207 F 
ENDBRANCH   9  13
BRANCH  11  21
ATOM     21  C   UNL     1     -21.768 -41.966  25.515  1.00  0.00     0.023 A 
ATOM     22  C   UNL     1     -21.523 -40.780  26.233  1.00  0.00     0.014 A 
ATOM     23  C   UNL     1     -22.897 -42.719  25.873  1.00  0.00     0.128 A 
ATOM     24  C   UNL     1     -22.368 -40.376  27.270  1.00  0.00     0.047 A 
ATOM     25  C   UNL     1     -23.759 -42.299  26.899  1.00  0.00     0.093 A 
ATOM     26  C   UNL     1     -23.490 -41.131  27.608  1.00  0.00     0.122 A 
BRANCH  23  27
ATOM     27  O   UNL     1     -23.230 -43.842  25.159  1.00  0.00    -0.496 OA
ATOM     28  C   UNL     1     -23.081 -45.018  25.956  1.00  0.00     0.278 C 
ENDBRANCH  23  27
BRANCH  26  29
ATOM     29  O   UNL     1     -24.239 -40.616  28.631  1.00  0.00    -0.497 OA
ATOM     30  C   UNL     1     -24.493 -39.217  28.600  1.00  0.00     0.278 C 
ENDBRANCH  26  29
ENDBRANCH  11  21
ENDBRANCH   1   7
BRANCH   4  31
ATOM     31  S   UNL     1     -22.626 -37.953  19.323  1.00  0.00     0.238 S 
ATOM     32  O   UNL     1     -24.055 -37.904  19.533  1.00  0.00    -0.207 OA
ATOM     33  O   UNL     1     -22.038 -38.357  18.069  1.00  0.00    -0.207 OA
BRANCH  31  34
ATOM     34  N   UNL     1     -22.061 -36.407  19.686  1.00  0.00    -0.225 NA
ATOM     35  H   UNL     1     -22.797 -35.778  20.007  1.00  0.00     0.137 HD
ATOM     36  H   UNL     1     -21.572 -36.037  18.870  1.00  0.00     0.137 HD
ENDBRANCH  31  34
ENDBRANCH   4  31
TORSDOF 7
ENDMDL
MODEL 4
REMARK VINA RESULT:    -9.441      7.478     11.480
REMARK INTER + INTRA:         -14.029
REMARK INTER:                 -13.016
REMARK INTRA:                  -1.013
REMARK UNBOUND:                -1.000
REMARK SMILES COc1ccc([C@@H]2C=C(c3cc(F)ccc3F)NN2c2ccc(S(N)(=O)=O)cc2)c(OC)c1
REMARK SMILES IDX 20 1 21 2 22 3 23 4 28 5 29 6 19 7 18 8 9 9 8 10 7 11 10 13
REMARK SMILES IDX 11 14 16 15 12 16 15 17 14 18 17 19 13 20 6 21 5 22 30 23
REMARK SMILES IDX 4 24 33 25 3 26 31 27 32 28 2 29 1 30 24 31 26 32 27 33
REMARK SMILES IDX 25 34
REMARK H PARENT 18 12 25 35 25 36
ROOT
ATOM      1  C   UNL     1     -12.852 -43.860  28.315  1.00  0.00     0.058 A 
ATOM      2  C   UNL     1     -12.558 -42.802  27.431  1.00  0.00     0.029 A 
ATOM      3  C   UNL     1     -13.198 -42.668  26.194  1.00  0.00     0.024 A 
ATOM      4  C   UNL     1     -14.157 -43.604  25.818  1.00  0.00     0.082 A 
ATOM      5  C   UNL     1     -14.494 -44.650  26.675  1.00  0.00     0.024 A 
ATOM      6  C   UNL     1     -13.844 -44.769  27.911  1.00  0.00     0.029 A 
ENDROOT
BRANCH   1   7
ATOM      7  N   UNL     1     -12.202 -43.945  29.556  1.00  0.00    -0.276 N 
ATOM      8  N   UNL     1     -10.829 -44.147  29.665  1.00  0.00    -0.297 N 
ATOM      9  C   UNL     1     -10.513 -44.735  30.882  1.00  0.00     0.063 C 
ATOM     10  C   UNL     1     -11.642 -45.040  31.543  1.00  0.00     0.033 C 
ATOM     11  C   UNL     1     -12.851 -44.579  30.746  1.00  0.00     0.164 C 
ATOM     12  H   UNL     1     -10.249 -43.323  29.480  1.00  0.00     0.188 HD
BRANCH   9  13
ATOM     13  C   UNL     1      -9.128 -44.904  31.336  1.00  0.00     0.038 A 
ATOM     14  C   UNL     1      -8.499 -43.916  32.109  1.00  0.00     0.052 A 
ATOM     15  C   UNL     1      -8.392 -46.061  31.032  1.00  0.00     0.132 A 
ATOM     16  C   UNL     1      -7.186 -44.092  32.544  1.00  0.00     0.124 A 
ATOM     17  C   UNL     1      -7.077 -46.234  31.469  1.00  0.00     0.043 A 
ATOM     18  C   UNL     1      -6.469 -45.240  32.230  1.00  0.00     0.042 A 
ATOM     19  F   UNL     1      -8.939 -47.041  30.292  1.00  0.00    -0.206 F 
ATOM     20  F   UNL     1      -6.607 -43.136  33.281  1.00  0.00    -0.207 F 
ENDBRANCH   9  13
BRANCH  11  21
ATOM     21  C   UNL     1     -13.751 -43.652  31.543  1.00  0.00     0.023 A 
ATOM     22  C   UNL     1     -13.261 -43.119  32.751  1.00  0.00     0.014 A 
ATOM     23  C   UNL     1     -15.039 -43.263  31.140  1.00  0.00     0.128 A 
ATOM     24  C   UNL     1     -14.032 -42.246  33.521  1.00  0.00     0.047 A 
ATOM     25  C   UNL     1     -15.803 -42.367  31.902  1.00  0.00     0.093 A 
ATOM     26  C   UNL     1     -15.306 -41.864  33.103  1.00  0.00     0.122 A 
BRANCH  23  27
ATOM     27  O   UNL     1     -15.539 -43.688  29.935  1.00  0.00    -0.496 OA
ATOM     28  C   UNL     1     -16.644 -42.880  29.526  1.00  0.00     0.278 C 
ENDBRANCH  23  27
BRANCH  26  29
ATOM     29  O   UNL     1     -15.947 -40.995  33.942  1.00  0.00    -0.497 OA
ATOM     30  C   UNL     1     -15.277 -40.656  35.150  1.00  0.00     0.278 C 
ENDBRANCH  26  29
ENDBRANCH  11  21
ENDBRANCH   1   7
BRANCH   4  31
ATOM     31  S   UNL     1     -14.980 -43.451  24.258  1.00  0.00     0.238 S 
ATOM     32  O   UNL     1     -16.392 -43.257  24.498  1.00  0.00    -0.207 OA
ATOM     33  O   UNL     1     -14.476 -44.471  23.370  1.00  0.00    -0.207 OA
BRANCH  31  34
ATOM     34  N   UNL     1     -14.403 -41.963  23.719  1.00  0.00    -0.225 NA
ATOM     35  H   UNL     1     -15.030 -41.507  23.056  1.00  0.00     0.137 HD
ATOM     36  H   UNL     1     -13.468 -42.094  23.330  1.00  0.00     0.137 HD
ENDBRANCH  31  34
ENDBRANCH   4  31
TORSDOF 7
ENDMDL
MODEL 5
REMARK VINA RESULT:    -9.240      3.232      6.308
REMARK INTER + INTRA:         -13.750
REMARK INTER:                 -12.234
REMARK INTRA:                  -1.516
REMARK UNBOUND:                -1.000
REMARK SMILES COc1ccc([C@@H]2C=C(c3cc(F)ccc3F)NN2c2ccc(S(N)(=O)=O)cc2)c(OC)c1
REMARK SMILES IDX 20 1 21 2 22 3 23 4 28 5 29 6 19 7 18 8 9 9 8 10 7 11 10 13
REMARK SMILES IDX 11 14 16 15 12 16 15 17 14 18 17 19 13 20 6 21 5 22 30 23
REMARK SMILES IDX 4 24 33 25 3 26 31 27 32 28 2 29 1 30 24 31 26 32 27 33
REMARK SMILES IDX 25 34
REMARK H PARENT 18 12 25 35 25 36
ROOT
ATOM      1  C   UNL     1     -18.753 -42.090  25.489  1.00  0.00     0.058 A 
ATOM      2  C   UNL     1     -18.153 -42.208  26.760  1.00  0.00     0.029 A 
ATOM      3  C   UNL     1     -16.820 -42.602  26.918  1.00  0.00     0.024 A 
ATOM      4  C   UNL     1     -16.056 -42.889  25.790  1.00  0.00     0.082 A 
ATOM      5  C   UNL     1     -16.605 -42.760  24.516  1.00  0.00     0.024 A 
ATOM      6  C   UNL     1     -17.941 -42.362  24.375  1.00  0.00     0.029 A 
ENDROOT
BRANCH   1   7
ATOM      7  N   UNL     1     -20.087 -41.670  25.374  1.00  0.00    -0.276 N 
ATOM      8  N   UNL     1     -20.900 -41.461  26.485  1.00  0.00    -0.297 N 
ATOM      9  C   UNL     1     -22.239 -41.604  26.149  1.00  0.00     0.063 C 
ATOM     10  C   UNL     1     -22.343 -42.016  24.875  1.00  0.00     0.033 C 
ATOM     11  C   UNL     1     -20.963 -42.121  24.248  1.00  0.00     0.164 C 
ATOM     12  H   UNL     1     -20.728 -40.590  26.996  1.00  0.00     0.188 HD
BRANCH   9  13
ATOM     13  C   UNL     1     -23.322 -41.271  27.081  1.00  0.00     0.038 A 
ATOM     14  C   UNL     1     -23.956 -42.271  27.834  1.00  0.00     0.052 A 
ATOM     15  C   UNL     1     -23.749 -39.945  27.267  1.00  0.00     0.132 A 
ATOM     16  C   UNL     1     -24.976 -41.942  28.725  1.00  0.00     0.124 A 
ATOM     17  C   UNL     1     -24.772 -39.620  28.160  1.00  0.00     0.043 A 
ATOM     18  C   UNL     1     -25.391 -40.627  28.895  1.00  0.00     0.042 A 
ATOM     19  F   UNL     1     -23.184 -38.944  26.571  1.00  0.00    -0.206 F 
ATOM     20  F   UNL     1     -25.565 -42.914  29.434  1.00  0.00    -0.207 F 
ENDBRANCH   9  13
BRANCH  11  21
ATOM     21  C   UNL     1     -20.837 -41.294  22.981  1.00  0.00     0.023 A 
ATOM     22  C   UNL     1     -20.740 -39.894  23.103  1.00  0.00     0.014 A 
ATOM     23  C   UNL     1     -20.782 -41.836  21.687  1.00  0.00     0.128 A 
ATOM     24  C   UNL     1     -20.604 -39.079  21.977  1.00  0.00     0.047 A 
ATOM     25  C   UNL     1     -20.621 -41.017  20.559  1.00  0.00     0.093 A 
ATOM     26  C   UNL     1     -20.542 -39.633  20.700  1.00  0.00     0.122 A 
BRANCH  23  27
ATOM     27  O   UNL     1     -20.795 -43.196  21.511  1.00  0.00    -0.496 OA
ATOM     28  C   UNL     1     -22.032 -43.628  20.941  1.00  0.00     0.278 C 
ENDBRANCH  23  27
BRANCH  26  29
ATOM     29  O   UNL     1     -20.394 -38.726  19.688  1.00  0.00    -0.497 OA
ATOM     30  C   UNL     1     -21.528 -37.930  19.368  1.00  0.00     0.278 C 
ENDBRANCH  26  29
ENDBRANCH  11  21
ENDBRANCH   1   7
BRANCH   4  31
ATOM     31  S   UNL     1     -14.366 -43.388  25.968  1.00  0.00     0.238 S 
ATOM     32  O   UNL     1     -14.327 -44.816  26.187  1.00  0.00    -0.207 OA
ATOM     33  O   UNL     1     -13.699 -42.450  26.838  1.00  0.00    -0.207 OA
BRANCH  31  34
ATOM     34  N   UNL     1     -13.781 -43.153  24.406  1.00  0.00    -0.225 NA
ATOM     35  H   UNL     1     -13.168 -43.905  24.091  1.00  0.00     0.137 HD
ATOM     36  H   UNL     1     -13.321 -42.242  24.361  1.00  0.00     0.137 HD
ENDBRANCH  31  34
ENDBRANCH   4  31
TORSDOF 7
ENDMDL
MODEL 6
REMARK VINA RESULT:    -9.163      4.661      7.918
REMARK INTER + INTRA:         -13.644
REMARK INTER:                 -12.478
REMARK INTRA:                  -1.166
REMARK UNBOUND:                -1.000
REMARK SMILES COc1ccc([C@@H]2C=C(c3cc(F)ccc3F)NN2c2ccc(S(N)(=O)=O)cc2)c(OC)c1
REMARK SMILES IDX 20 1 21 2 22 3 23 4 28 5 29 6 19 7 18 8 9 9 8 10 7 11 10 13
REMARK SMILES IDX 11 14 16 15 12 16 15 17 14 18 17 19 13 20 6 21 5 22 30 23
REMARK SMILES IDX 4 24 33 25 3 26 31 27 32 28 2 29 1 30 24 31 26 32 27 33
REMARK SMILES IDX 25 34
REMARK H PARENT 18 12 25 35 25 36
ROOT
ATOM      1  C   UNL     1     -21.414 -40.924  25.202  1.00  0.00     0.058 A 
ATOM      2  C   UNL     1     -21.495 -40.899  26.610  1.00  0.00     0.029 A 
ATOM      3  C   UNL     1     -22.551 -40.275  27.283  1.00  0.00     0.024 A 
ATOM      4  C   UNL     1     -23.557 -39.657  26.546  1.00  0.00     0.082 A 
ATOM      5  C   UNL     1     -23.527 -39.682  25.153  1.00  0.00     0.024 A 
ATOM      6  C   UNL     1     -22.463 -40.312  24.495  1.00  0.00     0.029 A 
ENDROOT
BRANCH   1   7
ATOM      7  N   UNL     1     -20.349 -41.580  24.568  1.00  0.00    -0.276 N 
ATOM      8  N   UNL     1     -19.248 -42.065  25.269  1.00  0.00    -0.297 N 
ATOM      9  C   UNL     1     -18.135 -42.149  24.443  1.00  0.00     0.063 C 
ATOM     10  C   UNL     1     -18.426 -41.626  23.240  1.00  0.00     0.033 C 
ATOM     11  C   UNL     1     -19.879 -41.187  23.202  1.00  0.00     0.164 C 
ATOM     12  H   UNL     1     -19.406 -42.937  25.783  1.00  0.00     0.188 HD
BRANCH   9  13
ATOM     13  C   UNL     1     -16.886 -42.788  24.873  1.00  0.00     0.038 A 
ATOM     14  C   UNL     1     -16.068 -43.459  23.951  1.00  0.00     0.052 A 
ATOM     15  C   UNL     1     -16.456 -42.734  26.209  1.00  0.00     0.132 A 
ATOM     16  C   UNL     1     -14.878 -44.053  24.368  1.00  0.00     0.124 A 
ATOM     17  C   UNL     1     -15.263 -43.331  26.622  1.00  0.00     0.043 A 
ATOM     18  C   UNL     1     -14.468 -43.996  25.694  1.00  0.00     0.042 A 
ATOM     19  F   UNL     1     -17.198 -42.109  27.138  1.00  0.00    -0.206 F 
ATOM     20  F   UNL     1     -14.113 -44.688  23.470  1.00  0.00    -0.207 F 
ENDBRANCH   9  13
BRANCH  11  21
ATOM     21  C   UNL     1     -20.649 -41.828  22.061  1.00  0.00     0.023 A 
ATOM     22  C   UNL     1     -21.276 -43.067  22.292  1.00  0.00     0.014 A 
ATOM     23  C   UNL     1     -20.804 -41.250  20.791  1.00  0.00     0.128 A 
ATOM     24  C   UNL     1     -22.015 -43.701  21.289  1.00  0.00     0.047 A 
ATOM     25  C   UNL     1     -21.567 -41.876  19.793  1.00  0.00     0.093 A 
ATOM     26  C   UNL     1     -22.166 -43.110  20.036  1.00  0.00     0.122 A 
BRANCH  23  27
ATOM     27  O   UNL     1     -20.282 -40.008  20.532  1.00  0.00    -0.496 OA
ATOM     28  C   UNL     1     -20.869 -39.440  19.360  1.00  0.00     0.278 C 
ENDBRANCH  23  27
BRANCH  26  29
ATOM     29  O   UNL     1     -22.924 -43.828  19.152  1.00  0.00    -0.497 OA
ATOM     30  C   UNL     1     -22.829 -45.245  19.229  1.00  0.00     0.278 C 
ENDBRANCH  26  29
ENDBRANCH  11  21
ENDBRANCH   1   7
BRANCH   4  31
ATOM     31  S   UNL     1     -24.904 -38.863  27.379  1.00  0.00     0.238 S 
ATOM     32  O   UNL     1     -24.520 -37.504  27.684  1.00  0.00    -0.207 OA
ATOM     33  O   UNL     1     -25.426 -39.767  28.375  1.00  0.00    -0.207 OA
BRANCH  31  34
ATOM     34  N   UNL     1     -26.040 -38.746  26.140  1.00  0.00    -0.225 NA
ATOM     35  H   UNL     1     -25.990 -37.861  25.634  1.00  0.00     0.137 HD
ATOM     36  H   UNL     1     -26.970 -38.909  26.530  1.00  0.00     0.137 HD
ENDBRANCH  31  34
ENDBRANCH   4  31
TORSDOF 7
ENDMDL
MODEL 7
REMARK VINA RESULT:    -9.028      5.166      8.446
REMARK INTER + INTRA:         -13.458
REMARK INTER:                 -11.865
REMARK INTRA:                  -1.593
REMARK UNBOUND:                -1.000
REMARK SMILES COc1ccc([C@@H]2C=C(c3cc(F)ccc3F)NN2c2ccc(S(N)(=O)=O)cc2)c(OC)c1
REMARK SMILES IDX 20 1 21 2 22 3 23 4 28 5 29 6 19 7 18 8 9 9 8 10 7 11 10 13
REMARK SMILES IDX 11 14 16 15 12 16 15 17 14 18 17 19 13 20 6 21 5 22 30 23
REMARK SMILES IDX 4 24 33 25 3 26 31 27 32 28 2 29 1 30 24 31 26 32 27 33
REMARK SMILES IDX 25 34
REMARK H PARENT 18 12 25 35 25 36
ROOT
ATOM      1  C   UNL     1     -21.421 -43.586  21.056  1.00  0.00     0.058 A 
ATOM      2  C   UNL     1     -21.371 -43.848  19.671  1.00  0.00     0.029 A 
ATOM      3  C   UNL     1     -22.239 -44.755  19.055  1.00  0.00     0.024 A 
ATOM      4  C   UNL     1     -23.185 -45.425  19.827  1.00  0.00     0.082 A 
ATOM      5  C   UNL     1     -23.283 -45.174  21.194  1.00  0.00     0.024 A 
ATOM      6  C   UNL     1     -22.406 -44.261  21.795  1.00  0.00     0.029 A 
ENDROOT
BRANCH   1   7
ATOM      7  N   UNL     1     -20.546 -42.651  21.629  1.00  0.00    -0.276 N 
ATOM      8  N   UNL     1     -19.302 -43.011  22.142  1.00  0.00    -0.297 N 
ATOM      9  C   UNL     1     -18.886 -42.106  23.108  1.00  0.00     0.063 C 
ATOM     10  C   UNL     1     -19.864 -41.215  23.342  1.00  0.00     0.033 C 
ATOM     11  C   UNL     1     -21.044 -41.487  22.426  1.00  0.00     0.164 C 
ATOM     12  H   UNL     1     -18.573 -43.182  21.443  1.00  0.00     0.188 HD
BRANCH   9  13
ATOM     13  C   UNL     1     -17.540 -42.143  23.691  1.00  0.00     0.038 A 
ATOM     14  C   UNL     1     -17.323 -42.684  24.967  1.00  0.00     0.052 A 
ATOM     15  C   UNL     1     -16.423 -41.659  22.990  1.00  0.00     0.132 A 
ATOM     16  C   UNL     1     -16.039 -42.725  25.507  1.00  0.00     0.124 A 
ATOM     17  C   UNL     1     -15.138 -41.701  23.533  1.00  0.00     0.043 A 
ATOM     18  C   UNL     1     -14.944 -42.237  24.803  1.00  0.00     0.042 A 
ATOM     19  F   UNL     1     -16.567 -41.125  21.765  1.00  0.00    -0.206 F 
ATOM     20  F   UNL     1     -15.856 -43.247  26.726  1.00  0.00    -0.207 F 
ENDBRANCH   9  13
BRANCH  11  21
ATOM     21  C   UNL     1     -21.427 -40.273  21.598  1.00  0.00     0.023 A 
ATOM     22  C   UNL     1     -20.871 -40.140  20.311  1.00  0.00     0.014 A 
ATOM     23  C   UNL     1     -22.326 -39.281  22.020  1.00  0.00     0.128 A 
ATOM     24  C   UNL     1     -21.196 -39.056  19.492  1.00  0.00     0.047 A 
ATOM     25  C   UNL     1     -22.671 -38.206  21.186  1.00  0.00     0.093 A 
ATOM     26  C   UNL     1     -22.098 -38.084  19.922  1.00  0.00     0.122 A 
BRANCH  23  27
ATOM     27  O   UNL     1     -22.959 -39.397  23.231  1.00  0.00    -0.496 OA
ATOM     28  C   UNL     1     -24.353 -39.657  23.059  1.00  0.00     0.278 C 
ENDBRANCH  23  27
BRANCH  26  29
ATOM     29  O   UNL     1     -22.339 -37.087  19.019  1.00  0.00    -0.497 OA
ATOM     30  C   UNL     1     -22.459 -37.471  17.654  1.00  0.00     0.278 C 
ENDBRANCH  26  29
ENDBRANCH  11  21
ENDBRANCH   1   7
BRANCH   4  31
ATOM     31  S   UNL     1     -24.295 -46.576  19.067  1.00  0.00     0.238 S 
ATOM     32  O   UNL     1     -25.260 -45.838  18.285  1.00  0.00    -0.207 OA
ATOM     33  O   UNL     1     -24.679 -47.561  20.048  1.00  0.00    -0.207 OA
BRANCH  31  34
ATOM     34  N   UNL     1     -23.283 -47.326  17.947  1.00  0.00    -0.225 NA
ATOM     35  H   UNL     1     -22.315 -47.390  18.263  1.00  0.00     0.137 HD
ATOM     36  H   UNL     1     -23.361 -46.837  17.054  1.00  0.00     0.137 HD
ENDBRANCH  31  34
ENDBRANCH   4  31
TORSDOF 7
ENDMDL
MODEL 8
REMARK VINA RESULT:    -8.830      1.370      1.991
REMARK INTER + INTRA:         -13.185
REMARK INTER:                 -12.260
REMARK INTRA:                  -0.924
REMARK UNBOUND:                -1.000
REMARK SMILES COc1ccc([C@@H]2C=C(c3cc(F)ccc3F)NN2c2ccc(S(N)(=O)=O)cc2)c(OC)c1
REMARK SMILES IDX 20 1 21 2 22 3 23 4 28 5 29 6 19 7 18 8 9 9 8 10 7 11 10 13
REMARK SMILES IDX 11 14 16 15 12 16 15 17 14 18 17 19 13 20 6 21 5 22 30 23
REMARK SMILES IDX 4 24 33 25 3 26 31 27 32 28 2 29 1 30 24 31 26 32 27 33
REMARK SMILES IDX 25 34
REMARK H PARENT 18 12 25 35 25 36
ROOT
ATOM      1  C   UNL     1     -17.928 -42.524  25.047  1.00  0.00     0.058 A 
ATOM      2  C   UNL     1     -17.786 -42.412  26.446  1.00  0.00     0.029 A 
ATOM      3  C   UNL     1     -16.636 -42.848  27.113  1.00  0.00     0.024 A 
ATOM      4  C   UNL     1     -15.595 -43.410  26.379  1.00  0.00     0.082 A 
ATOM      5  C   UNL     1     -15.686 -43.513  24.993  1.00  0.00     0.024 A 
ATOM      6  C   UNL     1     -16.844 -43.071  24.341  1.00  0.00     0.029 A 
ENDROOT
BRANCH   1   7
ATOM      7  N   UNL     1     -19.089 -42.053  24.416  1.00  0.00    -0.276 N 
ATOM      8  N   UNL     1     -19.050 -41.333  23.225  1.00  0.00    -0.297 N 
ATOM      9  C   UNL     1     -20.176 -40.530  23.098  1.00  0.00     0.063 C 
ATOM     10  C   UNL     1     -20.911 -40.603  24.220  1.00  0.00     0.033 C 
ATOM     11  C   UNL     1     -20.275 -41.579  25.195  1.00  0.00     0.164 C 
ATOM     12  H   UNL     1     -18.884 -41.889  22.381  1.00  0.00     0.188 HD
BRANCH   9  13
ATOM     13  C   UNL     1     -20.480 -39.795  21.865  1.00  0.00     0.038 A 
ATOM     14  C   UNL     1     -21.678 -39.076  21.733  1.00  0.00     0.052 A 
ATOM     15  C   UNL     1     -19.581 -39.768  20.786  1.00  0.00     0.132 A 
ATOM     16  C   UNL     1     -21.952 -38.372  20.562  1.00  0.00     0.124 A 
ATOM     17  C   UNL     1     -19.859 -39.062  19.614  1.00  0.00     0.043 A 
ATOM     18  C   UNL     1     -21.055 -38.359  19.501  1.00  0.00     0.042 A 
ATOM     19  F   UNL     1     -18.420 -40.440  20.851  1.00  0.00    -0.206 F 
ATOM     20  F   UNL     1     -23.101 -37.693  20.460  1.00  0.00    -0.207 F 
ENDBRANCH   9  13
BRANCH  11  21
ATOM     21  C   UNL     1     -21.232 -42.679  25.621  1.00  0.00     0.023 A 
ATOM     22  C   UNL     1     -21.669 -42.703  26.959  1.00  0.00     0.014 A 
ATOM     23  C   UNL     1     -21.737 -43.663  24.757  1.00  0.00     0.128 A 
ATOM     24  C   UNL     1     -22.562 -43.678  27.410  1.00  0.00     0.047 A 
ATOM     25  C   UNL     1     -22.654 -44.627  25.205  1.00  0.00     0.093 A 
ATOM     26  C   UNL     1     -23.061 -44.644  26.537  1.00  0.00     0.122 A 
BRANCH  23  27
ATOM     27  O   UNL     1     -21.409 -43.644  23.425  1.00  0.00    -0.496 OA
ATOM     28  C   UNL     1     -22.581 -43.657  22.608  1.00  0.00     0.278 C 
ENDBRANCH  23  27
BRANCH  26  29
ATOM     29  O   UNL     1     -23.938 -45.528  27.103  1.00  0.00    -0.497 OA
ATOM     30  C   UNL     1     -25.314 -45.170  27.082  1.00  0.00     0.278 C 
ENDBRANCH  26  29
ENDBRANCH  11  21
ENDBRANCH   1   7
BRANCH   4  31
ATOM     31  S   UNL     1     -14.129 -43.966  27.204  1.00  0.00     0.238 S 
ATOM     32  O   UNL     1     -13.608 -45.111  26.495  1.00  0.00    -0.207 OA
ATOM     33  O   UNL     1     -14.378 -43.977  28.625  1.00  0.00    -0.207 OA
BRANCH  31  34
ATOM     34  N   UNL     1     -13.061 -42.704  26.875  1.00  0.00    -0.225 NA
ATOM     35  H   UNL     1     -13.047 -41.992  27.605  1.00  0.00     0.137 HD
ATOM     36  H   UNL     1     -13.291 -42.309  25.962  1.00  0.00     0.137 HD
ENDBRANCH  31  34
ENDBRANCH   4  31
TORSDOF 7
ENDMDL
MODEL 9
REMARK VINA RESULT:    -8.683      4.189      7.356
REMARK INTER + INTRA:         -12.982
REMARK INTER:                 -11.362
REMARK INTRA:                  -1.620
REMARK UNBOUND:                -1.000
REMARK SMILES COc1ccc([C@@H]2C=C(c3cc(F)ccc3F)NN2c2ccc(S(N)(=O)=O)cc2)c(OC)c1
REMARK SMILES IDX 20 1 21 2 22 3 23 4 28 5 29 6 19 7 18 8 9 9 8 10 7 11 10 13
REMARK SMILES IDX 11 14 16 15 12 16 15 17 14 18 17 19 13 20 6 21 5 22 30 23
REMARK SMILES IDX 4 24 33 25 3 26 31 27 32 28 2 29 1 30 24 31 26 32 27 33
REMARK SMILES IDX 25 34
REMARK H PARENT 18 12 25 35 25 36
ROOT
ATOM      1  C   UNL     1     -21.988 -43.759  26.494  1.00  0.00     0.058 A 
ATOM      2  C   UNL     1     -21.766 -44.415  27.722  1.00  0.00     0.029 A 
ATOM      3  C   UNL     1     -22.771 -45.145  28.366  1.00  0.00     0.024 A 
ATOM      4  C   UNL     1     -24.031 -45.231  27.781  1.00  0.00     0.082 A 
ATOM      5  C   UNL     1     -24.282 -44.618  26.556  1.00  0.00     0.024 A 
ATOM      6  C   UNL     1     -23.265 -43.891  25.924  1.00  0.00     0.029 A 
ENDROOT
BRANCH   1   7
ATOM      7  N   UNL     1     -20.945 -43.055  25.871  1.00  0.00    -0.276 N 
ATOM      8  N   UNL     1     -19.656 -43.570  25.769  1.00  0.00    -0.297 N 
ATOM      9  C   UNL     1     -18.725 -42.548  25.648  1.00  0.00     0.063 C 
ATOM     10  C   UNL     1     -19.339 -41.361  25.782  1.00  0.00     0.033 C 
ATOM     11  C   UNL     1     -20.833 -41.566  25.960  1.00  0.00     0.164 C 
ATOM     12  H   UNL     1     -19.526 -44.288  25.050  1.00  0.00     0.188 HD
BRANCH   9  13
ATOM     13  C   UNL     1     -17.311 -42.805  25.351  1.00  0.00     0.038 A 
ATOM     14  C   UNL     1     -16.361 -42.872  26.382  1.00  0.00     0.052 A 
ATOM     15  C   UNL     1     -16.862 -43.011  24.036  1.00  0.00     0.132 A 
ATOM     16  C   UNL     1     -15.022 -43.127  26.090  1.00  0.00     0.124 A 
ATOM     17  C   UNL     1     -15.521 -43.266  23.748  1.00  0.00     0.043 A 
ATOM     18  C   UNL     1     -14.593 -43.324  24.784  1.00  0.00     0.042 A 
ATOM     19  F   UNL     1     -17.724 -42.955  23.007  1.00  0.00    -0.206 F 
ATOM     20  F   UNL     1     -14.134 -43.188  27.091  1.00  0.00    -0.207 F 
ENDBRANCH   9  13
BRANCH  11  21
ATOM     21  C   UNL     1     -21.650 -40.808  24.928  1.00  0.00     0.023 A 
ATOM     22  C   UNL     1     -21.128 -40.682  23.626  1.00  0.00     0.014 A 
ATOM     23  C   UNL     1     -22.912 -40.247  25.176  1.00  0.00     0.128 A 
ATOM     24  C   UNL     1     -21.837 -40.013  22.625  1.00  0.00     0.047 A 
ATOM     25  C   UNL     1     -23.634 -39.597  24.164  1.00  0.00     0.093 A 
ATOM     26  C   UNL     1     -23.093 -39.468  22.886  1.00  0.00     0.122 A 
BRANCH  23  27
ATOM     27  O   UNL     1     -23.505 -40.406  26.403  1.00  0.00    -0.496 OA
ATOM     28  C   UNL     1     -23.832 -39.141  26.981  1.00  0.00     0.278 C 
ENDBRANCH  23  27
BRANCH  26  29
ATOM     29  O   UNL     1     -23.684 -38.854  21.817  1.00  0.00    -0.497 OA
ATOM     30  C   UNL     1     -25.080 -39.068  21.644  1.00  0.00     0.278 C 
ENDBRANCH  26  29
ENDBRANCH  11  21
ENDBRANCH   1   7
BRANCH   4  31
ATOM     31  S   UNL     1     -25.317 -46.152  28.579  1.00  0.00     0.238 S 
ATOM     32  O   UNL     1     -24.860 -47.509  28.772  1.00  0.00    -0.207 OA
ATOM     33  O   UNL     1     -26.572 -45.838  27.941  1.00  0.00    -0.207 OA
BRANCH  31  34
ATOM     34  N   UNL     1     -25.326 -45.454  30.113  1.00  0.00    -0.225 NA
ATOM     35  H   UNL     1     -25.614 -44.476  30.105  1.00  0.00     0.137 HD
ATOM     36  H   UNL     1     -24.403 -45.576  30.534  1.00  0.00     0.137 HD
ENDBRANCH  31  34
ENDBRANCH   4  31
TORSDOF 7
ENDMDL
