MODEL 1
REMARK VINA RESULT:   -10.061      0.000      0.000
REMARK INTER + INTRA:         -16.430
REMARK INTER:                 -15.355
REMARK INTRA:                  -1.076
REMARK UNBOUND:                -1.076
REMARK SMILES COc1ccc(OC)c([C@@H](C)NS(=O)(=O)NC(=O)OCc2ccccc2)c1
REMARK SMILES IDX 12 1 10 3 11 4 9 5 3 6 4 7 27 8 5 9 6 10 2 11 1 12 7 13 8 14
REMARK SMILES IDX 13 15 14 16 15 17 16 18 17 19 18 21 19 22 20 23 21 24 22 25
REMARK SMILES IDX 26 26 23 27 25 28 24 29
REMARK H PARENT 12 2 16 20
ROOT
ATOM      1  N   UNL     1     -11.920 -43.574  29.952  1.00  0.00    -0.190 NA
ATOM      2  H   UNL     1     -12.908 -43.789  29.824  1.00  0.00     0.143 HD
ENDROOT
BRANCH   1   3
ATOM      3  C   UNL     1     -11.191 -44.373  30.955  1.00  0.00     0.102 C 
ATOM      4  C   UNL     1     -12.092 -45.522  31.421  1.00  0.00     0.031 C 
BRANCH   3   5
ATOM      5  C   UNL     1     -10.754 -43.543  32.157  1.00  0.00     0.016 A 
ATOM      6  C   UNL     1      -8.982 -42.740  33.644  1.00  0.00     0.119 A 
ATOM      7  C   UNL     1      -9.917 -41.985  34.344  1.00  0.00     0.050 A 
ATOM      8  C   UNL     1      -9.404 -43.508  32.556  1.00  0.00     0.055 A 
ATOM      9  C   UNL     1     -11.263 -41.997  33.957  1.00  0.00     0.050 A 
ATOM     10  C   UNL     1     -11.689 -42.769  32.871  1.00  0.00     0.123 A 
BRANCH   6  11
ATOM     11  O   UNL     1      -7.642 -42.809  33.910  1.00  0.00    -0.497 OA
ATOM     12  C   UNL     1      -6.812 -43.354  32.892  1.00  0.00     0.278 C 
ENDBRANCH   6  11
BRANCH  10  13
ATOM     13  O   UNL     1     -12.982 -42.811  32.414  1.00  0.00    -0.496 OA
ATOM     14  C   UNL     1     -14.013 -42.504  33.345  1.00  0.00     0.278 C 
ENDBRANCH  10  13
ENDBRANCH   3   5
ENDBRANCH   1   3
BRANCH   1  15
ATOM     15  S   UNL     1     -11.169 -43.149  28.541  1.00  0.00     0.304 S 
ATOM     16  O   UNL     1     -10.118 -44.091  28.245  1.00  0.00    -0.189 OA
ATOM     17  O   UNL     1     -10.917 -41.730  28.583  1.00  0.00    -0.189 OA
BRANCH  15  18
ATOM     18  N   UNL     1     -12.353 -43.405  27.430  1.00  0.00    -0.205 N 
ATOM     19  C   UNL     1     -13.154 -44.538  27.437  1.00  0.00     0.422 C 
ATOM     20  H   UNL     1     -12.817 -42.548  27.147  1.00  0.00     0.188 HD
ATOM     21  O   UNL     1     -12.828 -45.602  27.939  1.00  0.00    -0.223 OA
BRANCH  19  22
ATOM     22  O   UNL     1     -14.319 -44.308  26.790  1.00  0.00    -0.444 OA
BRANCH  22  23
ATOM     23  C   UNL     1     -14.174 -43.500  25.621  1.00  0.00     0.270 C 
BRANCH  23  24
ATOM     24  C   UNL     1     -15.554 -43.123  25.150  1.00  0.00    -0.011 A 
ATOM     25  C   UNL     1     -16.554 -42.785  26.073  1.00  0.00     0.007 A 
ATOM     26  C   UNL     1     -15.870 -43.145  23.784  1.00  0.00     0.007 A 
ATOM     27  C   UNL     1     -17.838 -42.455  25.636  1.00  0.00     0.000 A 
ATOM     28  C   UNL     1     -17.155 -42.815  23.349  1.00  0.00     0.000 A 
ATOM     29  C   UNL     1     -18.137 -42.469  24.275  1.00  0.00     0.000 A 
ENDBRANCH  23  24
ENDBRANCH  22  23
ENDBRANCH  19  22
ENDBRANCH  15  18
ENDBRANCH   1  15
TORSDOF 9
ENDMDL
MODEL 2
REMARK VINA RESULT:    -9.938      1.546      2.169
REMARK INTER + INTRA:         -16.243
REMARK INTER:                 -15.134
REMARK INTRA:                  -1.109
REMARK UNBOUND:                -1.076
REMARK SMILES COc1ccc(OC)c([C@@H](C)NS(=O)(=O)NC(=O)OCc2ccccc2)c1
REMARK SMILES IDX 12 1 10 3 11 4 9 5 3 6 4 7 27 8 5 9 6 10 2 11 1 12 7 13 8 14
REMARK SMILES IDX 13 15 14 16 15 17 16 18 17 19 18 21 19 22 20 23 21 24 22 25
REMARK SMILES IDX 26 26 23 27 25 28 24 29
REMARK H PARENT 12 2 16 20
ROOT
ATOM      1  N   UNL     1     -11.880 -44.768  30.889  1.00  0.00    -0.190 NA
ATOM      2  H   UNL     1     -11.268 -45.510  30.552  1.00  0.00     0.143 HD
ENDROOT
BRANCH   1   3
ATOM      3  C   UNL     1     -11.334 -43.398  30.868  1.00  0.00     0.102 C 
ATOM      4  C   UNL     1     -10.288 -43.299  29.754  1.00  0.00     0.031 C 
BRANCH   3   5
ATOM      5  C   UNL     1     -10.705 -43.000  32.199  1.00  0.00     0.016 A 
ATOM      6  C   UNL     1      -8.738 -42.846  33.650  1.00  0.00     0.119 A 
ATOM      7  C   UNL     1      -9.514 -42.235  34.630  1.00  0.00     0.050 A 
ATOM      8  C   UNL     1      -9.335 -43.219  32.444  1.00  0.00     0.055 A 
ATOM      9  C   UNL     1     -10.875 -41.998  34.404  1.00  0.00     0.050 A 
ATOM     10  C   UNL     1     -11.477 -42.375  33.198  1.00  0.00     0.123 A 
BRANCH   6  11
ATOM     11  O   UNL     1      -7.402 -43.125  33.739  1.00  0.00    -0.497 OA
ATOM     12  C   UNL     1      -6.822 -43.843  32.658  1.00  0.00     0.278 C 
ENDBRANCH   6  11
BRANCH  10  13
ATOM     13  O   UNL     1     -12.795 -42.151  32.891  1.00  0.00    -0.496 OA
ATOM     14  C   UNL     1     -13.726 -42.161  33.966  1.00  0.00     0.278 C 
ENDBRANCH  10  13
ENDBRANCH   3   5
ENDBRANCH   1   3
BRANCH   1  15
ATOM     15  S   UNL     1     -13.468 -45.023  30.505  1.00  0.00     0.304 S 
ATOM     16  O   UNL     1     -14.301 -44.104  31.241  1.00  0.00    -0.189 OA
ATOM     17  O   UNL     1     -13.708 -46.444  30.535  1.00  0.00    -0.189 OA
BRANCH  15  18
ATOM     18  N   UNL     1     -13.524 -44.548  28.933  1.00  0.00    -0.205 N 
ATOM     19  C   UNL     1     -12.961 -45.293  27.906  1.00  0.00     0.422 C 
ATOM     20  H   UNL     1     -14.386 -44.070  28.698  1.00  0.00     0.188 HD
ATOM     21  O   UNL     1     -12.048 -46.090  28.060  1.00  0.00    -0.223 OA
BRANCH  19  22
ATOM     22  O   UNL     1     -13.537 -44.992  26.720  1.00  0.00    -0.444 OA
BRANCH  22  23
ATOM     23  C   UNL     1     -13.625 -43.588  26.468  1.00  0.00     0.270 C 
BRANCH  23  24
ATOM     24  C   UNL     1     -14.887 -43.342  25.684  1.00  0.00    -0.011 A 
ATOM     25  C   UNL     1     -14.929 -43.593  24.305  1.00  0.00     0.007 A 
ATOM     26  C   UNL     1     -16.025 -42.819  26.313  1.00  0.00     0.007 A 
ATOM     27  C   UNL     1     -16.093 -43.346  23.575  1.00  0.00     0.000 A 
ATOM     28  C   UNL     1     -17.188 -42.572  25.582  1.00  0.00     0.000 A 
ATOM     29  C   UNL     1     -17.222 -42.837  24.214  1.00  0.00     0.000 A 
ENDBRANCH  23  24
ENDBRANCH  22  23
ENDBRANCH  19  22
ENDBRANCH  15  18
ENDBRANCH   1  15
TORSDOF 9
ENDMDL
MODEL 3
REMARK VINA RESULT:    -9.346      2.421      3.869
REMARK INTER + INTRA:         -15.340
REMARK INTER:                 -14.246
REMARK INTRA:                  -1.094
REMARK UNBOUND:                -1.076
REMARK SMILES COc1ccc(OC)c([C@@H](C)NS(=O)(=O)NC(=O)OCc2ccccc2)c1
REMARK SMILES IDX 12 1 10 3 11 4 9 5 3 6 4 7 27 8 5 9 6 10 2 11 1 12 7 13 8 14
REMARK SMILES IDX 13 15 14 16 15 17 16 18 17 19 18 21 19 22 20 23 21 24 22 25
REMARK SMILES IDX 26 26 23 27 25 28 24 29
REMARK H PARENT 12 2 16 20
ROOT
ATOM      1  N   UNL     1     -12.432 -44.566  31.937  1.00  0.00    -0.190 NA
ATOM      2  H   UNL     1     -12.306 -45.268  32.664  1.00  0.00     0.143 HD
ENDROOT
BRANCH   1   3
ATOM      3  C   UNL     1     -12.099 -44.972  30.558  1.00  0.00     0.102 C 
ATOM      4  C   UNL     1     -11.646 -46.435  30.570  1.00  0.00     0.031 C 
BRANCH   3   5
ATOM      5  C   UNL     1     -11.010 -44.102  29.940  1.00  0.00     0.016 A 
ATOM      6  C   UNL     1      -8.707 -43.269  29.946  1.00  0.00     0.119 A 
ATOM      7  C   UNL     1      -8.973 -42.537  28.794  1.00  0.00     0.050 A 
ATOM      8  C   UNL     1      -9.722 -44.047  30.508  1.00  0.00     0.055 A 
ATOM      9  C   UNL     1     -10.243 -42.586  28.206  1.00  0.00     0.050 A 
ATOM     10  C   UNL     1     -11.263 -43.361  28.769  1.00  0.00     0.123 A 
BRANCH   6  11
ATOM     11  O   UNL     1      -7.513 -43.317  30.611  1.00  0.00    -0.497 OA
ATOM     12  C   UNL     1      -7.567 -43.332  32.032  1.00  0.00     0.278 C 
ENDBRANCH   6  11
BRANCH  10  13
ATOM     13  O   UNL     1     -12.522 -43.482  28.239  1.00  0.00    -0.496 OA
ATOM     14  C   UNL     1     -12.694 -43.109  26.877  1.00  0.00     0.278 C 
ENDBRANCH  10  13
ENDBRANCH   3   5
ENDBRANCH   1   3
BRANCH   1  15
ATOM     15  S   UNL     1     -13.736 -43.587  32.210  1.00  0.00     0.304 S 
ATOM     16  O   UNL     1     -13.335 -42.205  32.124  1.00  0.00    -0.189 OA
ATOM     17  O   UNL     1     -14.438 -44.095  33.362  1.00  0.00    -0.189 OA
BRANCH  15  18
ATOM     18  N   UNL     1     -14.674 -43.885  30.893  1.00  0.00    -0.205 N 
ATOM     19  C   UNL     1     -15.690 -43.032  30.489  1.00  0.00     0.422 C 
ATOM     20  H   UNL     1     -14.162 -44.336  30.142  1.00  0.00     0.188 HD
ATOM     21  O   UNL     1     -16.268 -42.256  31.235  1.00  0.00    -0.223 OA
BRANCH  19  22
ATOM     22  O   UNL     1     -15.969 -43.201  29.177  1.00  0.00    -0.444 OA
BRANCH  22  23
ATOM     23  C   UNL     1     -17.178 -42.562  28.763  1.00  0.00     0.270 C 
BRANCH  23  24
ATOM     24  C   UNL     1     -17.199 -42.554  27.257  1.00  0.00    -0.011 A 
ATOM     25  C   UNL     1     -18.389 -42.292  26.562  1.00  0.00     0.007 A 
ATOM     26  C   UNL     1     -16.038 -42.847  26.528  1.00  0.00     0.007 A 
ATOM     27  C   UNL     1     -18.411 -42.304  25.167  1.00  0.00     0.000 A 
ATOM     28  C   UNL     1     -16.062 -42.859  25.133  1.00  0.00     0.000 A 
ATOM     29  C   UNL     1     -17.248 -42.586  24.453  1.00  0.00     0.000 A 
ENDBRANCH  23  24
ENDBRANCH  22  23
ENDBRANCH  19  22
ENDBRANCH  15  18
ENDBRANCH   1  15
TORSDOF 9
ENDMDL
MODEL 4
REMARK VINA RESULT:    -9.345      1.698      2.375
REMARK INTER + INTRA:         -15.338
REMARK INTER:                 -14.618
REMARK INTRA:                  -0.720
REMARK UNBOUND:                -1.076
REMARK SMILES COc1ccc(OC)c([C@@H](C)NS(=O)(=O)NC(=O)OCc2ccccc2)c1
REMARK SMILES IDX 12 1 10 3 11 4 9 5 3 6 4 7 27 8 5 9 6 10 2 11 1 12 7 13 8 14
REMARK SMILES IDX 13 15 14 16 15 17 16 18 17 19 18 21 19 22 20 23 21 24 22 25
REMARK SMILES IDX 26 26 23 27 25 28 24 29
REMARK H PARENT 12 2 16 20
ROOT
ATOM      1  N   UNL     1     -13.811 -45.037  29.943  1.00  0.00    -0.190 NA
ATOM      2  H   UNL     1     -14.812 -45.230  29.958  1.00  0.00     0.143 HD
ENDROOT
BRANCH   1   3
ATOM      3  C   UNL     1     -12.976 -45.788  30.900  1.00  0.00     0.102 C 
ATOM      4  C   UNL     1     -13.877 -46.359  32.000  1.00  0.00     0.031 C 
BRANCH   3   5
ATOM      5  C   UNL     1     -11.886 -44.925  31.526  1.00  0.00     0.016 A 
ATOM      6  C   UNL     1      -9.530 -44.571  32.095  1.00  0.00     0.119 A 
ATOM      7  C   UNL     1      -9.852 -43.331  32.635  1.00  0.00     0.050 A 
ATOM      8  C   UNL     1     -10.545 -45.356  31.541  1.00  0.00     0.055 A 
ATOM      9  C   UNL     1     -11.176 -42.878  32.621  1.00  0.00     0.050 A 
ATOM     10  C   UNL     1     -12.196 -43.663  32.071  1.00  0.00     0.123 A 
BRANCH   6  11
ATOM     11  O   UNL     1      -8.281 -45.125  32.036  1.00  0.00    -0.497 OA
ATOM     12  C   UNL     1      -8.161 -46.373  31.367  1.00  0.00     0.278 C 
ENDBRANCH   6  11
BRANCH  10  13
ATOM     13  O   UNL     1     -13.510 -43.279  31.994  1.00  0.00    -0.496 OA
ATOM     14  C   UNL     1     -14.046 -42.564  33.101  1.00  0.00     0.278 C 
ENDBRANCH  10  13
ENDBRANCH   3   5
ENDBRANCH   1   3
BRANCH   1  15
ATOM     15  S   UNL     1     -13.240 -44.732  28.421  1.00  0.00     0.304 S 
ATOM     16  O   UNL     1     -13.048 -45.975  27.715  1.00  0.00    -0.189 OA
ATOM     17  O   UNL     1     -12.182 -43.760  28.532  1.00  0.00    -0.189 OA
BRANCH  15  18
ATOM     18  N   UNL     1     -14.522 -43.985  27.715  1.00  0.00    -0.205 N 
ATOM     19  C   UNL     1     -14.498 -43.541  26.401  1.00  0.00     0.422 C 
ATOM     20  H   UNL     1     -15.413 -44.352  28.032  1.00  0.00     0.188 HD
ATOM     21  O   UNL     1     -13.477 -43.262  25.792  1.00  0.00    -0.223 OA
BRANCH  19  22
ATOM     22  O   UNL     1     -15.752 -43.430  25.906  1.00  0.00    -0.444 OA
BRANCH  22  23
ATOM     23  C   UNL     1     -16.652 -42.746  26.780  1.00  0.00     0.270 C 
BRANCH  23  24
ATOM     24  C   UNL     1     -17.838 -42.305  25.962  1.00  0.00    -0.011 A 
ATOM     25  C   UNL     1     -19.011 -41.861  26.589  1.00  0.00     0.007 A 
ATOM     26  C   UNL     1     -17.800 -42.372  24.562  1.00  0.00     0.007 A 
ATOM     27  C   UNL     1     -20.116 -41.472  25.830  1.00  0.00     0.000 A 
ATOM     28  C   UNL     1     -18.906 -41.983  23.805  1.00  0.00     0.000 A 
ATOM     29  C   UNL     1     -20.062 -41.532  24.438  1.00  0.00     0.000 A 
ENDBRANCH  23  24
ENDBRANCH  22  23
ENDBRANCH  19  22
ENDBRANCH  15  18
ENDBRANCH   1  15
TORSDOF 9
ENDMDL
MODEL 5
REMARK VINA RESULT:    -9.322      3.661      9.390
REMARK INTER + INTRA:         -15.302
REMARK INTER:                 -14.813
REMARK INTRA:                  -0.489
REMARK UNBOUND:                -1.076
REMARK SMILES COc1ccc(OC)c([C@@H](C)NS(=O)(=O)NC(=O)OCc2ccccc2)c1
REMARK SMILES IDX 12 1 10 3 11 4 9 5 3 6 4 7 27 8 5 9 6 10 2 11 1 12 7 13 8 14
REMARK SMILES IDX 13 15 14 16 15 17 16 18 17 19 18 21 19 22 20 23 21 24 22 25
REMARK SMILES IDX 26 26 23 27 25 28 24 29
REMARK H PARENT 12 2 16 20
ROOT
ATOM      1  N   UNL     1     -15.938 -42.973  25.164  1.00  0.00    -0.190 NA
ATOM      2  H   UNL     1     -15.721 -42.198  25.789  1.00  0.00     0.143 HD
ENDROOT
BRANCH   1   3
ATOM      3  C   UNL     1     -17.152 -42.839  24.336  1.00  0.00     0.102 C 
ATOM      4  C   UNL     1     -16.837 -41.933  23.142  1.00  0.00     0.031 C 
BRANCH   3   5
ATOM      5  C   UNL     1     -18.330 -42.268  25.117  1.00  0.00     0.016 A 
ATOM      6  C   UNL     1     -20.564 -41.264  25.148  1.00  0.00     0.119 A 
ATOM      7  C   UNL     1     -20.534 -41.251  26.538  1.00  0.00     0.050 A 
ATOM      8  C   UNL     1     -19.468 -41.775  24.448  1.00  0.00     0.055 A 
ATOM      9  C   UNL     1     -19.418 -41.746  27.224  1.00  0.00     0.050 A 
ATOM     10  C   UNL     1     -18.316 -42.254  26.526  1.00  0.00     0.123 A 
BRANCH   6  11
ATOM     11  O   UNL     1     -21.591 -40.823  24.360  1.00  0.00    -0.497 OA
ATOM     12  C   UNL     1     -21.238 -40.108  23.183  1.00  0.00     0.278 C 
ENDBRANCH   6  11
BRANCH  10  13
ATOM     13  O   UNL     1     -17.201 -42.781  27.124  1.00  0.00    -0.496 OA
ATOM     14  C   UNL     1     -17.027 -42.534  28.514  1.00  0.00     0.278 C 
ENDBRANCH  10  13
ENDBRANCH   3   5
ENDBRANCH   1   3
BRANCH   1  15
ATOM     15  S   UNL     1     -14.586 -43.679  24.526  1.00  0.00     0.304 S 
ATOM     16  O   UNL     1     -13.571 -42.678  24.307  1.00  0.00    -0.189 OA
ATOM     17  O   UNL     1     -15.005 -44.568  23.471  1.00  0.00    -0.189 OA
BRANCH  15  18
ATOM     18  N   UNL     1     -14.062 -44.612  25.774  1.00  0.00    -0.205 N 
ATOM     19  C   UNL     1     -13.838 -44.104  27.045  1.00  0.00     0.422 C 
ATOM     20  H   UNL     1     -14.437 -45.553  25.743  1.00  0.00     0.188 HD
ATOM     21  O   UNL     1     -13.588 -42.931  27.279  1.00  0.00    -0.223 OA
BRANCH  19  22
ATOM     22  O   UNL     1     -13.903 -45.084  27.975  1.00  0.00    -0.444 OA
BRANCH  22  23
ATOM     23  C   UNL     1     -12.991 -46.157  27.738  1.00  0.00     0.270 C 
BRANCH  23  24
ATOM     24  C   UNL     1     -12.006 -46.182  28.877  1.00  0.00    -0.011 A 
ATOM     25  C   UNL     1     -10.642 -46.403  28.635  1.00  0.00     0.007 A 
ATOM     26  C   UNL     1     -12.445 -46.026  30.199  1.00  0.00     0.007 A 
ATOM     27  C   UNL     1      -9.734 -46.445  29.694  1.00  0.00     0.000 A 
ATOM     28  C   UNL     1     -11.535 -46.069  31.257  1.00  0.00     0.000 A 
ATOM     29  C   UNL     1     -10.180 -46.277  31.004  1.00  0.00     0.000 A 
ENDBRANCH  23  24
ENDBRANCH  22  23
ENDBRANCH  19  22
ENDBRANCH  15  18
ENDBRANCH   1  15
TORSDOF 9
ENDMDL
MODEL 6
REMARK VINA RESULT:    -9.156      2.971      4.436
REMARK INTER + INTRA:         -15.049
REMARK INTER:                 -14.003
REMARK INTRA:                  -1.045
REMARK UNBOUND:                -1.076
REMARK SMILES COc1ccc(OC)c([C@@H](C)NS(=O)(=O)NC(=O)OCc2ccccc2)c1
REMARK SMILES IDX 12 1 10 3 11 4 9 5 3 6 4 7 27 8 5 9 6 10 2 11 1 12 7 13 8 14
REMARK SMILES IDX 13 15 14 16 15 17 16 18 17 19 18 21 19 22 20 23 21 24 22 25
REMARK SMILES IDX 26 26 23 27 25 28 24 29
REMARK H PARENT 12 2 16 20
ROOT
ATOM      1  N   UNL     1     -13.019 -44.596  32.374  1.00  0.00    -0.190 NA
ATOM      2  H   UNL     1     -12.692 -44.875  33.299  1.00  0.00     0.143 HD
ENDROOT
BRANCH   1   3
ATOM      3  C   UNL     1     -13.217 -45.675  31.388  1.00  0.00     0.102 C 
ATOM      4  C   UNL     1     -13.710 -46.928  32.118  1.00  0.00     0.031 C 
BRANCH   3   5
ATOM      5  C   UNL     1     -11.945 -45.999  30.614  1.00  0.00     0.016 A 
ATOM      6  C   UNL     1      -9.545 -46.490  30.593  1.00  0.00     0.119 A 
ATOM      7  C   UNL     1      -9.593 -46.640  29.211  1.00  0.00     0.050 A 
ATOM      8  C   UNL     1     -10.718 -46.176  31.284  1.00  0.00     0.055 A 
ATOM      9  C   UNL     1     -10.803 -46.481  28.526  1.00  0.00     0.050 A 
ATOM     10  C   UNL     1     -11.979 -46.161  29.215  1.00  0.00     0.123 A 
BRANCH   6  11
ATOM     11  O   UNL     1      -8.436 -46.628  31.380  1.00  0.00    -0.497 OA
ATOM     12  C   UNL     1      -7.777 -45.433  31.779  1.00  0.00     0.278 C 
ENDBRANCH   6  11
BRANCH  10  13
ATOM     13  O   UNL     1     -13.206 -46.016  28.620  1.00  0.00    -0.496 OA
ATOM     14  C   UNL     1     -13.334 -45.008  27.625  1.00  0.00     0.278 C 
ENDBRANCH  10  13
ENDBRANCH   3   5
ENDBRANCH   1   3
BRANCH   1  15
ATOM     15  S   UNL     1     -14.077 -43.327  32.425  1.00  0.00     0.304 S 
ATOM     16  O   UNL     1     -13.375 -42.096  32.163  1.00  0.00    -0.189 OA
ATOM     17  O   UNL     1     -14.904 -43.486  33.596  1.00  0.00    -0.189 OA
BRANCH  15  18
ATOM     18  N   UNL     1     -15.024 -43.615  31.113  1.00  0.00    -0.205 N 
ATOM     19  C   UNL     1     -15.947 -42.693  30.640  1.00  0.00     0.422 C 
ATOM     20  H   UNL     1     -14.551 -44.159  30.400  1.00  0.00     0.188 HD
ATOM     21  O   UNL     1     -16.454 -41.819  31.326  1.00  0.00    -0.223 OA
BRANCH  19  22
ATOM     22  O   UNL     1     -16.226 -42.916  29.335  1.00  0.00    -0.444 OA
BRANCH  22  23
ATOM     23  C   UNL     1     -17.545 -42.518  28.957  1.00  0.00     0.270 C 
BRANCH  23  24
ATOM     24  C   UNL     1     -17.601 -42.493  27.452  1.00  0.00    -0.011 A 
ATOM     25  C   UNL     1     -16.457 -42.773  26.691  1.00  0.00     0.007 A 
ATOM     26  C   UNL     1     -18.789 -42.148  26.791  1.00  0.00     0.007 A 
ATOM     27  C   UNL     1     -16.506 -42.729  25.296  1.00  0.00     0.000 A 
ATOM     28  C   UNL     1     -18.836 -42.105  25.397  1.00  0.00     0.000 A 
ATOM     29  C   UNL     1     -17.696 -42.397  24.650  1.00  0.00     0.000 A 
ENDBRANCH  23  24
ENDBRANCH  22  23
ENDBRANCH  19  22
ENDBRANCH  15  18
ENDBRANCH   1  15
TORSDOF 9
ENDMDL
MODEL 7
REMARK VINA RESULT:    -9.118      1.780      2.607
REMARK INTER + INTRA:         -14.992
REMARK INTER:                 -14.545
REMARK INTRA:                  -0.446
REMARK UNBOUND:                -1.076
REMARK SMILES COc1ccc(OC)c([C@@H](C)NS(=O)(=O)NC(=O)OCc2ccccc2)c1
REMARK SMILES IDX 12 1 10 3 11 4 9 5 3 6 4 7 27 8 5 9 6 10 2 11 1 12 7 13 8 14
REMARK SMILES IDX 13 15 14 16 15 17 16 18 17 19 18 21 19 22 20 23 21 24 22 25
REMARK SMILES IDX 26 26 23 27 25 28 24 29
REMARK H PARENT 12 2 16 20
ROOT
ATOM      1  N   UNL     1     -11.408 -44.476  28.772  1.00  0.00    -0.190 NA
ATOM      2  H   UNL     1     -10.740 -44.755  28.054  1.00  0.00     0.143 HD
ENDROOT
BRANCH   1   3
ATOM      3  C   UNL     1     -11.222 -43.138  29.365  1.00  0.00     0.102 C 
ATOM      4  C   UNL     1     -10.388 -42.284  28.406  1.00  0.00     0.031 C 
BRANCH   3   5
ATOM      5  C   UNL     1     -10.542 -43.194  30.728  1.00  0.00     0.016 A 
ATOM      6  C   UNL     1      -8.561 -43.665  32.089  1.00  0.00     0.119 A 
ATOM      7  C   UNL     1      -9.253 -43.263  33.227  1.00  0.00     0.050 A 
ATOM      8  C   UNL     1      -9.206 -43.624  30.851  1.00  0.00     0.055 A 
ATOM      9  C   UNL     1     -10.578 -42.821  33.127  1.00  0.00     0.050 A 
ATOM     10  C   UNL     1     -11.228 -42.783  31.888  1.00  0.00     0.123 A 
BRANCH   6  11
ATOM     11  O   UNL     1      -7.268 -44.106  32.047  1.00  0.00    -0.497 OA
ATOM     12  C   UNL     1      -7.047 -45.402  31.506  1.00  0.00     0.278 C 
ENDBRANCH   6  11
BRANCH  10  13
ATOM     13  O   UNL     1     -12.512 -42.338  31.704  1.00  0.00    -0.496 OA
ATOM     14  C   UNL     1     -13.483 -42.733  32.665  1.00  0.00     0.278 C 
ENDBRANCH  10  13
ENDBRANCH   3   5
ENDBRANCH   1   3
BRANCH   1  15
ATOM     15  S   UNL     1     -12.935 -45.039  28.480  1.00  0.00     0.304 S 
ATOM     16  O   UNL     1     -13.645 -45.189  29.726  1.00  0.00    -0.189 OA
ATOM     17  O   UNL     1     -12.834 -46.124  27.537  1.00  0.00    -0.189 OA
BRANCH  15  18
ATOM     18  N   UNL     1     -13.626 -43.770  27.696  1.00  0.00    -0.205 N 
ATOM     19  C   UNL     1     -14.376 -43.924  26.539  1.00  0.00     0.422 C 
ATOM     20  H   UNL     1     -13.951 -43.048  28.330  1.00  0.00     0.188 HD
ATOM     21  O   UNL     1     -14.260 -44.865  25.769  1.00  0.00    -0.223 OA
BRANCH  19  22
ATOM     22  O   UNL     1     -15.220 -42.881  26.369  1.00  0.00    -0.444 OA
BRANCH  22  23
ATOM     23  C   UNL     1     -16.259 -42.822  27.347  1.00  0.00     0.270 C 
BRANCH  23  24
ATOM     24  C   UNL     1     -17.533 -42.439  26.640  1.00  0.00    -0.011 A 
ATOM     25  C   UNL     1     -17.597 -42.435  25.239  1.00  0.00     0.007 A 
ATOM     26  C   UNL     1     -18.661 -42.041  27.372  1.00  0.00     0.007 A 
ATOM     27  C   UNL     1     -18.772 -42.061  24.585  1.00  0.00     0.000 A 
ATOM     28  C   UNL     1     -19.834 -41.667  26.716  1.00  0.00     0.000 A 
ATOM     29  C   UNL     1     -19.890 -41.679  25.324  1.00  0.00     0.000 A 
ENDBRANCH  23  24
ENDBRANCH  22  23
ENDBRANCH  19  22
ENDBRANCH  15  18
ENDBRANCH   1  15
TORSDOF 9
ENDMDL
MODEL 8
REMARK VINA RESULT:    -9.071      1.819      3.255
REMARK INTER + INTRA:         -14.920
REMARK INTER:                 -14.759
REMARK INTRA:                  -0.160
REMARK UNBOUND:                -1.076
REMARK SMILES COc1ccc(OC)c([C@@H](C)NS(=O)(=O)NC(=O)OCc2ccccc2)c1
REMARK SMILES IDX 12 1 10 3 11 4 9 5 3 6 4 7 27 8 5 9 6 10 2 11 1 12 7 13 8 14
REMARK SMILES IDX 13 15 14 16 15 17 16 18 17 19 18 21 19 22 20 23 21 24 22 25
REMARK SMILES IDX 26 26 23 27 25 28 24 29
REMARK H PARENT 12 2 16 20
ROOT
ATOM      1  N   UNL     1     -13.552 -45.744  29.666  1.00  0.00    -0.190 NA
ATOM      2  H   UNL     1     -14.471 -46.160  29.518  1.00  0.00     0.143 HD
ENDROOT
BRANCH   1   3
ATOM      3  C   UNL     1     -12.824 -46.160  30.880  1.00  0.00     0.102 C 
ATOM      4  C   UNL     1     -13.807 -46.844  31.836  1.00  0.00     0.031 C 
BRANCH   3   5
ATOM      5  C   UNL     1     -12.150 -44.990  31.587  1.00  0.00     0.016 A 
ATOM      6  C   UNL     1     -12.311 -42.833  32.737  1.00  0.00     0.119 A 
ATOM      7  C   UNL     1     -10.934 -42.839  32.932  1.00  0.00     0.050 A 
ATOM      8  C   UNL     1     -12.909 -43.907  32.072  1.00  0.00     0.055 A 
ATOM      9  C   UNL     1     -10.162 -43.911  32.468  1.00  0.00     0.050 A 
ATOM     10  C   UNL     1     -10.757 -44.985  31.797  1.00  0.00     0.123 A 
BRANCH   6  11
ATOM     11  O   UNL     1     -13.178 -41.859  33.147  1.00  0.00    -0.497 OA
ATOM     12  C   UNL     1     -14.361 -42.287  33.810  1.00  0.00     0.278 C 
ENDBRANCH   6  11
BRANCH  10  13
ATOM     13  O   UNL     1     -10.074 -46.082  31.338  1.00  0.00    -0.496 OA
ATOM     14  C   UNL     1      -8.653 -46.037  31.395  1.00  0.00     0.278 C 
ENDBRANCH  10  13
ENDBRANCH   3   5
ENDBRANCH   1   3
BRANCH   1  15
ATOM     15  S   UNL     1     -12.723 -45.502  28.256  1.00  0.00     0.304 S 
ATOM     16  O   UNL     1     -12.740 -46.709  27.468  1.00  0.00    -0.189 OA
ATOM     17  O   UNL     1     -11.487 -44.833  28.578  1.00  0.00    -0.189 OA
BRANCH  15  18
ATOM     18  N   UNL     1     -13.680 -44.419  27.475  1.00  0.00    -0.205 N 
ATOM     19  C   UNL     1     -13.183 -43.254  26.908  1.00  0.00     0.422 C 
ATOM     20  H   UNL     1     -14.436 -44.861  26.963  1.00  0.00     0.188 HD
ATOM     21  O   UNL     1     -12.152 -42.705  27.266  1.00  0.00    -0.223 OA
BRANCH  19  22
ATOM     22  O   UNL     1     -14.007 -42.800  25.937  1.00  0.00    -0.444 OA
BRANCH  22  23
ATOM     23  C   UNL     1     -15.389 -43.053  26.196  1.00  0.00     0.270 C 
BRANCH  23  24
ATOM     24  C   UNL     1     -16.176 -42.555  25.013  1.00  0.00    -0.011 A 
ATOM     25  C   UNL     1     -17.577 -42.617  25.011  1.00  0.00     0.007 A 
ATOM     26  C   UNL     1     -15.518 -42.061  23.878  1.00  0.00     0.007 A 
ATOM     27  C   UNL     1     -18.304 -42.174  23.905  1.00  0.00     0.000 A 
ATOM     28  C   UNL     1     -16.246 -41.618  22.773  1.00  0.00     0.000 A 
ATOM     29  C   UNL     1     -17.639 -41.673  22.788  1.00  0.00     0.000 A 
ENDBRANCH  23  24
ENDBRANCH  22  23
ENDBRANCH  19  22
ENDBRANCH  15  18
ENDBRANCH   1  15
TORSDOF 9
ENDMDL
MODEL 9
REMARK VINA RESULT:    -9.064      2.597      9.374
REMARK INTER + INTRA:         -14.909
REMARK INTER:                 -13.920
REMARK INTRA:                  -0.989
REMARK UNBOUND:                -1.076
REMARK SMILES COc1ccc(OC)c([C@@H](C)NS(=O)(=O)NC(=O)OCc2ccccc2)c1
REMARK SMILES IDX 12 1 10 3 11 4 9 5 3 6 4 7 27 8 5 9 6 10 2 11 1 12 7 13 8 14
REMARK SMILES IDX 13 15 14 16 15 17 16 18 17 19 18 21 19 22 20 23 21 24 22 25
REMARK SMILES IDX 26 26 23 27 25 28 24 29
REMARK H PARENT 12 2 16 20
ROOT
ATOM      1  N   UNL     1     -15.583 -43.946  27.216  1.00  0.00    -0.190 NA
ATOM      2  H   UNL     1     -16.012 -44.806  27.555  1.00  0.00     0.143 HD
ENDROOT
BRANCH   1   3
ATOM      3  C   UNL     1     -16.237 -42.682  27.606  1.00  0.00     0.102 C 
ATOM      4  C   UNL     1     -16.628 -42.763  29.085  1.00  0.00     0.031 C 
BRANCH   3   5
ATOM      5  C   UNL     1     -17.472 -42.380  26.764  1.00  0.00     0.016 A 
ATOM      6  C   UNL     1     -19.849 -41.809  26.620  1.00  0.00     0.119 A 
ATOM      7  C   UNL     1     -19.753 -41.778  25.233  1.00  0.00     0.050 A 
ATOM      8  C   UNL     1     -18.711 -42.104  27.374  1.00  0.00     0.055 A 
ATOM      9  C   UNL     1     -18.529 -42.039  24.605  1.00  0.00     0.050 A 
ATOM     10  C   UNL     1     -17.388 -42.339  25.358  1.00  0.00     0.123 A 
BRANCH   6  11
ATOM     11  O   UNL     1     -20.976 -41.564  27.355  1.00  0.00    -0.497 OA
ATOM     12  C   UNL     1     -22.001 -40.803  26.728  1.00  0.00     0.278 C 
ENDBRANCH   6  11
BRANCH  10  13
ATOM     13  O   UNL     1     -16.150 -42.578  24.820  1.00  0.00    -0.496 OA
ATOM     14  C   UNL     1     -16.086 -43.421  23.677  1.00  0.00     0.278 C 
ENDBRANCH  10  13
ENDBRANCH   3   5
ENDBRANCH   1   3
BRANCH   1  15
ATOM     15  S   UNL     1     -13.933 -44.031  27.160  1.00  0.00     0.304 S 
ATOM     16  O   UNL     1     -13.387 -42.728  26.873  1.00  0.00    -0.189 OA
ATOM     17  O   UNL     1     -13.576 -45.185  26.373  1.00  0.00    -0.189 OA
BRANCH  15  18
ATOM     18  N   UNL     1     -13.551 -44.365  28.723  1.00  0.00    -0.205 N 
ATOM     19  C   UNL     1     -12.245 -44.362  29.191  1.00  0.00     0.422 C 
ATOM     20  H   UNL     1     -14.246 -44.024  29.378  1.00  0.00     0.188 HD
ATOM     21  O   UNL     1     -11.264 -44.539  28.485  1.00  0.00    -0.223 OA
BRANCH  19  22
ATOM     22  O   UNL     1     -12.213 -44.169  30.529  1.00  0.00    -0.444 OA
BRANCH  22  23
ATOM     23  C   UNL     1     -11.900 -45.350  31.270  1.00  0.00     0.270 C 
BRANCH  23  24
ATOM     24  C   UNL     1     -10.410 -45.379  31.479  1.00  0.00    -0.011 A 
ATOM     25  C   UNL     1      -9.742 -44.264  32.007  1.00  0.00     0.007 A 
ATOM     26  C   UNL     1      -9.661 -46.506  31.111  1.00  0.00     0.007 A 
ATOM     27  C   UNL     1      -8.357 -44.285  32.181  1.00  0.00     0.000 A 
ATOM     28  C   UNL     1      -8.277 -46.525  31.287  1.00  0.00     0.000 A 
ATOM     29  C   UNL     1      -7.626 -45.416  31.823  1.00  0.00     0.000 A 
ENDBRANCH  23  24
ENDBRANCH  22  23
ENDBRANCH  19  22
ENDBRANCH  15  18
ENDBRANCH   1  15
TORSDOF 9
ENDMDL
