MODEL 1
REMARK VINA RESULT:   -12.179      0.000      0.000
REMARK INTER + INTRA:         -16.851
REMARK INTER:                 -16.452
REMARK INTRA:                  -0.399
REMARK UNBOUND:                -0.399
REMARK SMILES COc1cc2c(cc1OC)C(=O)/C(=C/c1cc[n+](Cc3ccc(F)cc3)cc1)C2
REMARK SMILES IDX 15 1 16 2 17 3 18 4 27 5 28 6 14 7 13 8 3 9 4 10 8 11 5 12
REMARK SMILES IDX 7 13 6 14 29 15 11 16 12 17 2 18 1 19 9 20 10 21 19 22 20 23
REMARK SMILES IDX 21 24 26 25 22 26 25 27 23 28 24 29
REMARK H PARENT
ROOT
ATOM      1  C   UNL     1     -12.818 -44.248  27.707  1.00  0.00    -0.013 A 
ATOM      2  C   UNL     1     -11.640 -43.734  28.244  1.00  0.00     0.079 A 
ATOM      3  C   UNL     1     -11.134 -44.261  29.428  1.00  0.00     0.309 A 
ATOM      4  N   UNL     1     -11.769 -45.276  30.057  1.00  0.00    -0.201 N 
ATOM      5  C   UNL     1     -12.914 -45.792  29.549  1.00  0.00     0.309 A 
ATOM      6  C   UNL     1     -13.456 -45.294  28.369  1.00  0.00     0.079 A 
ENDROOT
BRANCH   1   7
ATOM      7  C   UNL     1     -13.311 -43.722  26.436  1.00  0.00     0.016 C 
BRANCH   7   8
ATOM      8  C   UNL     1     -14.580 -43.378  26.177  1.00  0.00     0.005 C 
ATOM      9  C   UNL     1     -19.011 -42.000  25.372  1.00  0.00     0.161 A 
ATOM     10  C   UNL     1     -18.113 -42.216  26.429  1.00  0.00     0.055 A 
ATOM     11  C   UNL     1     -18.612 -42.228  24.025  1.00  0.00     0.161 A 
ATOM     12  C   UNL     1     -16.832 -42.655  26.132  1.00  0.00    -0.028 A 
ATOM     13  C   UNL     1     -17.317 -42.670  23.740  1.00  0.00     0.063 A 
ATOM     14  C   UNL     1     -16.460 -42.872  24.807  1.00  0.00     0.030 A 
ATOM     15  C   UNL     1     -15.712 -42.956  27.082  1.00  0.00     0.076 C 
ATOM     16  C   UNL     1     -15.068 -43.324  24.762  1.00  0.00     0.189 C 
ATOM     17  O   UNL     1     -14.430 -43.598  23.768  1.00  0.00    -0.289 OA
BRANCH   9  18
ATOM     18  O   UNL     1     -20.305 -41.566  25.539  1.00  0.00    -0.493 OA
ATOM     19  C   UNL     1     -20.732 -41.222  26.849  1.00  0.00     0.278 C 
ENDBRANCH   9  18
BRANCH  11  20
ATOM     20  O   UNL     1     -19.569 -41.984  23.070  1.00  0.00    -0.493 OA
ATOM     21  C   UNL     1     -19.398 -40.848  22.234  1.00  0.00     0.278 C 
ENDBRANCH  11  20
ENDBRANCH   7   8
ENDBRANCH   1   7
BRANCH   4  22
ATOM     22  C   UNL     1     -11.214 -45.827  31.320  1.00  0.00     0.393 C 
BRANCH  22  23
ATOM     23  C   UNL     1      -9.996 -45.056  31.765  1.00  0.00     0.017 A 
ATOM     24  C   UNL     1     -10.126 -43.862  32.495  1.00  0.00     0.013 A 
ATOM     25  C   UNL     1      -8.708 -45.531  31.461  1.00  0.00     0.013 A 
ATOM     26  C   UNL     1      -8.991 -43.152  32.897  1.00  0.00     0.040 A 
ATOM     27  C   UNL     1      -7.578 -44.818  31.865  1.00  0.00     0.040 A 
ATOM     28  C   UNL     1      -7.728 -43.636  32.577  1.00  0.00     0.123 A 
ATOM     29  F   UNL     1      -6.644 -42.954  32.962  1.00  0.00    -0.207 F 
ENDBRANCH  22  23
ENDBRANCH   4  22
TORSDOF 6
ENDMDL
MODEL 2
REMARK VINA RESULT:   -11.646      1.211      1.722
REMARK INTER + INTRA:         -16.130
REMARK INTER:                 -15.719
REMARK INTRA:                  -0.411
REMARK UNBOUND:                -0.399
REMARK SMILES COc1cc2c(cc1OC)C(=O)/C(=C/c1cc[n+](Cc3ccc(F)cc3)cc1)C2
REMARK SMILES IDX 15 1 16 2 17 3 18 4 27 5 28 6 14 7 13 8 3 9 4 10 8 11 5 12
REMARK SMILES IDX 7 13 6 14 29 15 11 16 12 17 2 18 1 19 9 20 10 21 19 22 20 23
REMARK SMILES IDX 21 24 26 25 22 26 25 27 23 28 24 29
REMARK H PARENT
ROOT
ATOM      1  C   UNL     1     -13.885 -44.385  27.334  1.00  0.00    -0.013 A 
ATOM      2  C   UNL     1     -14.435 -44.066  28.574  1.00  0.00     0.079 A 
ATOM      3  C   UNL     1     -13.980 -44.715  29.717  1.00  0.00     0.309 A 
ATOM      4  N   UNL     1     -13.001 -45.645  29.638  1.00  0.00    -0.201 N 
ATOM      5  C   UNL     1     -12.452 -45.966  28.442  1.00  0.00     0.309 A 
ATOM      6  C   UNL     1     -12.877 -45.343  27.274  1.00  0.00     0.079 A 
ENDROOT
BRANCH   1   7
ATOM      7  C   UNL     1     -14.335 -43.658  26.148  1.00  0.00     0.016 C 
BRANCH   7   8
ATOM      8  C   UNL     1     -15.588 -43.239  25.921  1.00  0.00     0.005 C 
ATOM      9  C   UNL     1     -19.950 -41.603  25.237  1.00  0.00     0.161 A 
ATOM     10  C   UNL     1     -19.052 -41.908  26.271  1.00  0.00     0.055 A 
ATOM     11  C   UNL     1     -19.581 -41.799  23.875  1.00  0.00     0.161 A 
ATOM     12  C   UNL     1     -17.799 -42.400  25.938  1.00  0.00    -0.028 A 
ATOM     13  C   UNL     1     -18.314 -42.295  23.555  1.00  0.00     0.063 A 
ATOM     14  C   UNL     1     -17.456 -42.583  24.600  1.00  0.00     0.030 A 
ATOM     15  C   UNL     1     -16.684 -42.796  26.858  1.00  0.00     0.076 C 
ATOM     16  C   UNL     1     -16.090 -43.105  24.517  1.00  0.00     0.189 C 
ATOM     17  O   UNL     1     -15.480 -43.372  23.503  1.00  0.00    -0.289 OA
BRANCH   9  18
ATOM     18  O   UNL     1     -21.217 -41.111  25.439  1.00  0.00    -0.493 OA
ATOM     19  C   UNL     1     -21.599 -40.769  26.763  1.00  0.00     0.278 C 
ENDBRANCH   9  18
BRANCH  11  20
ATOM     20  O   UNL     1     -20.536 -41.468  22.945  1.00  0.00    -0.493 OA
ATOM     21  C   UNL     1     -20.823 -42.415  21.925  1.00  0.00     0.278 C 
ENDBRANCH  11  20
ENDBRANCH   7   8
ENDBRANCH   1   7
BRANCH   4  22
ATOM     22  C   UNL     1     -12.527 -46.328  30.869  1.00  0.00     0.393 C 
BRANCH  22  23
ATOM     23  C   UNL     1     -11.152 -45.850  31.265  1.00  0.00     0.017 A 
ATOM     24  C   UNL     1     -10.018 -46.649  31.037  1.00  0.00     0.013 A 
ATOM     25  C   UNL     1     -10.986 -44.587  31.862  1.00  0.00     0.013 A 
ATOM     26  C   UNL     1      -8.749 -46.198  31.412  1.00  0.00     0.040 A 
ATOM     27  C   UNL     1      -9.716 -44.143  32.234  1.00  0.00     0.040 A 
ATOM     28  C   UNL     1      -8.610 -44.951  32.008  1.00  0.00     0.123 A 
ATOM     29  F   UNL     1      -7.395 -44.524  32.368  1.00  0.00    -0.207 F 
ENDBRANCH  22  23
ENDBRANCH   4  22
TORSDOF 6
ENDMDL
MODEL 3
REMARK VINA RESULT:   -11.344      1.164      2.326
REMARK INTER + INTRA:         -15.722
REMARK INTER:                 -15.485
REMARK INTRA:                  -0.237
REMARK UNBOUND:                -0.399
REMARK SMILES COc1cc2c(cc1OC)C(=O)/C(=C/c1cc[n+](Cc3ccc(F)cc3)cc1)C2
REMARK SMILES IDX 15 1 16 2 17 3 18 4 27 5 28 6 14 7 13 8 3 9 4 10 8 11 5 12
REMARK SMILES IDX 7 13 6 14 29 15 11 16 12 17 2 18 1 19 9 20 10 21 19 22 20 23
REMARK SMILES IDX 21 24 26 25 22 26 25 27 23 28 24 29
REMARK H PARENT
ROOT
ATOM      1  C   UNL     1     -13.043 -43.962  27.267  1.00  0.00    -0.013 A 
ATOM      2  C   UNL     1     -12.221 -43.376  28.227  1.00  0.00     0.079 A 
ATOM      3  C   UNL     1     -11.866 -44.096  29.363  1.00  0.00     0.309 A 
ATOM      4  N   UNL     1     -12.303 -45.364  29.539  1.00  0.00    -0.201 N 
ATOM      5  C   UNL     1     -13.100 -45.952  28.616  1.00  0.00     0.309 A 
ATOM      6  C   UNL     1     -13.480 -45.269  27.466  1.00  0.00     0.079 A 
ENDROOT
BRANCH   1   7
ATOM      7  C   UNL     1     -13.365 -43.214  26.053  1.00  0.00     0.016 C 
BRANCH   7   8
ATOM      8  C   UNL     1     -14.597 -43.037  25.553  1.00  0.00     0.005 C 
ATOM      9  C   UNL     1     -18.907 -42.593  23.708  1.00  0.00     0.161 A 
ATOM     10  C   UNL     1     -17.579 -42.841  23.326  1.00  0.00     0.055 A 
ATOM     11  C   UNL     1     -19.238 -42.379  25.076  1.00  0.00     0.161 A 
ATOM     12  C   UNL     1     -16.601 -42.873  24.308  1.00  0.00    -0.028 A 
ATOM     13  C   UNL     1     -18.242 -42.414  26.055  1.00  0.00     0.063 A 
ATOM     14  C   UNL     1     -16.946 -42.661  25.641  1.00  0.00     0.030 A 
ATOM     15  C   UNL     1     -15.130 -43.112  24.144  1.00  0.00     0.076 C 
ATOM     16  C   UNL     1     -15.743 -42.749  26.472  1.00  0.00     0.189 C 
ATOM     17  O   UNL     1     -15.688 -42.619  27.677  1.00  0.00    -0.289 OA
BRANCH   9  18
ATOM     18  O   UNL     1     -19.962 -42.537  22.829  1.00  0.00    -0.493 OA
ATOM     19  C   UNL     1     -20.056 -41.414  21.966  1.00  0.00     0.278 C 
ENDBRANCH   9  18
BRANCH  11  20
ATOM     20  O   UNL     1     -20.566 -42.145  25.338  1.00  0.00    -0.493 OA
ATOM     21  C   UNL     1     -20.911 -40.928  25.986  1.00  0.00     0.278 C 
ENDBRANCH  11  20
ENDBRANCH   7   8
ENDBRANCH   1   7
BRANCH   4  22
ATOM     22  C   UNL     1     -11.914 -46.118  30.759  1.00  0.00     0.393 C 
BRANCH  22  23
ATOM     23  C   UNL     1     -10.487 -45.825  31.151  1.00  0.00     0.017 A 
ATOM     24  C   UNL     1      -9.438 -46.664  30.736  1.00  0.00     0.013 A 
ATOM     25  C   UNL     1     -10.185 -44.695  31.933  1.00  0.00     0.013 A 
ATOM     26  C   UNL     1      -8.120 -46.386  31.109  1.00  0.00     0.040 A 
ATOM     27  C   UNL     1      -8.866 -44.423  32.302  1.00  0.00     0.040 A 
ATOM     28  C   UNL     1      -7.847 -45.270  31.889  1.00  0.00     0.123 A 
ATOM     29  F   UNL     1      -6.584 -45.007  32.246  1.00  0.00    -0.207 F 
ENDBRANCH  22  23
ENDBRANCH   4  22
TORSDOF 6
ENDMDL
MODEL 4
REMARK VINA RESULT:   -10.542      1.588      2.246
REMARK INTER + INTRA:         -14.639
REMARK INTER:                 -14.101
REMARK INTRA:                  -0.538
REMARK UNBOUND:                -0.399
REMARK SMILES COc1cc2c(cc1OC)C(=O)/C(=C/c1cc[n+](Cc3ccc(F)cc3)cc1)C2
REMARK SMILES IDX 15 1 16 2 17 3 18 4 27 5 28 6 14 7 13 8 3 9 4 10 8 11 5 12
REMARK SMILES IDX 7 13 6 14 29 15 11 16 12 17 2 18 1 19 9 20 10 21 19 22 20 23
REMARK SMILES IDX 21 24 26 25 22 26 25 27 23 28 24 29
REMARK H PARENT
ROOT
ATOM      1  C   UNL     1     -14.280 -44.045  26.593  1.00  0.00    -0.013 A 
ATOM      2  C   UNL     1     -14.845 -43.636  27.798  1.00  0.00     0.079 A 
ATOM      3  C   UNL     1     -14.554 -44.332  28.967  1.00  0.00     0.309 A 
ATOM      4  N   UNL     1     -13.718 -45.395  28.946  1.00  0.00    -0.201 N 
ATOM      5  C   UNL     1     -13.156 -45.806  27.784  1.00  0.00     0.309 A 
ATOM      6  C   UNL     1     -13.421 -45.141  26.592  1.00  0.00     0.079 A 
ENDROOT
BRANCH   1   7
ATOM      7  C   UNL     1     -14.551 -43.275  25.380  1.00  0.00     0.016 C 
BRANCH   7   8
ATOM      8  C   UNL     1     -15.761 -42.860  24.978  1.00  0.00     0.005 C 
ATOM      9  C   UNL     1     -20.036 -41.316  23.744  1.00  0.00     0.161 A 
ATOM     10  C   UNL     1     -19.394 -42.055  24.750  1.00  0.00     0.055 A 
ATOM     11  C   UNL     1     -19.294 -40.783  22.652  1.00  0.00     0.161 A 
ATOM     12  C   UNL     1     -18.024 -42.252  24.657  1.00  0.00    -0.028 A 
ATOM     13  C   UNL     1     -17.914 -40.989  22.572  1.00  0.00     0.063 A 
ATOM     14  C   UNL     1     -17.316 -41.721  23.581  1.00  0.00     0.030 A 
ATOM     15  C   UNL     1     -17.129 -43.002  25.598  1.00  0.00     0.076 C 
ATOM     16  C   UNL     1     -15.899 -42.063  23.718  1.00  0.00     0.189 C 
ATOM     17  O   UNL     1     -15.005 -41.754  22.958  1.00  0.00    -0.289 OA
BRANCH   9  18
ATOM     18  O   UNL     1     -21.385 -41.055  23.725  1.00  0.00    -0.493 OA
ATOM     19  C   UNL     1     -21.998 -40.611  24.926  1.00  0.00     0.278 C 
ENDBRANCH   9  18
BRANCH  11  20
ATOM     20  O   UNL     1     -20.022 -40.077  21.725  1.00  0.00    -0.493 OA
ATOM     21  C   UNL     1     -20.084 -40.589  20.401  1.00  0.00     0.278 C 
ENDBRANCH  11  20
ENDBRANCH   7   8
ENDBRANCH   1   7
BRANCH   4  22
ATOM     22  C   UNL     1     -13.418 -46.126  30.205  1.00  0.00     0.393 C 
BRANCH  22  23
ATOM     23  C   UNL     1     -12.117 -45.662  30.810  1.00  0.00     0.017 A 
ATOM     24  C   UNL     1     -12.069 -44.522  31.632  1.00  0.00     0.013 A 
ATOM     25  C   UNL     1     -10.929 -46.375  30.566  1.00  0.00     0.013 A 
ATOM     26  C   UNL     1     -10.858 -44.098  32.183  1.00  0.00     0.040 A 
ATOM     27  C   UNL     1      -9.721 -45.945  31.120  1.00  0.00     0.040 A 
ATOM     28  C   UNL     1      -9.695 -44.812  31.921  1.00  0.00     0.123 A 
ATOM     29  F   UNL     1      -8.536 -44.402  32.449  1.00  0.00    -0.207 F 
ENDBRANCH  22  23
ENDBRANCH   4  22
TORSDOF 6
ENDMDL
MODEL 5
REMARK VINA RESULT:   -10.257      4.772     10.283
REMARK INTER + INTRA:         -14.253
REMARK INTER:                 -13.486
REMARK INTRA:                  -0.767
REMARK UNBOUND:                -0.399
REMARK SMILES COc1cc2c(cc1OC)C(=O)/C(=C/c1cc[n+](Cc3ccc(F)cc3)cc1)C2
REMARK SMILES IDX 15 1 16 2 17 3 18 4 27 5 28 6 14 7 13 8 3 9 4 10 8 11 5 12
REMARK SMILES IDX 7 13 6 14 29 15 11 16 12 17 2 18 1 19 9 20 10 21 19 22 20 23
REMARK SMILES IDX 21 24 26 25 22 26 25 27 23 28 24 29
REMARK H PARENT
ROOT
ATOM      1  C   UNL     1     -15.187 -43.224  26.044  1.00  0.00    -0.013 A 
ATOM      2  C   UNL     1     -15.738 -43.036  27.310  1.00  0.00     0.079 A 
ATOM      3  C   UNL     1     -17.056 -42.608  27.432  1.00  0.00     0.309 A 
ATOM      4  N   UNL     1     -17.811 -42.384  26.332  1.00  0.00    -0.201 N 
ATOM      5  C   UNL     1     -17.295 -42.564  25.094  1.00  0.00     0.309 A 
ATOM      6  C   UNL     1     -15.982 -42.990  24.926  1.00  0.00     0.079 A 
ENDROOT
BRANCH   1   7
ATOM      7  C   UNL     1     -13.818 -43.724  25.930  1.00  0.00     0.016 C 
BRANCH   7   8
ATOM      8  C   UNL     1     -12.927 -43.784  26.930  1.00  0.00     0.005 C 
ATOM      9  C   UNL     1      -9.889 -43.839  30.528  1.00  0.00     0.161 A 
ATOM     10  C   UNL     1     -10.415 -42.969  29.560  1.00  0.00     0.055 A 
ATOM     11  C   UNL     1     -10.303 -45.201  30.579  1.00  0.00     0.161 A 
ATOM     12  C   UNL     1     -11.345 -43.464  28.659  1.00  0.00    -0.028 A 
ATOM     13  C   UNL     1     -11.242 -45.685  29.663  1.00  0.00     0.063 A 
ATOM     14  C   UNL     1     -11.738 -44.799  28.725  1.00  0.00     0.030 A 
ATOM     15  C   UNL     1     -12.036 -42.734  27.546  1.00  0.00     0.076 C 
ATOM     16  C   UNL     1     -12.722 -45.067  27.675  1.00  0.00     0.189 C 
ATOM     17  O   UNL     1     -13.273 -46.125  27.455  1.00  0.00    -0.289 OA
BRANCH   9  18
ATOM     18  O   UNL     1      -8.964 -43.468  31.474  1.00  0.00    -0.493 OA
ATOM     19  C   UNL     1      -7.591 -43.488  31.111  1.00  0.00     0.278 C 
ENDBRANCH   9  18
BRANCH  11  20
ATOM     20  O   UNL     1      -9.726 -45.963  31.565  1.00  0.00    -0.493 OA
ATOM     21  C   UNL     1      -8.741 -46.912  31.178  1.00  0.00     0.278 C 
ENDBRANCH  11  20
ENDBRANCH   7   8
ENDBRANCH   1   7
BRANCH   4  22
ATOM     22  C   UNL     1     -19.218 -41.927  26.482  1.00  0.00     0.393 C 
BRANCH  22  23
ATOM     23  C   UNL     1     -20.182 -43.082  26.373  1.00  0.00     0.017 A 
ATOM     24  C   UNL     1     -20.632 -43.530  25.118  1.00  0.00     0.013 A 
ATOM     25  C   UNL     1     -20.637 -43.736  27.532  1.00  0.00     0.013 A 
ATOM     26  C   UNL     1     -21.529 -44.598  25.029  1.00  0.00     0.040 A 
ATOM     27  C   UNL     1     -21.534 -44.802  27.436  1.00  0.00     0.040 A 
ATOM     28  C   UNL     1     -21.973 -45.222  26.188  1.00  0.00     0.123 A 
ATOM     29  F   UNL     1     -22.833 -46.243  26.099  1.00  0.00    -0.207 F 
ENDBRANCH  22  23
ENDBRANCH   4  22
TORSDOF 6
ENDMDL
MODEL 6
REMARK VINA RESULT:   -10.231      3.035      4.879
REMARK INTER + INTRA:         -14.219
REMARK INTER:                 -14.503
REMARK INTRA:                   0.284
REMARK UNBOUND:                -0.399
REMARK SMILES COc1cc2c(cc1OC)C(=O)/C(=C/c1cc[n+](Cc3ccc(F)cc3)cc1)C2
REMARK SMILES IDX 15 1 16 2 17 3 18 4 27 5 28 6 14 7 13 8 3 9 4 10 8 11 5 12
REMARK SMILES IDX 7 13 6 14 29 15 11 16 12 17 2 18 1 19 9 20 10 21 19 22 20 23
REMARK SMILES IDX 21 24 26 25 22 26 25 27 23 28 24 29
REMARK H PARENT
ROOT
ATOM      1  C   UNL     1     -15.800 -42.839  24.711  1.00  0.00    -0.013 A 
ATOM      2  C   UNL     1     -14.606 -43.548  24.811  1.00  0.00     0.079 A 
ATOM      3  C   UNL     1     -14.172 -43.997  26.054  1.00  0.00     0.309 A 
ATOM      4  N   UNL     1     -14.905 -43.762  27.166  1.00  0.00    -0.201 N 
ATOM      5  C   UNL     1     -16.071 -43.077  27.089  1.00  0.00     0.309 A 
ATOM      6  C   UNL     1     -16.542 -42.608  25.867  1.00  0.00     0.079 A 
ENDROOT
BRANCH   1   7
ATOM      7  C   UNL     1     -16.271 -42.418  23.393  1.00  0.00     0.016 C 
BRANCH   7   8
ATOM      8  C   UNL     1     -17.490 -41.929  23.123  1.00  0.00     0.005 C 
ATOM      9  C   UNL     1     -21.791 -40.166  22.368  1.00  0.00     0.161 A 
ATOM     10  C   UNL     1     -21.124 -41.098  23.178  1.00  0.00     0.055 A 
ATOM     11  C   UNL     1     -21.080 -39.416  21.389  1.00  0.00     0.161 A 
ATOM     12  C   UNL     1     -19.759 -41.269  23.005  1.00  0.00    -0.028 A 
ATOM     13  C   UNL     1     -19.704 -39.600  21.226  1.00  0.00     0.063 A 
ATOM     14  C   UNL     1     -19.080 -40.526  22.042  1.00  0.00     0.030 A 
ATOM     15  C   UNL     1     -18.840 -42.198  23.741  1.00  0.00     0.076 C 
ATOM     16  C   UNL     1     -17.661 -40.888  22.061  1.00  0.00     0.189 C 
ATOM     17  O   UNL     1     -16.789 -40.427  21.355  1.00  0.00    -0.289 OA
BRANCH   9  18
ATOM     18  O   UNL     1     -23.139 -39.908  22.445  1.00  0.00    -0.493 OA
ATOM     19  C   UNL     1     -23.637 -39.297  23.626  1.00  0.00     0.278 C 
ENDBRANCH   9  18
BRANCH  11  20
ATOM     20  O   UNL     1     -21.831 -38.534  20.652  1.00  0.00    -0.493 OA
ATOM     21  C   UNL     1     -21.265 -38.020  19.454  1.00  0.00     0.278 C 
ENDBRANCH  11  20
ENDBRANCH   7   8
ENDBRANCH   1   7
BRANCH   4  22
ATOM     22  C   UNL     1     -14.427 -44.250  28.485  1.00  0.00     0.393 C 
BRANCH  22  23
ATOM     23  C   UNL     1     -13.147 -45.035  28.346  1.00  0.00     0.017 A 
ATOM     24  C   UNL     1     -12.008 -44.698  29.099  1.00  0.00     0.013 A 
ATOM     25  C   UNL     1     -13.079 -46.129  27.464  1.00  0.00     0.013 A 
ATOM     26  C   UNL     1     -10.826 -45.429  28.959  1.00  0.00     0.040 A 
ATOM     27  C   UNL     1     -11.894 -46.855  27.328  1.00  0.00     0.040 A 
ATOM     28  C   UNL     1     -10.779 -46.499  28.074  1.00  0.00     0.123 A 
ATOM     29  F   UNL     1      -9.645 -47.196  27.941  1.00  0.00    -0.207 F 
ENDBRANCH  22  23
ENDBRANCH   4  22
TORSDOF 6
ENDMDL
MODEL 7
REMARK VINA RESULT:   -10.012      1.972      3.459
REMARK INTER + INTRA:         -13.923
REMARK INTER:                 -13.646
REMARK INTRA:                  -0.277
REMARK UNBOUND:                -0.399
REMARK SMILES COc1cc2c(cc1OC)C(=O)/C(=C/c1cc[n+](Cc3ccc(F)cc3)cc1)C2
REMARK SMILES IDX 15 1 16 2 17 3 18 4 27 5 28 6 14 7 13 8 3 9 4 10 8 11 5 12
REMARK SMILES IDX 7 13 6 14 29 15 11 16 12 17 2 18 1 19 9 20 10 21 19 22 20 23
REMARK SMILES IDX 21 24 26 25 22 26 25 27 23 28 24 29
REMARK H PARENT
ROOT
ATOM      1  C   UNL     1     -15.444 -43.592  27.685  1.00  0.00    -0.013 A 
ATOM      2  C   UNL     1     -15.025 -44.058  28.929  1.00  0.00     0.079 A 
ATOM      3  C   UNL     1     -13.923 -44.903  29.014  1.00  0.00     0.309 A 
ATOM      4  N   UNL     1     -13.247 -45.267  27.901  1.00  0.00    -0.201 N 
ATOM      5  C   UNL     1     -13.637 -44.822  26.682  1.00  0.00     0.309 A 
ATOM      6  C   UNL     1     -14.733 -43.977  26.551  1.00  0.00     0.079 A 
ENDROOT
BRANCH   1   7
ATOM      7  C   UNL     1     -16.571 -42.664  27.614  1.00  0.00     0.016 C 
BRANCH   7   8
ATOM      8  C   UNL     1     -17.310 -42.420  26.522  1.00  0.00     0.005 C 
ATOM      9  C   UNL     1     -19.851 -41.746  22.615  1.00  0.00     0.161 A 
ATOM     10  C   UNL     1     -18.550 -42.077  23.023  1.00  0.00     0.055 A 
ATOM     11  C   UNL     1     -20.870 -41.494  23.578  1.00  0.00     0.161 A 
ATOM     12  C   UNL     1     -18.280 -42.154  24.381  1.00  0.00    -0.028 A 
ATOM     13  C   UNL     1     -20.583 -41.575  24.943  1.00  0.00     0.063 A 
ATOM     14  C   UNL     1     -19.291 -41.904  25.307  1.00  0.00     0.030 A 
ATOM     15  C   UNL     1     -16.979 -42.483  25.051  1.00  0.00     0.076 C 
ATOM     16  C   UNL     1     -18.754 -42.052  26.662  1.00  0.00     0.189 C 
ATOM     17  O   UNL     1     -19.366 -41.909  27.700  1.00  0.00    -0.289 OA
BRANCH   9  18
ATOM     18  O   UNL     1     -20.241 -41.640  21.301  1.00  0.00    -0.493 OA
ATOM     19  C   UNL     1     -19.836 -40.490  20.574  1.00  0.00     0.278 C 
ENDBRANCH   9  18
BRANCH  11  20
ATOM     20  O   UNL     1     -22.106 -41.178  23.068  1.00  0.00    -0.493 OA
ATOM     21  C   UNL     1     -22.580 -39.851  23.252  1.00  0.00     0.278 C 
ENDBRANCH  11  20
ENDBRANCH   7   8
ENDBRANCH   1   7
BRANCH   4  22
ATOM     22  C   UNL     1     -12.072 -46.169  28.011  1.00  0.00     0.393 C 
BRANCH  22  23
ATOM     23  C   UNL     1     -11.145 -45.728  29.116  1.00  0.00     0.017 A 
ATOM     24  C   UNL     1     -10.217 -44.693  28.909  1.00  0.00     0.013 A 
ATOM     25  C   UNL     1     -11.206 -46.344  30.379  1.00  0.00     0.013 A 
ATOM     26  C   UNL     1      -9.360 -44.295  29.938  1.00  0.00     0.040 A 
ATOM     27  C   UNL     1     -10.347 -45.943  31.404  1.00  0.00     0.040 A 
ATOM     28  C   UNL     1      -9.431 -44.925  31.175  1.00  0.00     0.123 A 
ATOM     29  F   UNL     1      -8.608 -44.543  32.158  1.00  0.00    -0.207 F 
ENDBRANCH  22  23
ENDBRANCH   4  22
TORSDOF 6
ENDMDL
MODEL 8
REMARK VINA RESULT:    -9.735      2.959      5.734
REMARK INTER + INTRA:         -13.549
REMARK INTER:                 -12.959
REMARK INTRA:                  -0.590
REMARK UNBOUND:                -0.399
REMARK SMILES COc1cc2c(cc1OC)C(=O)/C(=C/c1cc[n+](Cc3ccc(F)cc3)cc1)C2
REMARK SMILES IDX 15 1 16 2 17 3 18 4 27 5 28 6 14 7 13 8 3 9 4 10 8 11 5 12
REMARK SMILES IDX 7 13 6 14 29 15 11 16 12 17 2 18 1 19 9 20 10 21 19 22 20 23
REMARK SMILES IDX 21 24 26 25 22 26 25 27 23 28 24 29
REMARK H PARENT
ROOT
ATOM      1  C   UNL     1     -16.920 -42.852  25.108  1.00  0.00    -0.013 A 
ATOM      2  C   UNL     1     -15.918 -43.152  24.188  1.00  0.00     0.079 A 
ATOM      3  C   UNL     1     -14.588 -43.160  24.595  1.00  0.00     0.309 A 
ATOM      4  N   UNL     1     -14.259 -42.890  25.879  1.00  0.00    -0.201 N 
ATOM      5  C   UNL     1     -15.219 -42.599  26.789  1.00  0.00     0.309 A 
ATOM      6  C   UNL     1     -16.561 -42.579  26.425  1.00  0.00     0.079 A 
ENDROOT
BRANCH   1   7
ATOM      7  C   UNL     1     -18.317 -42.898  24.681  1.00  0.00     0.016 C 
BRANCH   7   8
ATOM      8  C   UNL     1     -18.926 -41.983  23.913  1.00  0.00     0.005 C 
ATOM      9  C   UNL     1     -21.039 -38.892  21.057  1.00  0.00     0.161 A 
ATOM     10  C   UNL     1     -19.849 -39.626  21.176  1.00  0.00     0.055 A 
ATOM     11  C   UNL     1     -22.057 -38.996  22.047  1.00  0.00     0.161 A 
ATOM     12  C   UNL     1     -19.688 -40.454  22.277  1.00  0.00    -0.028 A 
ATOM     13  C   UNL     1     -21.880 -39.835  23.151  1.00  0.00     0.063 A 
ATOM     14  C   UNL     1     -20.696 -40.543  23.234  1.00  0.00     0.030 A 
ATOM     15  C   UNL     1     -18.515 -41.324  22.619  1.00  0.00     0.076 C 
ATOM     16  C   UNL     1     -20.286 -41.479  24.284  1.00  0.00     0.189 C 
ATOM     17  O   UNL     1     -20.929 -41.791  25.264  1.00  0.00    -0.289 OA
BRANCH   9  18
ATOM     18  O   UNL     1     -21.315 -38.039  20.015  1.00  0.00    -0.493 OA
ATOM     19  C   UNL     1     -21.710 -38.605  18.774  1.00  0.00     0.278 C 
ENDBRANCH   9  18
BRANCH  11  20
ATOM     20  O   UNL     1     -23.179 -38.234  21.831  1.00  0.00    -0.493 OA
ATOM     21  C   UNL     1     -24.391 -38.910  21.526  1.00  0.00     0.278 C 
ENDBRANCH  11  20
ENDBRANCH   7   8
ENDBRANCH   1   7
BRANCH   4  22
ATOM     22  C   UNL     1     -12.832 -42.904  26.296  1.00  0.00     0.393 C 
BRANCH  22  23
ATOM     23  C   UNL     1     -12.596 -43.903  27.401  1.00  0.00     0.017 A 
ATOM     24  C   UNL     1     -11.717 -43.612  28.460  1.00  0.00     0.013 A 
ATOM     25  C   UNL     1     -13.264 -45.141  27.392  1.00  0.00     0.013 A 
ATOM     26  C   UNL     1     -11.501 -44.547  29.476  1.00  0.00     0.040 A 
ATOM     27  C   UNL     1     -13.044 -46.070  28.411  1.00  0.00     0.040 A 
ATOM     28  C   UNL     1     -12.165 -45.767  29.441  1.00  0.00     0.123 A 
ATOM     29  F   UNL     1     -11.955 -46.660  30.415  1.00  0.00    -0.207 F 
ENDBRANCH  22  23
ENDBRANCH   4  22
TORSDOF 6
ENDMDL
MODEL 9
REMARK VINA RESULT:    -9.522      3.386      6.077
REMARK INTER + INTRA:         -13.261
REMARK INTER:                 -13.065
REMARK INTRA:                  -0.195
REMARK UNBOUND:                -0.399
REMARK SMILES COc1cc2c(cc1OC)C(=O)/C(=C/c1cc[n+](Cc3ccc(F)cc3)cc1)C2
REMARK SMILES IDX 15 1 16 2 17 3 18 4 27 5 28 6 14 7 13 8 3 9 4 10 8 11 5 12
REMARK SMILES IDX 7 13 6 14 29 15 11 16 12 17 2 18 1 19 9 20 10 21 19 22 20 23
REMARK SMILES IDX 21 24 26 25 22 26 25 27 23 28 24 29
REMARK H PARENT
ROOT
ATOM      1  C   UNL     1     -17.752 -42.450  26.439  1.00  0.00    -0.013 A 
ATOM      2  C   UNL     1     -16.872 -42.514  27.517  1.00  0.00     0.079 A 
ATOM      3  C   UNL     1     -15.522 -42.762  27.292  1.00  0.00     0.309 A 
ATOM      4  N   UNL     1     -15.053 -42.930  26.035  1.00  0.00    -0.201 N 
ATOM      5  C   UNL     1     -15.892 -42.868  24.973  1.00  0.00     0.309 A 
ATOM      6  C   UNL     1     -17.249 -42.624  25.152  1.00  0.00     0.079 A 
ENDROOT
BRANCH   1   7
ATOM      7  C   UNL     1     -19.159 -42.137  26.684  1.00  0.00     0.016 C 
BRANCH   7   8
ATOM      8  C   UNL     1     -19.998 -41.586  25.797  1.00  0.00     0.005 C 
ATOM      9  C   UNL     1     -22.925 -39.813  22.561  1.00  0.00     0.161 A 
ATOM     10  C   UNL     1     -21.627 -40.332  22.687  1.00  0.00     0.055 A 
ATOM     11  C   UNL     1     -23.779 -39.714  23.697  1.00  0.00     0.161 A 
ATOM     12  C   UNL     1     -21.197 -40.748  23.938  1.00  0.00    -0.028 A 
ATOM     13  C   UNL     1     -23.331 -40.137  24.951  1.00  0.00     0.063 A 
ATOM     14  C   UNL     1     -22.048 -40.643  25.037  1.00  0.00     0.030 A 
ATOM     15  C   UNL     1     -19.867 -41.326  24.316  1.00  0.00     0.076 C 
ATOM     16  C   UNL     1     -21.364 -41.148  26.229  1.00  0.00     0.189 C 
ATOM     17  O   UNL     1     -21.818 -41.206  27.352  1.00  0.00    -0.289 OA
BRANCH   9  18
ATOM     18  O   UNL     1     -23.464 -39.369  21.377  1.00  0.00    -0.493 OA
ATOM     19  C   UNL     1     -22.820 -38.294  20.710  1.00  0.00     0.278 C 
ENDBRANCH   9  18
BRANCH  11  20
ATOM     20  O   UNL     1     -25.027 -39.191  23.460  1.00  0.00    -0.493 OA
ATOM     21  C   UNL     1     -26.151 -39.916  23.940  1.00  0.00     0.278 C 
ENDBRANCH  11  20
ENDBRANCH   7   8
ENDBRANCH   1   7
BRANCH   4  22
ATOM     22  C   UNL     1     -13.608 -43.194  25.813  1.00  0.00     0.393 C 
BRANCH  22  23
ATOM     23  C   UNL     1     -13.042 -44.082  26.893  1.00  0.00     0.017 A 
ATOM     24  C   UNL     1     -12.138 -43.576  27.843  1.00  0.00     0.013 A 
ATOM     25  C   UNL     1     -13.423 -45.434  26.969  1.00  0.00     0.013 A 
ATOM     26  C   UNL     1     -11.616 -44.409  28.836  1.00  0.00     0.040 A 
ATOM     27  C   UNL     1     -12.897 -46.262  27.963  1.00  0.00     0.040 A 
ATOM     28  C   UNL     1     -11.999 -45.744  28.886  1.00  0.00     0.123 A 
ATOM     29  F   UNL     1     -11.496 -46.539  29.837  1.00  0.00    -0.207 F 
ENDBRANCH  22  23
ENDBRANCH   4  22
TORSDOF 6
ENDMDL
