MODEL 1
REMARK VINA RESULT:   -12.059      0.000      0.000
REMARK INTER + INTRA:         -17.026
REMARK INTER:                 -16.993
REMARK INTRA:                  -0.032
REMARK UNBOUND:                -0.032
REMARK SMILES C=C(O)c1c[n+](Cc2ccccc2C)ccc1CC1=C(O)c2ccc(OC)cc2CC1
REMARK SMILES IDX 4 1 5 2 6 3 15 4 16 5 17 6 2 7 1 8 3 9 18 11 19 12 20 13
REMARK SMILES IDX 31 14 22 15 30 16 23 17 29 18 24 19 28 20 25 21 21 22 26 24
REMARK SMILES IDX 27 25 7 26 8 27 9 28 13 29 10 30 12 31 11 32 14 33
REMARK H PARENT 3 10 21 23
ROOT
ATOM      1  C   UNL     1     -11.388 -43.545  28.371  1.00  0.00     0.083 A 
ATOM      2  C   UNL     1     -10.942 -44.148  29.551  1.00  0.00     0.320 A 
ATOM      3  N   UNL     1     -11.580 -45.219  30.078  1.00  0.00    -0.200 N 
ATOM      4  C   UNL     1     -12.672 -45.732  29.474  1.00  0.00     0.308 A 
ATOM      5  C   UNL     1     -13.152 -45.179  28.292  1.00  0.00     0.075 A 
ATOM      6  C   UNL     1     -12.511 -44.073  27.716  1.00  0.00    -0.021 A 
ENDROOT
BRANCH   1   7
ATOM      7  C   UNL     1     -10.602 -42.419  27.866  1.00  0.00     0.121 C 
ATOM      8  C   UNL     1      -9.471 -42.580  27.169  1.00  0.00     0.059 C 
BRANCH   7   9
ATOM      9  O   UNL     1     -11.160 -41.193  28.119  1.00  0.00    -0.508 OA
ATOM     10  H   UNL     1     -11.957 -41.321  28.666  1.00  0.00     0.293 HD
ENDBRANCH   7   9
ENDBRANCH   1   7
BRANCH   6  11
ATOM     11  C   UNL     1     -13.037 -43.527  26.398  1.00  0.00     0.071 C 
BRANCH  11  12
ATOM     12  C   UNL     1     -14.515 -43.210  26.374  1.00  0.00    -0.023 C 
ATOM     13  C   UNL     1     -15.149 -42.804  25.255  1.00  0.00     0.122 C 
ATOM     14  C   UNL     1     -15.312 -43.446  27.641  1.00  0.00     0.040 C 
ATOM     15  C   UNL     1     -16.617 -42.606  25.234  1.00  0.00     0.020 A 
ATOM     16  C   UNL     1     -16.534 -42.527  27.749  1.00  0.00     0.041 C 
ATOM     17  C   UNL     1     -17.364 -42.583  24.047  1.00  0.00     0.016 A 
ATOM     18  C   UNL     1     -17.300 -42.465  26.456  1.00  0.00    -0.033 A 
ATOM     19  C   UNL     1     -18.750 -42.370  24.069  1.00  0.00     0.047 A 
ATOM     20  C   UNL     1     -18.684 -42.232  26.467  1.00  0.00     0.050 A 
ATOM     21  C   UNL     1     -19.414 -42.184  25.279  1.00  0.00     0.119 A 
BRANCH  13  22
ATOM     22  O   UNL     1     -14.445 -42.569  24.093  1.00  0.00    -0.507 OA
ATOM     23  H   UNL     1     -13.623 -43.086  24.121  1.00  0.00     0.293 HD
ENDBRANCH  13  22
BRANCH  21  24
ATOM     24  O   UNL     1     -20.751 -41.959  25.439  1.00  0.00    -0.497 OA
ATOM     25  C   UNL     1     -21.165 -41.374  26.668  1.00  0.00     0.278 C 
ENDBRANCH  21  24
ENDBRANCH  11  12
ENDBRANCH   6  11
BRANCH   3  26
ATOM     26  C   UNL     1     -11.077 -45.818  31.341  1.00  0.00     0.393 C 
BRANCH  26  27
ATOM     27  C   UNL     1      -9.723 -45.264  31.717  1.00  0.00     0.020 A 
ATOM     28  C   UNL     1      -8.568 -45.985  31.350  1.00  0.00     0.010 A 
ATOM     29  C   UNL     1      -9.576 -44.056  32.436  1.00  0.00    -0.042 A 
ATOM     30  C   UNL     1      -7.296 -45.511  31.668  1.00  0.00     0.001 A 
ATOM     31  C   UNL     1      -8.285 -43.596  32.744  1.00  0.00     0.004 A 
ATOM     32  C   UNL     1      -7.155 -44.316  32.362  1.00  0.00     0.000 A 
ATOM     33  C   UNL     1     -10.753 -43.236  32.895  1.00  0.00     0.045 C 
ENDBRANCH  26  27
ENDBRANCH   3  26
TORSDOF 8
ENDMDL
MODEL 2
REMARK VINA RESULT:   -11.744      2.499      9.583
REMARK INTER + INTRA:         -16.583
REMARK INTER:                 -15.453
REMARK INTRA:                  -1.130
REMARK UNBOUND:                -0.032
REMARK SMILES C=C(O)c1c[n+](Cc2ccccc2C)ccc1CC1=C(O)c2ccc(OC)cc2CC1
REMARK SMILES IDX 4 1 5 2 6 3 15 4 16 5 17 6 2 7 1 8 3 9 18 11 19 12 20 13
REMARK SMILES IDX 31 14 22 15 30 16 23 17 29 18 24 19 28 20 25 21 21 22 26 24
REMARK SMILES IDX 27 25 7 26 8 27 9 28 13 29 10 30 12 31 11 32 14 33
REMARK H PARENT 3 10 21 23
ROOT
ATOM      1  C   UNL     1     -16.702 -42.639  25.065  1.00  0.00     0.083 A 
ATOM      2  C   UNL     1     -17.955 -42.263  25.559  1.00  0.00     0.320 A 
ATOM      3  N   UNL     1     -18.191 -42.182  26.889  1.00  0.00    -0.200 N 
ATOM      4  C   UNL     1     -17.216 -42.465  27.777  1.00  0.00     0.308 A 
ATOM      5  C   UNL     1     -15.948 -42.833  27.341  1.00  0.00     0.075 A 
ATOM      6  C   UNL     1     -15.668 -42.923  25.970  1.00  0.00    -0.021 A 
ENDROOT
BRANCH   1   7
ATOM      7  C   UNL     1     -16.543 -42.657  23.611  1.00  0.00     0.121 C 
ATOM      8  C   UNL     1     -16.068 -41.613  22.921  1.00  0.00     0.059 C 
BRANCH   7   9
ATOM      9  O   UNL     1     -16.867 -43.855  23.030  1.00  0.00    -0.508 OA
ATOM     10  H   UNL     1     -16.837 -43.750  22.062  1.00  0.00     0.293 HD
ENDBRANCH   7   9
ENDBRANCH   1   7
BRANCH   6  11
ATOM     11  C   UNL     1     -14.257 -43.281  25.533  1.00  0.00     0.071 C 
BRANCH  11  12
ATOM     12  C   UNL     1     -13.447 -44.065  26.541  1.00  0.00    -0.023 C 
ATOM     13  C   UNL     1     -12.511 -43.489  27.321  1.00  0.00     0.122 C 
ATOM     14  C   UNL     1     -13.776 -45.532  26.725  1.00  0.00     0.040 C 
ATOM     15  C   UNL     1     -11.810 -44.261  28.374  1.00  0.00     0.020 A 
ATOM     16  C   UNL     1     -12.570 -46.353  27.197  1.00  0.00     0.041 C 
ATOM     17  C   UNL     1     -11.148 -43.651  29.449  1.00  0.00     0.016 A 
ATOM     18  C   UNL     1     -11.833 -45.666  28.314  1.00  0.00    -0.033 A 
ATOM     19  C   UNL     1     -10.478 -44.416  30.414  1.00  0.00     0.047 A 
ATOM     20  C   UNL     1     -11.142 -46.424  29.273  1.00  0.00     0.050 A 
ATOM     21  C   UNL     1     -10.463 -45.806  30.324  1.00  0.00     0.119 A 
BRANCH  13  22
ATOM     22  O   UNL     1     -12.183 -42.160  27.163  1.00  0.00    -0.507 OA
ATOM     23  H   UNL     1     -12.775 -41.774  26.496  1.00  0.00     0.293 HD
ENDBRANCH  13  22
BRANCH  21  24
ATOM     24  O   UNL     1      -9.844 -46.665  31.186  1.00  0.00    -0.497 OA
ATOM     25  C   UNL     1      -8.426 -46.587  31.267  1.00  0.00     0.278 C 
ENDBRANCH  21  24
ENDBRANCH  11  12
ENDBRANCH   6  11
BRANCH   3  26
ATOM     26  C   UNL     1     -19.542 -41.790  27.367  1.00  0.00     0.393 C 
BRANCH  26  27
ATOM     27  C   UNL     1     -20.574 -42.842  27.033  1.00  0.00     0.020 A 
ATOM     28  C   UNL     1     -20.578 -44.046  27.766  1.00  0.00     0.010 A 
ATOM     29  C   UNL     1     -21.526 -42.665  26.003  1.00  0.00    -0.042 A 
ATOM     30  C   UNL     1     -21.515 -45.044  27.501  1.00  0.00     0.001 A 
ATOM     31  C   UNL     1     -22.462 -43.682  25.754  1.00  0.00     0.004 A 
ATOM     32  C   UNL     1     -22.458 -44.860  26.498  1.00  0.00     0.000 A 
ATOM     33  C   UNL     1     -21.577 -41.425  25.150  1.00  0.00     0.045 C 
ENDBRANCH  26  27
ENDBRANCH   3  26
TORSDOF 8
ENDMDL
MODEL 3
REMARK VINA RESULT:   -11.495      1.693      2.794
REMARK INTER + INTRA:         -16.231
REMARK INTER:                 -15.746
REMARK INTRA:                  -0.485
REMARK UNBOUND:                -0.032
REMARK SMILES C=C(O)c1c[n+](Cc2ccccc2C)ccc1CC1=C(O)c2ccc(OC)cc2CC1
REMARK SMILES IDX 4 1 5 2 6 3 15 4 16 5 17 6 2 7 1 8 3 9 18 11 19 12 20 13
REMARK SMILES IDX 31 14 22 15 30 16 23 17 29 18 24 19 28 20 25 21 21 22 26 24
REMARK SMILES IDX 27 25 7 26 8 27 9 28 13 29 10 30 12 31 11 32 14 33
REMARK H PARENT 3 10 21 23
ROOT
ATOM      1  C   UNL     1     -12.014 -44.879  28.179  1.00  0.00     0.083 A 
ATOM      2  C   UNL     1     -11.124 -44.778  29.252  1.00  0.00     0.320 A 
ATOM      3  N   UNL     1     -10.469 -43.624  29.516  1.00  0.00    -0.200 N 
ATOM      4  C   UNL     1     -10.658 -42.536  28.740  1.00  0.00     0.308 A 
ATOM      5  C   UNL     1     -11.540 -42.577  27.666  1.00  0.00     0.075 A 
ATOM      6  C   UNL     1     -12.239 -43.756  27.369  1.00  0.00    -0.021 A 
ENDROOT
BRANCH   1   7
ATOM      7  C   UNL     1     -12.700 -46.160  28.008  1.00  0.00     0.121 C 
ATOM      8  C   UNL     1     -12.572 -46.910  26.907  1.00  0.00     0.059 C 
BRANCH   7   9
ATOM      9  O   UNL     1     -13.434 -46.548  29.099  1.00  0.00    -0.508 OA
ATOM     10  H   UNL     1     -13.206 -45.967  29.849  1.00  0.00     0.293 HD
ENDBRANCH   7   9
ENDBRANCH   1   7
BRANCH   6  11
ATOM     11  C   UNL     1     -13.231 -43.747  26.217  1.00  0.00     0.071 C 
BRANCH  11  12
ATOM     12  C   UNL     1     -14.650 -43.378  26.588  1.00  0.00    -0.023 C 
ATOM     13  C   UNL     1     -15.500 -42.806  25.712  1.00  0.00     0.122 C 
ATOM     14  C   UNL     1     -15.139 -43.750  27.973  1.00  0.00     0.040 C 
ATOM     15  C   UNL     1     -16.916 -42.555  26.071  1.00  0.00     0.020 A 
ATOM     16  C   UNL     1     -16.239 -42.811  28.482  1.00  0.00     0.041 C 
ATOM     17  C   UNL     1     -17.917 -42.350  25.111  1.00  0.00     0.016 A 
ATOM     18  C   UNL     1     -17.281 -42.552  27.429  1.00  0.00    -0.033 A 
ATOM     19  C   UNL     1     -19.242 -42.093  25.493  1.00  0.00     0.047 A 
ATOM     20  C   UNL     1     -18.605 -42.274  27.803  1.00  0.00     0.050 A 
ATOM     21  C   UNL     1     -19.589 -42.044  26.840  1.00  0.00     0.119 A 
BRANCH  13  22
ATOM     22  O   UNL     1     -15.076 -42.445  24.451  1.00  0.00    -0.507 OA
ATOM     23  H   UNL     1     -14.339 -43.025  24.197  1.00  0.00     0.293 HD
ENDBRANCH  13  22
BRANCH  21  24
ATOM     24  O   UNL     1     -20.834 -41.795  27.345  1.00  0.00    -0.497 OA
ATOM     25  C   UNL     1     -21.611 -40.802  26.687  1.00  0.00     0.278 C 
ENDBRANCH  21  24
ENDBRANCH  11  12
ENDBRANCH   6  11
BRANCH   3  26
ATOM     26  C   UNL     1      -9.523 -43.567  30.660  1.00  0.00     0.393 C 
BRANCH  26  27
ATOM     27  C   UNL     1     -10.207 -43.095  31.921  1.00  0.00     0.020 A 
ATOM     28  C   UNL     1     -11.598 -42.864  31.894  1.00  0.00     0.010 A 
ATOM     29  C   UNL     1      -9.499 -42.864  33.123  1.00  0.00    -0.042 A 
ATOM     30  C   UNL     1     -12.277 -42.435  33.034  1.00  0.00     0.001 A 
ATOM     31  C   UNL     1     -10.202 -42.433  34.260  1.00  0.00     0.004 A 
ATOM     32  C   UNL     1     -11.579 -42.223  34.216  1.00  0.00     0.000 A 
ATOM     33  C   UNL     1      -8.010 -43.055  33.236  1.00  0.00     0.045 C 
ENDBRANCH  26  27
ENDBRANCH   3  26
TORSDOF 8
ENDMDL
MODEL 4
REMARK VINA RESULT:   -11.109      1.443      2.313
REMARK INTER + INTRA:         -15.687
REMARK INTER:                 -15.387
REMARK INTRA:                  -0.300
REMARK UNBOUND:                -0.032
REMARK SMILES C=C(O)c1c[n+](Cc2ccccc2C)ccc1CC1=C(O)c2ccc(OC)cc2CC1
REMARK SMILES IDX 4 1 5 2 6 3 15 4 16 5 17 6 2 7 1 8 3 9 18 11 19 12 20 13
REMARK SMILES IDX 31 14 22 15 30 16 23 17 29 18 24 19 28 20 25 21 21 22 26 24
REMARK SMILES IDX 27 25 7 26 8 27 9 28 13 29 10 30 12 31 11 32 14 33
REMARK H PARENT 3 10 21 23
ROOT
ATOM      1  C   UNL     1     -12.147 -45.082  28.726  1.00  0.00     0.083 A 
ATOM      2  C   UNL     1     -11.730 -45.170  30.057  1.00  0.00     0.320 A 
ATOM      3  N   UNL     1     -11.191 -44.106  30.697  1.00  0.00    -0.200 N 
ATOM      4  C   UNL     1     -11.041 -42.926  30.060  1.00  0.00     0.308 A 
ATOM      5  C   UNL     1     -11.450 -42.780  28.738  1.00  0.00     0.075 A 
ATOM      6  C   UNL     1     -12.016 -43.861  28.048  1.00  0.00    -0.021 A 
ENDROOT
BRANCH   1   7
ATOM      7  C   UNL     1     -12.752 -46.280  28.143  1.00  0.00     0.121 C 
ATOM      8  C   UNL     1     -12.328 -46.819  26.994  1.00  0.00     0.059 C 
BRANCH   7   9
ATOM      9  O   UNL     1     -13.746 -46.830  28.909  1.00  0.00    -0.508 OA
ATOM     10  H   UNL     1     -14.095 -46.143  29.506  1.00  0.00     0.293 HD
ENDBRANCH   7   9
ENDBRANCH   1   7
BRANCH   6  11
ATOM     11  C   UNL     1     -12.494 -43.648  26.621  1.00  0.00     0.071 C 
BRANCH  11  12
ATOM     12  C   UNL     1     -13.971 -43.356  26.471  1.00  0.00    -0.023 C 
ATOM     13  C   UNL     1     -14.510 -42.934  25.310  1.00  0.00     0.122 C 
ATOM     14  C   UNL     1     -14.872 -43.635  27.657  1.00  0.00     0.040 C 
ATOM     15  C   UNL     1     -15.974 -42.760  25.162  1.00  0.00     0.020 A 
ATOM     16  C   UNL     1     -16.116 -42.740  27.676  1.00  0.00     0.041 C 
ATOM     17  C   UNL     1     -16.612 -42.721  23.914  1.00  0.00     0.016 A 
ATOM     18  C   UNL     1     -16.765 -42.660  26.321  1.00  0.00    -0.033 A 
ATOM     19  C   UNL     1     -17.999 -42.533  23.817  1.00  0.00     0.047 A 
ATOM     20  C   UNL     1     -18.149 -42.451  26.214  1.00  0.00     0.050 A 
ATOM     21  C   UNL     1     -18.771 -42.386  24.967  1.00  0.00     0.119 A 
BRANCH  13  22
ATOM     22  O   UNL     1     -13.710 -42.659  24.221  1.00  0.00    -0.507 OA
ATOM     23  H   UNL     1     -14.263 -42.267  23.524  1.00  0.00     0.293 HD
ENDBRANCH  13  22
BRANCH  21  24
ATOM     24  O   UNL     1     -20.122 -42.188  25.012  1.00  0.00    -0.497 OA
ATOM     25  C   UNL     1     -20.614 -41.328  26.031  1.00  0.00     0.278 C 
ENDBRANCH  21  24
ENDBRANCH  11  12
ENDBRANCH   6  11
BRANCH   3  26
ATOM     26  C   UNL     1     -10.751 -44.250  32.109  1.00  0.00     0.393 C 
BRANCH  26  27
ATOM     27  C   UNL     1      -9.245 -44.303  32.217  1.00  0.00     0.020 A 
ATOM     28  C   UNL     1      -8.563 -43.190  32.747  1.00  0.00     0.010 A 
ATOM     29  C   UNL     1      -8.497 -45.425  31.790  1.00  0.00    -0.042 A 
ATOM     30  C   UNL     1      -7.174 -43.193  32.874  1.00  0.00     0.001 A 
ATOM     31  C   UNL     1      -7.100 -45.408  31.929  1.00  0.00     0.004 A 
ATOM     32  C   UNL     1      -6.444 -44.303  32.468  1.00  0.00     0.000 A 
ATOM     33  C   UNL     1      -9.139 -46.645  31.184  1.00  0.00     0.045 C 
ENDBRANCH  26  27
ENDBRANCH   3  26
TORSDOF 8
ENDMDL
MODEL 5
REMARK VINA RESULT:   -10.606      2.389      9.454
REMARK INTER + INTRA:         -14.978
REMARK INTER:                 -14.120
REMARK INTRA:                  -0.858
REMARK UNBOUND:                -0.032
REMARK SMILES C=C(O)c1c[n+](Cc2ccccc2C)ccc1CC1=C(O)c2ccc(OC)cc2CC1
REMARK SMILES IDX 4 1 5 2 6 3 15 4 16 5 17 6 2 7 1 8 3 9 18 11 19 12 20 13
REMARK SMILES IDX 31 14 22 15 30 16 23 17 29 18 24 19 28 20 25 21 21 22 26 24
REMARK SMILES IDX 27 25 7 26 8 27 9 28 13 29 10 30 12 31 11 32 14 33
REMARK H PARENT 3 10 21 23
ROOT
ATOM      1  C   UNL     1     -15.903 -42.932  25.563  1.00  0.00     0.083 A 
ATOM      2  C   UNL     1     -17.132 -42.403  25.970  1.00  0.00     0.320 A 
ATOM      3  N   UNL     1     -17.496 -42.390  27.272  1.00  0.00    -0.200 N 
ATOM      4  C   UNL     1     -16.675 -42.892  28.218  1.00  0.00     0.308 A 
ATOM      5  C   UNL     1     -15.436 -43.420  27.872  1.00  0.00     0.075 A 
ATOM      6  C   UNL     1     -15.026 -43.445  26.531  1.00  0.00    -0.021 A 
ENDROOT
BRANCH   1   7
ATOM      7  C   UNL     1     -15.592 -42.860  24.135  1.00  0.00     0.121 C 
ATOM      8  C   UNL     1     -16.314 -43.493  23.204  1.00  0.00     0.059 C 
BRANCH   7   9
ATOM      9  O   UNL     1     -14.536 -42.038  23.837  1.00  0.00    -0.508 OA
ATOM     10  H   UNL     1     -14.584 -41.250  24.409  1.00  0.00     0.293 HD
ENDBRANCH   7   9
ENDBRANCH   1   7
BRANCH   6  11
ATOM     11  C   UNL     1     -13.645 -43.984  26.198  1.00  0.00     0.071 C 
BRANCH  11  12
ATOM     12  C   UNL     1     -12.652 -43.969  27.339  1.00  0.00    -0.023 C 
ATOM     13  C   UNL     1     -12.554 -44.980  28.225  1.00  0.00     0.122 C 
ATOM     14  C   UNL     1     -11.685 -42.806  27.420  1.00  0.00     0.040 C 
ATOM     15  C   UNL     1     -11.500 -44.988  29.266  1.00  0.00     0.020 A 
ATOM     16  C   UNL     1     -11.226 -42.519  28.855  1.00  0.00     0.041 C 
ATOM     17  C   UNL     1     -11.099 -46.155  29.933  1.00  0.00     0.016 A 
ATOM     18  C   UNL     1     -10.850 -43.781  29.582  1.00  0.00    -0.033 A 
ATOM     19  C   UNL     1     -10.113 -46.115  30.929  1.00  0.00     0.047 A 
ATOM     20  C   UNL     1      -9.878 -43.747  30.594  1.00  0.00     0.050 A 
ATOM     21  C   UNL     1      -9.506 -44.910  31.271  1.00  0.00     0.119 A 
BRANCH  13  22
ATOM     22  O   UNL     1     -13.431 -46.043  28.181  1.00  0.00    -0.507 OA
ATOM     23  H   UNL     1     -14.300 -45.713  27.897  1.00  0.00     0.293 HD
ENDBRANCH  13  22
BRANCH  21  24
ATOM     24  O   UNL     1      -8.544 -44.732  32.224  1.00  0.00    -0.497 OA
ATOM     25  C   UNL     1      -8.274 -43.395  32.628  1.00  0.00     0.278 C 
ENDBRANCH  21  24
ENDBRANCH  11  12
ENDBRANCH   6  11
BRANCH   3  26
ATOM     26  C   UNL     1     -18.817 -41.830  27.655  1.00  0.00     0.393 C 
BRANCH  26  27
ATOM     27  C   UNL     1     -19.947 -42.745  27.247  1.00  0.00     0.020 A 
ATOM     28  C   UNL     1     -20.202 -43.896  28.020  1.00  0.00     0.010 A 
ATOM     29  C   UNL     1     -20.746 -42.496  26.107  1.00  0.00    -0.042 A 
ATOM     30  C   UNL     1     -21.238 -44.768  27.689  1.00  0.00     0.001 A 
ATOM     31  C   UNL     1     -21.785 -43.386  25.792  1.00  0.00     0.004 A 
ATOM     32  C   UNL     1     -22.030 -44.511  26.577  1.00  0.00     0.000 A 
ATOM     33  C   UNL     1     -20.526 -41.309  25.206  1.00  0.00     0.045 C 
ENDBRANCH  26  27
ENDBRANCH   3  26
TORSDOF 8
ENDMDL
MODEL 6
REMARK VINA RESULT:   -10.559      2.589      9.826
REMARK INTER + INTRA:         -14.912
REMARK INTER:                 -15.677
REMARK INTRA:                   0.765
REMARK UNBOUND:                -0.032
REMARK SMILES C=C(O)c1c[n+](Cc2ccccc2C)ccc1CC1=C(O)c2ccc(OC)cc2CC1
REMARK SMILES IDX 4 1 5 2 6 3 15 4 16 5 17 6 2 7 1 8 3 9 18 11 19 12 20 13
REMARK SMILES IDX 31 14 22 15 30 16 23 17 29 18 24 19 28 20 25 21 21 22 26 24
REMARK SMILES IDX 27 25 7 26 8 27 9 28 13 29 10 30 12 31 11 32 14 33
REMARK H PARENT 3 10 21 23
ROOT
ATOM      1  C   UNL     1     -15.642 -43.359  27.362  1.00  0.00     0.083 A 
ATOM      2  C   UNL     1     -16.056 -42.780  26.158  1.00  0.00     0.320 A 
ATOM      3  N   UNL     1     -15.447 -43.079  24.988  1.00  0.00    -0.200 N 
ATOM      4  C   UNL     1     -14.416 -43.949  24.954  1.00  0.00     0.308 A 
ATOM      5  C   UNL     1     -13.971 -44.563  26.119  1.00  0.00     0.075 A 
ATOM      6  C   UNL     1     -14.583 -44.279  27.349  1.00  0.00    -0.021 A 
ENDROOT
BRANCH   1   7
ATOM      7  C   UNL     1     -16.395 -42.997  28.563  1.00  0.00     0.121 C 
ATOM      8  C   UNL     1     -17.555 -42.332  28.518  1.00  0.00     0.059 C 
BRANCH   7   9
ATOM      9  O   UNL     1     -15.836 -43.453  29.728  1.00  0.00    -0.508 OA
ATOM     10  H   UNL     1     -15.496 -44.355  29.578  1.00  0.00     0.293 HD
ENDBRANCH   7   9
ENDBRANCH   1   7
BRANCH   6  11
ATOM     11  C   UNL     1     -14.099 -45.007  28.592  1.00  0.00     0.071 C 
BRANCH  11  12
ATOM     12  C   UNL     1     -12.704 -44.646  29.051  1.00  0.00    -0.023 C 
ATOM     13  C   UNL     1     -12.451 -44.165  30.285  1.00  0.00     0.122 C 
ATOM     14  C   UNL     1     -11.554 -44.924  28.105  1.00  0.00     0.040 C 
ATOM     15  C   UNL     1     -11.063 -43.923  30.743  1.00  0.00     0.020 A 
ATOM     16  C   UNL     1     -10.368 -43.977  28.324  1.00  0.00     0.041 C 
ATOM     17  C   UNL     1     -10.718 -43.817  32.098  1.00  0.00     0.016 A 
ATOM     18  C   UNL     1     -10.039 -43.825  29.784  1.00  0.00    -0.033 A 
ATOM     19  C   UNL     1      -9.395 -43.565  32.490  1.00  0.00     0.047 A 
ATOM     20  C   UNL     1      -8.721 -43.553  30.184  1.00  0.00     0.050 A 
ATOM     21  C   UNL     1      -8.394 -43.422  31.534  1.00  0.00     0.119 A 
BRANCH  13  22
ATOM     22  O   UNL     1     -13.481 -43.890  31.159  1.00  0.00    -0.507 OA
ATOM     23  H   UNL     1     -13.162 -43.251  31.818  1.00  0.00     0.293 HD
ENDBRANCH  13  22
BRANCH  21  24
ATOM     24  O   UNL     1      -7.074 -43.167  31.779  1.00  0.00    -0.497 OA
ATOM     25  C   UNL     1      -6.677 -43.069  33.141  1.00  0.00     0.278 C 
ENDBRANCH  21  24
ENDBRANCH  11  12
ENDBRANCH   6  11
BRANCH   3  26
ATOM     26  C   UNL     1     -15.914 -42.429  23.736  1.00  0.00     0.393 C 
BRANCH  26  27
ATOM     27  C   UNL     1     -17.408 -42.212  23.748  1.00  0.00     0.020 A 
ATOM     28  C   UNL     1     -18.190 -42.922  24.682  1.00  0.00     0.010 A 
ATOM     29  C   UNL     1     -18.051 -41.334  22.846  1.00  0.00    -0.042 A 
ATOM     30  C   UNL     1     -19.573 -42.751  24.738  1.00  0.00     0.001 A 
ATOM     31  C   UNL     1     -19.444 -41.175  22.920  1.00  0.00     0.004 A 
ATOM     32  C   UNL     1     -20.198 -41.876  23.859  1.00  0.00     0.000 A 
ATOM     33  C   UNL     1     -17.300 -40.559  21.795  1.00  0.00     0.045 C 
ENDBRANCH  26  27
ENDBRANCH   3  26
TORSDOF 8
ENDMDL
MODEL 7
REMARK VINA RESULT:   -10.072      5.539     12.998
REMARK INTER + INTRA:         -14.226
REMARK INTER:                 -13.172
REMARK INTRA:                  -1.055
REMARK UNBOUND:                -0.032
REMARK SMILES C=C(O)c1c[n+](Cc2ccccc2C)ccc1CC1=C(O)c2ccc(OC)cc2CC1
REMARK SMILES IDX 4 1 5 2 6 3 15 4 16 5 17 6 2 7 1 8 3 9 18 11 19 12 20 13
REMARK SMILES IDX 31 14 22 15 30 16 23 17 29 18 24 19 28 20 25 21 21 22 26 24
REMARK SMILES IDX 27 25 7 26 8 27 9 28 13 29 10 30 12 31 11 32 14 33
REMARK H PARENT 3 10 21 23
ROOT
ATOM      1  C   UNL     1     -21.142 -41.747  21.297  1.00  0.00     0.083 A 
ATOM      2  C   UNL     1     -21.132 -40.804  20.265  1.00  0.00     0.320 A 
ATOM      3  N   UNL     1     -20.877 -39.498  20.508  1.00  0.00    -0.200 N 
ATOM      4  C   UNL     1     -20.626 -39.070  21.763  1.00  0.00     0.308 A 
ATOM      5  C   UNL     1     -20.611 -39.967  22.826  1.00  0.00     0.075 A 
ATOM      6  C   UNL     1     -20.866 -41.328  22.608  1.00  0.00    -0.021 A 
ENDROOT
BRANCH   1   7
ATOM      7  C   UNL     1     -21.389 -43.139  20.919  1.00  0.00     0.121 C 
ATOM      8  C   UNL     1     -22.614 -43.675  20.891  1.00  0.00     0.059 C 
BRANCH   7   9
ATOM      9  O   UNL     1     -20.262 -43.820  20.539  1.00  0.00    -0.508 OA
ATOM     10  H   UNL     1     -19.834 -43.332  19.811  1.00  0.00     0.293 HD
ENDBRANCH   7   9
ENDBRANCH   1   7
BRANCH   6  11
ATOM     11  C   UNL     1     -20.793 -42.285  23.787  1.00  0.00     0.071 C 
BRANCH  11  12
ATOM     12  C   UNL     1     -19.459 -42.333  24.498  1.00  0.00    -0.023 C 
ATOM     13  C   UNL     1     -18.326 -42.729  23.883  1.00  0.00     0.122 C 
ATOM     14  C   UNL     1     -19.399 -41.832  25.926  1.00  0.00     0.040 C 
ATOM     15  C   UNL     1     -17.016 -42.663  24.572  1.00  0.00     0.020 A 
ATOM     16  C   UNL     1     -18.286 -42.501  26.740  1.00  0.00     0.041 C 
ATOM     17  C   UNL     1     -15.795 -42.672  23.884  1.00  0.00     0.016 A 
ATOM     18  C   UNL     1     -16.992 -42.556  25.974  1.00  0.00    -0.033 A 
ATOM     19  C   UNL     1     -14.575 -42.630  24.575  1.00  0.00     0.047 A 
ATOM     20  C   UNL     1     -15.767 -42.535  26.659  1.00  0.00     0.050 A 
ATOM     21  C   UNL     1     -14.557 -42.572  25.966  1.00  0.00     0.119 A 
BRANCH  13  22
ATOM     22  O   UNL     1     -18.356 -43.203  22.589  1.00  0.00    -0.507 OA
ATOM     23  H   UNL     1     -17.942 -42.541  22.010  1.00  0.00     0.293 HD
ENDBRANCH  13  22
BRANCH  21  24
ATOM     24  O   UNL     1     -13.444 -42.536  26.758  1.00  0.00    -0.497 OA
ATOM     25  C   UNL     1     -12.950 -43.782  27.233  1.00  0.00     0.278 C 
ENDBRANCH  21  24
ENDBRANCH  11  12
ENDBRANCH   6  11
BRANCH   3  26
ATOM     26  C   UNL     1     -20.891 -38.530  19.381  1.00  0.00     0.393 C 
BRANCH  26  27
ATOM     27  C   UNL     1     -22.248 -37.887  19.219  1.00  0.00     0.020 A 
ATOM     28  C   UNL     1     -22.468 -36.615  19.786  1.00  0.00     0.010 A 
ATOM     29  C   UNL     1     -23.308 -38.522  18.533  1.00  0.00    -0.042 A 
ATOM     30  C   UNL     1     -23.700 -35.975  19.658  1.00  0.00     0.001 A 
ATOM     31  C   UNL     1     -24.541 -37.860  18.414  1.00  0.00     0.004 A 
ATOM     32  C   UNL     1     -24.735 -36.597  18.970  1.00  0.00     0.000 A 
ATOM     33  C   UNL     1     -23.173 -39.892  17.922  1.00  0.00     0.045 C 
ENDBRANCH  26  27
ENDBRANCH   3  26
TORSDOF 8
ENDMDL
MODEL 8
REMARK VINA RESULT:   -10.057      2.884      5.364
REMARK INTER + INTRA:         -14.204
REMARK INTER:                 -12.787
REMARK INTRA:                  -1.417
REMARK UNBOUND:                -0.032
REMARK SMILES C=C(O)c1c[n+](Cc2ccccc2C)ccc1CC1=C(O)c2ccc(OC)cc2CC1
REMARK SMILES IDX 4 1 5 2 6 3 15 4 16 5 17 6 2 7 1 8 3 9 18 11 19 12 20 13
REMARK SMILES IDX 31 14 22 15 30 16 23 17 29 18 24 19 28 20 25 21 21 22 26 24
REMARK SMILES IDX 27 25 7 26 8 27 9 28 13 29 10 30 12 31 11 32 14 33
REMARK H PARENT 3 10 21 23
ROOT
ATOM      1  C   UNL     1     -15.919 -43.054  25.120  1.00  0.00     0.083 A 
ATOM      2  C   UNL     1     -14.750 -43.765  25.406  1.00  0.00     0.320 A 
ATOM      3  N   UNL     1     -14.425 -44.105  26.675  1.00  0.00    -0.200 N 
ATOM      4  C   UNL     1     -15.228 -43.759  27.703  1.00  0.00     0.308 A 
ATOM      5  C   UNL     1     -16.409 -43.061  27.476  1.00  0.00     0.075 A 
ATOM      6  C   UNL     1     -16.777 -42.699  26.172  1.00  0.00    -0.021 A 
ENDROOT
BRANCH   1   7
ATOM      7  C   UNL     1     -16.194 -42.774  23.711  1.00  0.00     0.121 C 
ATOM      8  C   UNL     1     -15.740 -41.681  23.087  1.00  0.00     0.059 C 
BRANCH   7   9
ATOM      9  O   UNL     1     -16.905 -43.759  23.077  1.00  0.00    -0.508 OA
ATOM     10  H   UNL     1     -17.709 -43.365  22.693  1.00  0.00     0.293 HD
ENDBRANCH   7   9
ENDBRANCH   1   7
BRANCH   6  11
ATOM     11  C   UNL     1     -18.099 -41.979  25.959  1.00  0.00     0.071 C 
BRANCH  11  12
ATOM     12  C   UNL     1     -19.335 -42.831  26.141  1.00  0.00    -0.023 C 
ATOM     13  C   UNL     1     -19.982 -43.397  25.102  1.00  0.00     0.122 C 
ATOM     14  C   UNL     1     -19.797 -43.116  27.555  1.00  0.00     0.040 C 
ATOM     15  C   UNL     1     -21.125 -44.315  25.318  1.00  0.00     0.020 A 
ATOM     16  C   UNL     1     -21.307 -43.367  27.644  1.00  0.00     0.041 C 
ATOM     17  C   UNL     1     -21.565 -45.223  24.345  1.00  0.00     0.016 A 
ATOM     18  C   UNL     1     -21.781 -44.299  26.562  1.00  0.00    -0.033 A 
ATOM     19  C   UNL     1     -22.666 -46.059  24.581  1.00  0.00     0.047 A 
ATOM     20  C   UNL     1     -22.894 -45.125  26.783  1.00  0.00     0.050 A 
ATOM     21  C   UNL     1     -23.341 -46.006  25.798  1.00  0.00     0.119 A 
BRANCH  13  22
ATOM     22  O   UNL     1     -19.590 -43.142  23.805  1.00  0.00    -0.507 OA
ATOM     23  H   UNL     1     -20.039 -42.335  23.501  1.00  0.00     0.293 HD
ENDBRANCH  13  22
BRANCH  21  24
ATOM     24  O   UNL     1     -24.428 -46.754  26.151  1.00  0.00    -0.497 OA
ATOM     25  C   UNL     1     -24.677 -47.930  25.391  1.00  0.00     0.278 C 
ENDBRANCH  21  24
ENDBRANCH  11  12
ENDBRANCH   6  11
BRANCH   3  26
ATOM     26  C   UNL     1     -13.166 -44.850  26.931  1.00  0.00     0.393 C 
BRANCH  26  27
ATOM     27  C   UNL     1     -12.289 -44.130  27.928  1.00  0.00     0.020 A 
ATOM     28  C   UNL     1     -11.602 -42.970  27.515  1.00  0.00     0.010 A 
ATOM     29  C   UNL     1     -12.122 -44.587  29.255  1.00  0.00    -0.042 A 
ATOM     30  C   UNL     1     -10.787 -42.265  28.399  1.00  0.00     0.001 A 
ATOM     31  C   UNL     1     -11.297 -43.862  30.131  1.00  0.00     0.004 A 
ATOM     32  C   UNL     1     -10.637 -42.710  29.707  1.00  0.00     0.000 A 
ATOM     33  C   UNL     1     -12.792 -45.832  29.775  1.00  0.00     0.045 C 
ENDBRANCH  26  27
ENDBRANCH   3  26
TORSDOF 8
ENDMDL
MODEL 9
REMARK VINA RESULT:    -9.861      4.339     11.460
REMARK INTER + INTRA:         -13.929
REMARK INTER:                 -12.719
REMARK INTRA:                  -1.209
REMARK UNBOUND:                -0.032
REMARK SMILES C=C(O)c1c[n+](Cc2ccccc2C)ccc1CC1=C(O)c2ccc(OC)cc2CC1
REMARK SMILES IDX 4 1 5 2 6 3 15 4 16 5 17 6 2 7 1 8 3 9 18 11 19 12 20 13
REMARK SMILES IDX 31 14 22 15 30 16 23 17 29 18 24 19 28 20 25 21 21 22 26 24
REMARK SMILES IDX 27 25 7 26 8 27 9 28 13 29 10 30 12 31 11 32 14 33
REMARK H PARENT 3 10 21 23
ROOT
ATOM      1  C   UNL     1     -22.118 -42.723  24.421  1.00  0.00     0.083 A 
ATOM      2  C   UNL     1     -23.356 -42.379  24.973  1.00  0.00     0.320 A 
ATOM      3  N   UNL     1     -23.793 -41.099  24.977  1.00  0.00    -0.200 N 
ATOM      4  C   UNL     1     -23.039 -40.115  24.444  1.00  0.00     0.308 A 
ATOM      5  C   UNL     1     -21.805 -40.402  23.871  1.00  0.00     0.075 A 
ATOM      6  C   UNL     1     -21.324 -41.719  23.846  1.00  0.00    -0.021 A 
ENDROOT
BRANCH   1   7
ATOM      7  C   UNL     1     -21.760 -44.141  24.433  1.00  0.00     0.121 C 
ATOM      8  C   UNL     1     -21.237 -44.747  25.506  1.00  0.00     0.059 C 
BRANCH   7   9
ATOM      9  O   UNL     1     -22.064 -44.802  23.272  1.00  0.00    -0.508 OA
ATOM     10  H   UNL     1     -21.284 -44.779  22.687  1.00  0.00     0.293 HD
ENDBRANCH   7   9
ENDBRANCH   1   7
BRANCH   6  11
ATOM     11  C   UNL     1     -19.993 -41.999  23.168  1.00  0.00     0.071 C 
BRANCH  11  12
ATOM     12  C   UNL     1     -18.824 -42.217  24.102  1.00  0.00    -0.023 C 
ATOM     13  C   UNL     1     -17.672 -42.788  23.698  1.00  0.00     0.122 C 
ATOM     14  C   UNL     1     -18.941 -41.689  25.517  1.00  0.00     0.040 C 
ATOM     15  C   UNL     1     -16.506 -42.890  24.606  1.00  0.00     0.020 A 
ATOM     16  C   UNL     1     -18.095 -42.487  26.517  1.00  0.00     0.041 C 
ATOM     17  C   UNL     1     -15.198 -43.092  24.143  1.00  0.00     0.016 A 
ATOM     18  C   UNL     1     -16.710 -42.747  25.990  1.00  0.00    -0.033 A 
ATOM     19  C   UNL     1     -14.124 -43.205  25.038  1.00  0.00     0.047 A 
ATOM     20  C   UNL     1     -15.633 -42.882  26.880  1.00  0.00     0.050 A 
ATOM     21  C   UNL     1     -14.339 -43.110  26.410  1.00  0.00     0.119 A 
BRANCH  13  22
ATOM     22  O   UNL     1     -17.545 -43.289  22.420  1.00  0.00    -0.507 OA
ATOM     23  H   UNL     1     -18.306 -42.990  21.895  1.00  0.00     0.293 HD
ENDBRANCH  13  22
BRANCH  21  24
ATOM     24  O   UNL     1     -13.387 -43.211  27.385  1.00  0.00    -0.497 OA
ATOM     25  C   UNL     1     -12.749 -44.473  27.537  1.00  0.00     0.278 C 
ENDBRANCH  21  24
ENDBRANCH  11  12
ENDBRANCH   6  11
BRANCH   3  26
ATOM     26  C   UNL     1     -25.110 -40.780  25.587  1.00  0.00     0.393 C 
BRANCH  26  27
ATOM     27  C   UNL     1     -24.959 -39.885  26.793  1.00  0.00     0.020 A 
ATOM     28  C   UNL     1     -25.004 -38.487  26.612  1.00  0.00     0.010 A 
ATOM     29  C   UNL     1     -24.759 -40.399  28.095  1.00  0.00    -0.042 A 
ATOM     30  C   UNL     1     -24.877 -37.619  27.696  1.00  0.00     0.001 A 
ATOM     31  C   UNL     1     -24.635 -39.507  29.173  1.00  0.00     0.004 A 
ATOM     32  C   UNL     1     -24.696 -38.129  28.975  1.00  0.00     0.000 A 
ATOM     33  C   UNL     1     -24.667 -41.876  28.378  1.00  0.00     0.045 C 
ENDBRANCH  26  27
ENDBRANCH   3  26
TORSDOF 8
ENDMDL
