MODEL 1
REMARK VINA RESULT:   -12.828      0.000      0.000
REMARK INTER + INTRA:         -17.129
REMARK INTER:                 -16.578
REMARK INTRA:                  -0.550
REMARK UNBOUND:                -0.550
REMARK SMILES O=C1Cc2cc3c(CC[C@H]4CC[N@H+](Cc5ccccc5)CC4)noc3cc2N1
REMARK SMILES IDX 9 1 10 2 12 3 13 4 11 5 21 6 22 7 14 9 15 10 16 11 20 12
REMARK SMILES IDX 17 13 19 14 18 15 8 16 7 17 6 18 23 19 5 20 25 21 24 22 4 23
REMARK SMILES IDX 26 24 3 25 27 26 2 27 28 28 1 29
REMARK H PARENT 13 8 28 30
ROOT
ATOM      1  C   UNL     1     -13.790 -45.175  26.417  1.00  0.00     0.010 C 
ENDROOT
BRANCH   1   2
ATOM      2  C   UNL     1     -13.254 -45.803  27.722  1.00  0.00     0.000 C 
ATOM      3  C   UNL     1     -11.157 -46.510  28.956  1.00  0.00     0.262 C 
ATOM      4  N   UNL     1     -11.618 -45.703  30.142  1.00  0.00    -0.331 N 
ATOM      5  C   UNL     1     -11.718 -45.894  27.679  1.00  0.00     0.065 C 
ATOM      6  C   UNL     1     -13.122 -45.671  30.244  1.00  0.00     0.262 C 
ATOM      7  C   UNL     1     -13.694 -45.039  28.980  1.00  0.00     0.065 C 
ATOM      8  H   UNL     1     -11.317 -44.736  29.975  1.00  0.00     0.348 HD
BRANCH   4   9
ATOM      9  C   UNL     1     -10.934 -46.090  31.440  1.00  0.00     0.299 C 
BRANCH   9  10
ATOM     10  C   UNL     1      -9.646 -45.375  31.745  1.00  0.00     0.006 A 
ATOM     11  C   UNL     1      -8.409 -45.988  31.491  1.00  0.00     0.009 A 
ATOM     12  C   UNL     1      -9.659 -44.081  32.288  1.00  0.00     0.009 A 
ATOM     13  C   UNL     1      -7.216 -45.315  31.759  1.00  0.00     0.001 A 
ATOM     14  C   UNL     1      -8.463 -43.410  32.555  1.00  0.00     0.001 A 
ATOM     15  C   UNL     1      -7.244 -44.028  32.287  1.00  0.00     0.000 A 
ENDBRANCH   9  10
ENDBRANCH   4   9
ENDBRANCH   1   2
BRANCH   1  16
ATOM     16  C   UNL     1     -14.241 -43.710  26.517  1.00  0.00     0.061 C 
BRANCH  16  17
ATOM     17  C   UNL     1     -15.139 -43.284  25.407  1.00  0.00     0.091 A 
ATOM     18  C   UNL     1     -16.468 -42.790  25.483  1.00  0.00     0.045 A 
ATOM     19  N   UNL     1     -14.703 -43.338  24.140  1.00  0.00    -0.084 NA
ATOM     20  C   UNL     1     -17.406 -42.522  26.501  1.00  0.00     0.020 A 
ATOM     21  C   UNL     1     -16.807 -42.553  24.155  1.00  0.00     0.169 A 
ATOM     22  O   UNL     1     -15.752 -42.881  23.360  1.00  0.00    -0.356 OA
ATOM     23  C   UNL     1     -18.637 -42.025  26.086  1.00  0.00    -0.014 A 
ATOM     24  C   UNL     1     -18.034 -42.057  23.712  1.00  0.00     0.077 A 
ATOM     25  C   UNL     1     -19.832 -41.648  26.916  1.00  0.00     0.138 C 
ATOM     26  C   UNL     1     -18.925 -41.807  24.738  1.00  0.00     0.048 A 
ATOM     27  C   UNL     1     -20.831 -41.182  25.853  1.00  0.00     0.228 C 
ATOM     28  N   UNL     1     -20.214 -41.311  24.615  1.00  0.00    -0.325 N 
ATOM     29  O   UNL     1     -21.960 -40.767  26.047  1.00  0.00    -0.274 OA
ATOM     30  H   UNL     1     -20.680 -41.069  23.752  1.00  0.00     0.169 HD
ENDBRANCH  16  17
ENDBRANCH   1  16
TORSDOF 5
ENDMDL
MODEL 2
REMARK VINA RESULT:   -12.445      0.747      1.241
REMARK INTER + INTRA:         -16.634
REMARK INTER:                 -16.310
REMARK INTRA:                  -0.324
REMARK UNBOUND:                -0.550
REMARK SMILES O=C1Cc2cc3c(CC[C@H]4CC[N@H+](Cc5ccccc5)CC4)noc3cc2N1
REMARK SMILES IDX 9 1 10 2 12 3 13 4 11 5 21 6 22 7 14 9 15 10 16 11 20 12
REMARK SMILES IDX 17 13 19 14 18 15 8 16 7 17 6 18 23 19 5 20 25 21 24 22 4 23
REMARK SMILES IDX 26 24 3 25 27 26 2 27 28 28 1 29
REMARK H PARENT 13 8 28 30
ROOT
ATOM      1  C   UNL     1     -13.805 -44.837  26.576  1.00  0.00     0.010 C 
ENDROOT
BRANCH   1   2
ATOM      2  C   UNL     1     -12.808 -44.907  27.753  1.00  0.00     0.000 C 
ATOM      3  C   UNL     1     -12.606 -44.968  30.278  1.00  0.00     0.262 C 
ATOM      4  N   UNL     1     -11.746 -46.198  30.150  1.00  0.00    -0.331 N 
ATOM      5  C   UNL     1     -13.564 -44.899  29.093  1.00  0.00     0.065 C 
ATOM      6  C   UNL     1     -10.937 -46.183  28.878  1.00  0.00     0.262 C 
ATOM      7  C   UNL     1     -11.885 -46.134  27.685  1.00  0.00     0.065 C 
ATOM      8  H   UNL     1     -12.385 -46.999  30.079  1.00  0.00     0.348 HD
BRANCH   4   9
ATOM      9  C   UNL     1     -10.917 -46.488  31.388  1.00  0.00     0.299 C 
BRANCH   9  10
ATOM     10  C   UNL     1      -9.673 -45.658  31.558  1.00  0.00     0.006 A 
ATOM     11  C   UNL     1      -8.410 -46.192  31.260  1.00  0.00     0.009 A 
ATOM     12  C   UNL     1      -9.756 -44.334  32.015  1.00  0.00     0.009 A 
ATOM     13  C   UNL     1      -7.260 -45.414  31.401  1.00  0.00     0.001 A 
ATOM     14  C   UNL     1      -8.603 -43.558  32.156  1.00  0.00     0.001 A 
ATOM     15  C   UNL     1      -7.357 -44.098  31.846  1.00  0.00     0.000 A 
ENDBRANCH   9  10
ENDBRANCH   4   9
ENDBRANCH   1   2
BRANCH   1  16
ATOM     16  C   UNL     1     -14.882 -43.747  26.678  1.00  0.00     0.061 C 
BRANCH  16  17
ATOM     17  C   UNL     1     -15.447 -43.340  25.360  1.00  0.00     0.091 A 
ATOM     18  C   UNL     1     -16.720 -42.776  25.079  1.00  0.00     0.045 A 
ATOM     19  N   UNL     1     -14.714 -43.489  24.247  1.00  0.00    -0.084 NA
ATOM     20  C   UNL     1     -17.862 -42.403  25.815  1.00  0.00     0.020 A 
ATOM     21  C   UNL     1     -16.702 -42.598  23.700  1.00  0.00     0.169 A 
ATOM     22  O   UNL     1     -15.505 -43.024  23.210  1.00  0.00    -0.356 OA
ATOM     23  C   UNL     1     -18.917 -41.869  25.083  1.00  0.00    -0.014 A 
ATOM     24  C   UNL     1     -17.746 -42.067  22.942  1.00  0.00     0.077 A 
ATOM     25  C   UNL     1     -20.255 -41.385  25.570  1.00  0.00     0.138 C 
ATOM     26  C   UNL     1     -18.847 -41.713  23.698  1.00  0.00     0.048 A 
ATOM     27  C   UNL     1     -20.927 -40.930  24.271  1.00  0.00     0.228 C 
ATOM     28  N   UNL     1     -20.031 -41.161  23.234  1.00  0.00    -0.325 N 
ATOM     29  O   UNL     1     -22.040 -40.448  24.157  1.00  0.00    -0.274 OA
ATOM     30  H   UNL     1     -20.251 -40.945  22.273  1.00  0.00     0.169 HD
ENDBRANCH  16  17
ENDBRANCH   1  16
TORSDOF 5
ENDMDL
MODEL 3
REMARK VINA RESULT:   -12.386      4.132      8.858
REMARK INTER + INTRA:         -16.557
REMARK INTER:                 -15.476
REMARK INTRA:                  -1.081
REMARK UNBOUND:                -0.550
REMARK SMILES O=C1Cc2cc3c(CC[C@H]4CC[N@H+](Cc5ccccc5)CC4)noc3cc2N1
REMARK SMILES IDX 9 1 10 2 12 3 13 4 11 5 21 6 22 7 14 9 15 10 16 11 20 12
REMARK SMILES IDX 17 13 19 14 18 15 8 16 7 17 6 18 23 19 5 20 25 21 24 22 4 23
REMARK SMILES IDX 26 24 3 25 27 26 2 27 28 28 1 29
REMARK H PARENT 13 8 28 30
ROOT
ATOM      1  C   UNL     1      -8.260 -43.540  29.831  1.00  0.00     0.010 C 
ENDROOT
BRANCH   1   2
ATOM      2  C   UNL     1      -9.356 -44.122  28.911  1.00  0.00     0.000 C 
ATOM      3  C   UNL     1     -10.978 -46.044  28.606  1.00  0.00     0.262 C 
ATOM      4  N   UNL     1     -12.088 -45.040  28.429  1.00  0.00    -0.331 N 
ATOM      5  C   UNL     1      -9.893 -45.442  29.492  1.00  0.00     0.065 C 
ATOM      6  C   UNL     1     -11.592 -43.769  27.786  1.00  0.00     0.262 C 
ATOM      7  C   UNL     1     -10.519 -43.148  28.673  1.00  0.00     0.065 C 
ATOM      8  H   UNL     1     -12.408 -44.785  29.370  1.00  0.00     0.348 HD
BRANCH   4   9
ATOM      9  C   UNL     1     -13.321 -45.614  27.756  1.00  0.00     0.299 C 
BRANCH   9  10
ATOM     10  C   UNL     1     -14.174 -44.634  26.997  1.00  0.00     0.006 A 
ATOM     11  C   UNL     1     -14.189 -44.635  25.593  1.00  0.00     0.009 A 
ATOM     12  C   UNL     1     -14.973 -43.704  27.680  1.00  0.00     0.009 A 
ATOM     13  C   UNL     1     -14.996 -43.737  24.892  1.00  0.00     0.001 A 
ATOM     14  C   UNL     1     -15.778 -42.806  26.975  1.00  0.00     0.001 A 
ATOM     15  C   UNL     1     -15.790 -42.826  25.582  1.00  0.00     0.000 A 
ENDBRANCH   9  10
ENDBRANCH   4   9
ENDBRANCH   1   2
BRANCH   1  16
ATOM     16  C   UNL     1      -8.045 -44.276  31.162  1.00  0.00     0.061 C 
BRANCH  16  17
ATOM     17  C   UNL     1      -8.520 -43.513  32.350  1.00  0.00     0.091 A 
ATOM     18  C   UNL     1      -9.848 -43.149  32.696  1.00  0.00     0.045 A 
ATOM     19  N   UNL     1      -7.636 -43.084  33.264  1.00  0.00    -0.084 NA
ATOM     20  C   UNL     1     -11.135 -43.319  32.146  1.00  0.00     0.020 A 
ATOM     21  C   UNL     1      -9.698 -42.459  33.894  1.00  0.00     0.169 A 
ATOM     22  O   UNL     1      -8.379 -42.424  34.227  1.00  0.00    -0.356 OA
ATOM     23  C   UNL     1     -12.188 -42.767  32.866  1.00  0.00    -0.014 A 
ATOM     24  C   UNL     1     -10.737 -41.894  34.635  1.00  0.00     0.077 A 
ATOM     25  C   UNL     1     -13.658 -42.775  32.547  1.00  0.00     0.138 C 
ATOM     26  C   UNL     1     -11.981 -42.081  34.064  1.00  0.00     0.048 A 
ATOM     27  C   UNL     1     -14.251 -42.006  33.731  1.00  0.00     0.228 C 
ATOM     28  N   UNL     1     -13.198 -41.641  34.562  1.00  0.00    -0.325 N 
ATOM     29  O   UNL     1     -15.428 -41.759  33.923  1.00  0.00    -0.274 OA
ATOM     30  H   UNL     1     -13.339 -41.117  35.413  1.00  0.00     0.169 HD
ENDBRANCH  16  17
ENDBRANCH   1  16
TORSDOF 5
ENDMDL
MODEL 4
REMARK VINA RESULT:   -12.165      1.523      2.369
REMARK INTER + INTRA:         -16.271
REMARK INTER:                 -16.010
REMARK INTRA:                  -0.261
REMARK UNBOUND:                -0.550
REMARK SMILES O=C1Cc2cc3c(CC[C@H]4CC[N@H+](Cc5ccccc5)CC4)noc3cc2N1
REMARK SMILES IDX 9 1 10 2 12 3 13 4 11 5 21 6 22 7 14 9 15 10 16 11 20 12
REMARK SMILES IDX 17 13 19 14 18 15 8 16 7 17 6 18 23 19 5 20 25 21 24 22 4 23
REMARK SMILES IDX 26 24 3 25 27 26 2 27 28 28 1 29
REMARK H PARENT 13 8 28 30
ROOT
ATOM      1  C   UNL     1     -13.833 -44.973  26.577  1.00  0.00     0.010 C 
ENDROOT
BRANCH   1   2
ATOM      2  C   UNL     1     -12.842 -45.006  27.761  1.00  0.00     0.000 C 
ATOM      3  C   UNL     1     -12.655 -45.045  30.288  1.00  0.00     0.262 C 
ATOM      4  N   UNL     1     -11.757 -46.250  30.172  1.00  0.00    -0.331 N 
ATOM      5  C   UNL     1     -13.607 -45.013  29.096  1.00  0.00     0.065 C 
ATOM      6  C   UNL     1     -10.940 -46.217  28.905  1.00  0.00     0.262 C 
ATOM      7  C   UNL     1     -11.882 -46.204  27.706  1.00  0.00     0.065 C 
ATOM      8  H   UNL     1     -12.371 -47.070  30.102  1.00  0.00     0.348 HD
BRANCH   4   9
ATOM      9  C   UNL     1     -10.928 -46.506  31.417  1.00  0.00     0.299 C 
BRANCH   9  10
ATOM     10  C   UNL     1      -9.681 -45.677  31.561  1.00  0.00     0.006 A 
ATOM     11  C   UNL     1      -9.753 -44.347  32.004  1.00  0.00     0.009 A 
ATOM     12  C   UNL     1      -8.423 -46.219  31.257  1.00  0.00     0.009 A 
ATOM     13  C   UNL     1      -8.593 -43.585  32.155  1.00  0.00     0.001 A 
ATOM     14  C   UNL     1      -7.264 -45.455  31.408  1.00  0.00     0.001 A 
ATOM     15  C   UNL     1      -7.350 -44.139  31.859  1.00  0.00     0.000 A 
ENDBRANCH   9  10
ENDBRANCH   4   9
ENDBRANCH   1   2
BRANCH   1  16
ATOM     16  C   UNL     1     -14.203 -43.577  26.055  1.00  0.00     0.061 C 
BRANCH  16  17
ATOM     17  C   UNL     1     -15.539 -43.103  26.514  1.00  0.00     0.091 A 
ATOM     18  C   UNL     1     -16.666 -42.737  25.731  1.00  0.00     0.045 A 
ATOM     19  N   UNL     1     -15.790 -42.987  27.826  1.00  0.00    -0.084 NA
ATOM     20  C   UNL     1     -16.982 -42.664  24.359  1.00  0.00     0.020 A 
ATOM     21  C   UNL     1     -17.622 -42.384  26.677  1.00  0.00     0.169 A 
ATOM     22  O   UNL     1     -17.095 -42.535  27.922  1.00  0.00    -0.356 OA
ATOM     23  C   UNL     1     -18.266 -42.231  24.047  1.00  0.00    -0.014 A 
ATOM     24  C   UNL     1     -18.916 -41.945  26.391  1.00  0.00     0.077 A 
ATOM     25  C   UNL     1     -18.898 -42.046  22.695  1.00  0.00     0.138 C 
ATOM     26  C   UNL     1     -19.188 -41.887  25.037  1.00  0.00     0.048 A 
ATOM     27  C   UNL     1     -20.303 -41.557  23.059  1.00  0.00     0.228 C 
ATOM     28  N   UNL     1     -20.378 -41.495  24.445  1.00  0.00    -0.325 N 
ATOM     29  O   UNL     1     -21.200 -41.276  22.283  1.00  0.00    -0.274 OA
ATOM     30  H   UNL     1     -21.212 -41.192  24.927  1.00  0.00     0.169 HD
ENDBRANCH  16  17
ENDBRANCH   1  16
TORSDOF 5
ENDMDL
MODEL 5
REMARK VINA RESULT:   -11.403      1.638      2.143
REMARK INTER + INTRA:         -15.287
REMARK INTER:                 -15.367
REMARK INTRA:                   0.080
REMARK UNBOUND:                -0.550
REMARK SMILES O=C1Cc2cc3c(CC[C@H]4CC[N@H+](Cc5ccccc5)CC4)noc3cc2N1
REMARK SMILES IDX 9 1 10 2 12 3 13 4 11 5 21 6 22 7 14 9 15 10 16 11 20 12
REMARK SMILES IDX 17 13 19 14 18 15 8 16 7 17 6 18 23 19 5 20 25 21 24 22 4 23
REMARK SMILES IDX 26 24 3 25 27 26 2 27 28 28 1 29
REMARK H PARENT 13 8 28 30
ROOT
ATOM      1  C   UNL     1     -13.806 -44.778  26.964  1.00  0.00     0.010 C 
ENDROOT
BRANCH   1   2
ATOM      2  C   UNL     1     -12.904 -44.711  28.216  1.00  0.00     0.000 C 
ATOM      3  C   UNL     1     -11.506 -46.087  29.822  1.00  0.00     0.262 C 
ATOM      4  N   UNL     1     -10.353 -45.148  29.574  1.00  0.00    -0.331 N 
ATOM      5  C   UNL     1     -12.401 -46.118  28.588  1.00  0.00     0.065 C 
ATOM      6  C   UNL     1     -10.827 -43.745  29.287  1.00  0.00     0.262 C 
ATOM      7  C   UNL     1     -11.708 -43.762  28.043  1.00  0.00     0.065 C 
ATOM      8  H   UNL     1      -9.883 -45.477  28.722  1.00  0.00     0.348 HD
BRANCH   4   9
ATOM      9  C   UNL     1      -9.279 -45.214  30.644  1.00  0.00     0.299 C 
BRANCH   9  10
ATOM     10  C   UNL     1      -9.433 -44.255  31.793  1.00  0.00     0.006 A 
ATOM     11  C   UNL     1      -8.305 -43.718  32.433  1.00  0.00     0.009 A 
ATOM     12  C   UNL     1     -10.708 -43.878  32.243  1.00  0.00     0.009 A 
ATOM     13  C   UNL     1      -8.451 -42.814  33.487  1.00  0.00     0.001 A 
ATOM     14  C   UNL     1     -10.850 -42.974  33.298  1.00  0.00     0.001 A 
ATOM     15  C   UNL     1      -9.721 -42.441  33.916  1.00  0.00     0.000 A 
ENDBRANCH   9  10
ENDBRANCH   4   9
ENDBRANCH   1   2
BRANCH   1  16
ATOM     16  C   UNL     1     -14.924 -43.728  26.891  1.00  0.00     0.061 C 
BRANCH  16  17
ATOM     17  C   UNL     1     -15.046 -43.078  25.555  1.00  0.00     0.091 A 
ATOM     18  C   UNL     1     -16.224 -42.705  24.856  1.00  0.00     0.045 A 
ATOM     19  N   UNL     1     -13.940 -42.767  24.862  1.00  0.00    -0.084 NA
ATOM     20  C   UNL     1     -17.615 -42.774  25.079  1.00  0.00     0.020 A 
ATOM     21  C   UNL     1     -15.744 -42.145  23.678  1.00  0.00     0.169 A 
ATOM     22  O   UNL     1     -14.383 -42.184  23.687  1.00  0.00    -0.356 OA
ATOM     23  C   UNL     1     -18.424 -42.262  24.072  1.00  0.00    -0.014 A 
ATOM     24  C   UNL     1     -16.533 -41.625  22.651  1.00  0.00     0.077 A 
ATOM     25  C   UNL     1     -19.925 -42.193  24.009  1.00  0.00     0.138 C 
ATOM     26  C   UNL     1     -17.889 -41.711  22.906  1.00  0.00     0.048 A 
ATOM     27  C   UNL     1     -20.162 -41.523  22.652  1.00  0.00     0.228 C 
ATOM     28  N   UNL     1     -18.918 -41.281  22.082  1.00  0.00    -0.325 N 
ATOM     29  O   UNL     1     -21.239 -41.245  22.155  1.00  0.00    -0.274 OA
ATOM     30  H   UNL     1     -18.814 -40.848  21.176  1.00  0.00     0.169 HD
ENDBRANCH  16  17
ENDBRANCH   1  16
TORSDOF 5
ENDMDL
MODEL 6
REMARK VINA RESULT:   -11.355      1.631      2.342
REMARK INTER + INTRA:         -15.225
REMARK INTER:                 -14.524
REMARK INTRA:                  -0.700
REMARK UNBOUND:                -0.550
REMARK SMILES O=C1Cc2cc3c(CC[C@H]4CC[N@H+](Cc5ccccc5)CC4)noc3cc2N1
REMARK SMILES IDX 9 1 10 2 12 3 13 4 11 5 21 6 22 7 14 9 15 10 16 11 20 12
REMARK SMILES IDX 17 13 19 14 18 15 8 16 7 17 6 18 23 19 5 20 25 21 24 22 4 23
REMARK SMILES IDX 26 24 3 25 27 26 2 27 28 28 1 29
REMARK H PARENT 13 8 28 30
ROOT
ATOM      1  C   UNL     1     -14.103 -43.073  25.622  1.00  0.00     0.010 C 
ENDROOT
BRANCH   1   2
ATOM      2  C   UNL     1     -13.330 -43.890  26.682  1.00  0.00     0.000 C 
ATOM      3  C   UNL     1     -11.443 -43.806  28.371  1.00  0.00     0.262 C 
ATOM      4  N   UNL     1     -12.397 -44.322  29.417  1.00  0.00    -0.331 N 
ATOM      5  C   UNL     1     -12.226 -43.028  27.318  1.00  0.00     0.065 C 
ATOM      6  C   UNL     1     -13.439 -45.235  28.820  1.00  0.00     0.262 C 
ATOM      7  C   UNL     1     -14.240 -44.461  27.780  1.00  0.00     0.065 C 
ATOM      8  H   UNL     1     -12.900 -43.507  29.785  1.00  0.00     0.348 HD
BRANCH   4   9
ATOM      9  C   UNL     1     -11.701 -44.914  30.629  1.00  0.00     0.299 C 
BRANCH   9  10
ATOM     10  C   UNL     1     -11.470 -43.973  31.781  1.00  0.00     0.006 A 
ATOM     11  C   UNL     1     -12.529 -43.225  32.318  1.00  0.00     0.009 A 
ATOM     12  C   UNL     1     -10.190 -43.828  32.339  1.00  0.00     0.009 A 
ATOM     13  C   UNL     1     -12.315 -42.367  33.398  1.00  0.00     0.001 A 
ATOM     14  C   UNL     1      -9.980 -42.968  33.419  1.00  0.00     0.001 A 
ATOM     15  C   UNL     1     -11.043 -42.241  33.949  1.00  0.00     0.000 A 
ENDBRANCH   9  10
ENDBRANCH   4   9
ENDBRANCH   1   2
BRANCH   1  16
ATOM     16  C   UNL     1     -14.934 -43.893  24.624  1.00  0.00     0.061 C 
BRANCH  16  17
ATOM     17  C   UNL     1     -16.064 -43.131  24.022  1.00  0.00     0.091 A 
ATOM     18  C   UNL     1     -17.247 -42.658  24.649  1.00  0.00     0.045 A 
ATOM     19  N   UNL     1     -16.030 -42.806  22.721  1.00  0.00    -0.084 NA
ATOM     20  C   UNL     1     -17.807 -42.694  25.942  1.00  0.00     0.020 A 
ATOM     21  C   UNL     1     -17.932 -42.022  23.620  1.00  0.00     0.169 A 
ATOM     22  O   UNL     1     -17.203 -42.113  22.475  1.00  0.00    -0.356 OA
ATOM     23  C   UNL     1     -19.040 -42.070  26.094  1.00  0.00    -0.014 A 
ATOM     24  C   UNL     1     -19.170 -41.390  23.745  1.00  0.00     0.077 A 
ATOM     25  C   UNL     1     -19.887 -41.940  27.330  1.00  0.00     0.138 C 
ATOM     26  C   UNL     1     -19.686 -41.446  25.026  1.00  0.00     0.048 A 
ATOM     27  C   UNL     1     -21.095 -41.152  26.814  1.00  0.00     0.228 C 
ATOM     28  N   UNL     1     -20.889 -40.911  25.461  1.00  0.00    -0.325 N 
ATOM     29  O   UNL     1     -22.062 -40.794  27.463  1.00  0.00    -0.274 OA
ATOM     30  H   UNL     1     -21.558 -40.409  24.895  1.00  0.00     0.169 HD
ENDBRANCH  16  17
ENDBRANCH   1  16
TORSDOF 5
ENDMDL
MODEL 7
REMARK VINA RESULT:   -11.313      3.456     10.188
REMARK INTER + INTRA:         -15.171
REMARK INTER:                 -15.522
REMARK INTRA:                   0.352
REMARK UNBOUND:                -0.550
REMARK SMILES O=C1Cc2cc3c(CC[C@H]4CC[N@H+](Cc5ccccc5)CC4)noc3cc2N1
REMARK SMILES IDX 9 1 10 2 12 3 13 4 11 5 21 6 22 7 14 9 15 10 16 11 20 12
REMARK SMILES IDX 17 13 19 14 18 15 8 16 7 17 6 18 23 19 5 20 25 21 24 22 4 23
REMARK SMILES IDX 26 24 3 25 27 26 2 27 28 28 1 29
REMARK H PARENT 13 8 28 30
ROOT
ATOM      1  C   UNL     1     -12.781 -45.107  27.925  1.00  0.00     0.010 C 
ENDROOT
BRANCH   1   2
ATOM      2  C   UNL     1     -13.586 -44.155  27.013  1.00  0.00     0.000 C 
ATOM      3  C   UNL     1     -14.770 -43.955  24.782  1.00  0.00     0.262 C 
ATOM      4  N   UNL     1     -15.993 -43.458  25.509  1.00  0.00    -0.331 N 
ATOM      5  C   UNL     1     -13.973 -44.869  25.706  1.00  0.00     0.065 C 
ATOM      6  C   UNL     1     -15.627 -42.685  26.752  1.00  0.00     0.262 C 
ATOM      7  C   UNL     1     -14.845 -43.596  27.692  1.00  0.00     0.065 C 
ATOM      8  H   UNL     1     -16.507 -44.289  25.824  1.00  0.00     0.348 HD
BRANCH   4   9
ATOM      9  C   UNL     1     -16.974 -42.726  24.613  1.00  0.00     0.299 C 
BRANCH   9  10
ATOM     10  C   UNL     1     -18.225 -42.221  25.278  1.00  0.00     0.006 A 
ATOM     11  C   UNL     1     -19.261 -41.653  24.520  1.00  0.00     0.009 A 
ATOM     12  C   UNL     1     -18.379 -42.309  26.671  1.00  0.00     0.009 A 
ATOM     13  C   UNL     1     -20.428 -41.202  25.138  1.00  0.00     0.001 A 
ATOM     14  C   UNL     1     -19.548 -41.856  27.286  1.00  0.00     0.001 A 
ATOM     15  C   UNL     1     -20.572 -41.306  26.519  1.00  0.00     0.000 A 
ENDBRANCH   9  10
ENDBRANCH   4   9
ENDBRANCH   1   2
BRANCH   1  16
ATOM     16  C   UNL     1     -13.469 -45.515  29.236  1.00  0.00     0.061 C 
BRANCH  16  17
ATOM     17  C   UNL     1     -13.179 -44.596  30.373  1.00  0.00     0.091 A 
ATOM     18  C   UNL     1     -11.928 -44.302  30.977  1.00  0.00     0.045 A 
ATOM     19  N   UNL     1     -14.180 -43.916  30.952  1.00  0.00    -0.084 NA
ATOM     20  C   UNL     1     -10.585 -44.694  30.799  1.00  0.00     0.020 A 
ATOM     21  C   UNL     1     -12.251 -43.389  31.974  1.00  0.00     0.169 A 
ATOM     22  O   UNL     1     -13.593 -43.163  31.955  1.00  0.00    -0.356 OA
ATOM     23  C   UNL     1      -9.659 -44.120  31.662  1.00  0.00    -0.014 A 
ATOM     24  C   UNL     1     -11.342 -42.799  32.854  1.00  0.00     0.077 A 
ATOM     25  C   UNL     1      -8.172 -44.332  31.728  1.00  0.00     0.138 C 
ATOM     26  C   UNL     1     -10.038 -43.208  32.648  1.00  0.00     0.048 A 
ATOM     27  C   UNL     1      -7.764 -43.412  32.883  1.00  0.00     0.228 C 
ATOM     28  N   UNL     1      -8.918 -42.800  33.357  1.00  0.00    -0.325 N 
ATOM     29  O   UNL     1      -6.637 -43.237  33.312  1.00  0.00    -0.274 OA
ATOM     30  H   UNL     1      -8.906 -42.147  34.127  1.00  0.00     0.169 HD
ENDBRANCH  16  17
ENDBRANCH   1  16
TORSDOF 5
ENDMDL
MODEL 8
REMARK VINA RESULT:   -11.290      3.418     11.141
REMARK INTER + INTRA:         -15.140
REMARK INTER:                 -14.619
REMARK INTRA:                  -0.521
REMARK UNBOUND:                -0.550
REMARK SMILES O=C1Cc2cc3c(CC[C@H]4CC[N@H+](Cc5ccccc5)CC4)noc3cc2N1
REMARK SMILES IDX 9 1 10 2 12 3 13 4 11 5 21 6 22 7 14 9 15 10 16 11 20 12
REMARK SMILES IDX 17 13 19 14 18 15 8 16 7 17 6 18 23 19 5 20 25 21 24 22 4 23
REMARK SMILES IDX 26 24 3 25 27 26 2 27 28 28 1 29
REMARK H PARENT 13 8 28 30
ROOT
ATOM      1  C   UNL     1     -14.846 -43.004  25.459  1.00  0.00     0.010 C 
ENDROOT
BRANCH   1   2
ATOM      2  C   UNL     1     -16.273 -43.138  24.885  1.00  0.00     0.000 C 
ATOM      3  C   UNL     1     -18.713 -42.581  25.285  1.00  0.00     0.262 C 
ATOM      4  N   UNL     1     -18.770 -41.978  23.904  1.00  0.00    -0.331 N 
ATOM      5  C   UNL     1     -17.291 -42.466  25.824  1.00  0.00     0.065 C 
ATOM      6  C   UNL     1     -17.836 -42.679  22.951  1.00  0.00     0.262 C 
ATOM      7  C   UNL     1     -16.408 -42.555  23.470  1.00  0.00     0.065 C 
ATOM      8  H   UNL     1     -18.429 -41.013  23.990  1.00  0.00     0.348 HD
BRANCH   4   9
ATOM      9  C   UNL     1     -20.182 -41.832  23.367  1.00  0.00     0.299 C 
BRANCH   9  10
ATOM     10  C   UNL     1     -20.342 -40.934  22.170  1.00  0.00     0.006 A 
ATOM     11  C   UNL     1     -20.266 -39.539  22.307  1.00  0.00     0.009 A 
ATOM     12  C   UNL     1     -20.568 -41.476  20.896  1.00  0.00     0.009 A 
ATOM     13  C   UNL     1     -20.397 -38.709  21.192  1.00  0.00     0.001 A 
ATOM     14  C   UNL     1     -20.699 -40.643  19.783  1.00  0.00     0.001 A 
ATOM     15  C   UNL     1     -20.610 -39.261  19.932  1.00  0.00     0.000 A 
ENDBRANCH   9  10
ENDBRANCH   4   9
ENDBRANCH   1   2
BRANCH   1  16
ATOM     16  C   UNL     1     -14.205 -44.306  25.964  1.00  0.00     0.061 C 
BRANCH  16  17
ATOM     17  C   UNL     1     -14.134 -44.398  27.450  1.00  0.00     0.091 A 
ATOM     18  C   UNL     1     -13.083 -44.911  28.256  1.00  0.00     0.045 A 
ATOM     19  N   UNL     1     -15.155 -43.951  28.196  1.00  0.00    -0.084 NA
ATOM     20  C   UNL     1     -11.814 -45.487  28.042  1.00  0.00     0.020 A 
ATOM     21  C   UNL     1     -13.553 -44.744  29.554  1.00  0.00     0.169 A 
ATOM     22  O   UNL     1     -14.787 -44.171  29.512  1.00  0.00    -0.356 OA
ATOM     23  C   UNL     1     -11.108 -45.855  29.182  1.00  0.00    -0.014 A 
ATOM     24  C   UNL     1     -12.866 -45.105  30.713  1.00  0.00     0.077 A 
ATOM     25  C   UNL     1      -9.748 -46.488  29.287  1.00  0.00     0.138 C 
ATOM     26  C   UNL     1     -11.628 -45.666  30.463  1.00  0.00     0.048 A 
ATOM     27  C   UNL     1      -9.570 -46.624  30.802  1.00  0.00     0.228 C 
ATOM     28  N   UNL     1     -10.716 -46.120  31.404  1.00  0.00    -0.325 N 
ATOM     29  O   UNL     1      -8.603 -47.084  31.383  1.00  0.00    -0.274 OA
ATOM     30  H   UNL     1     -10.837 -46.106  32.407  1.00  0.00     0.169 HD
ENDBRANCH  16  17
ENDBRANCH   1  16
TORSDOF 5
ENDMDL
MODEL 9
REMARK VINA RESULT:   -10.972      3.591     11.185
REMARK INTER + INTRA:         -14.729
REMARK INTER:                 -14.202
REMARK INTRA:                  -0.527
REMARK UNBOUND:                -0.550
REMARK SMILES O=C1Cc2cc3c(CC[C@H]4CC[N@H+](Cc5ccccc5)CC4)noc3cc2N1
REMARK SMILES IDX 9 1 10 2 12 3 13 4 11 5 21 6 22 7 14 9 15 10 16 11 20 12
REMARK SMILES IDX 17 13 19 14 18 15 8 16 7 17 6 18 23 19 5 20 25 21 24 22 4 23
REMARK SMILES IDX 26 24 3 25 27 26 2 27 28 28 1 29
REMARK H PARENT 13 8 28 30
ROOT
ATOM      1  C   UNL     1     -15.244 -42.436  26.388  1.00  0.00     0.010 C 
ENDROOT
BRANCH   1   2
ATOM      2  C   UNL     1     -16.296 -42.826  25.327  1.00  0.00     0.000 C 
ATOM      3  C   UNL     1     -18.766 -42.777  24.763  1.00  0.00     0.262 C 
ATOM      4  N   UNL     1     -18.421 -42.144  23.440  1.00  0.00    -0.331 N 
ATOM      5  C   UNL     1     -17.702 -42.406  25.790  1.00  0.00     0.065 C 
ATOM      6  C   UNL     1     -17.079 -42.609  22.932  1.00  0.00     0.262 C 
ATOM      7  C   UNL     1     -16.004 -42.225  23.944  1.00  0.00     0.065 C 
ATOM      8  H   UNL     1     -18.334 -41.135  23.609  1.00  0.00     0.348 HD
BRANCH   4   9
ATOM      9  C   UNL     1     -19.527 -42.258  22.408  1.00  0.00     0.299 C 
BRANCH   9  10
ATOM     10  C   UNL     1     -20.035 -40.961  21.839  1.00  0.00     0.006 A 
ATOM     11  C   UNL     1     -20.971 -40.188  22.544  1.00  0.00     0.009 A 
ATOM     12  C   UNL     1     -19.580 -40.499  20.594  1.00  0.00     0.009 A 
ATOM     13  C   UNL     1     -21.427 -38.976  22.023  1.00  0.00     0.001 A 
ATOM     14  C   UNL     1     -20.038 -39.286  20.075  1.00  0.00     0.001 A 
ATOM     15  C   UNL     1     -20.959 -38.525  20.792  1.00  0.00     0.000 A 
ENDBRANCH   9  10
ENDBRANCH   4   9
ENDBRANCH   1   2
BRANCH   1  16
ATOM     16  C   UNL     1     -13.801 -42.864  26.085  1.00  0.00     0.061 C 
BRANCH  16  17
ATOM     17  C   UNL     1     -13.287 -43.923  27.000  1.00  0.00     0.091 A 
ATOM     18  C   UNL     1     -12.093 -43.926  27.768  1.00  0.00     0.045 A 
ATOM     19  N   UNL     1     -13.994 -45.048  27.181  1.00  0.00    -0.084 NA
ATOM     20  C   UNL     1     -11.006 -43.053  27.979  1.00  0.00     0.020 A 
ATOM     21  C   UNL     1     -12.130 -45.150  28.427  1.00  0.00     0.169 A 
ATOM     22  O   UNL     1     -13.264 -45.813  28.074  1.00  0.00    -0.356 OA
ATOM     23  C   UNL     1     -10.023 -43.497  28.856  1.00  0.00    -0.014 A 
ATOM     24  C   UNL     1     -11.157 -45.620  29.311  1.00  0.00     0.077 A 
ATOM     25  C   UNL     1      -8.755 -42.809  29.281  1.00  0.00     0.138 C 
ATOM     26  C   UNL     1     -10.109 -44.737  29.491  1.00  0.00     0.048 A 
ATOM     27  C   UNL     1      -8.142 -43.828  30.246  1.00  0.00     0.228 C 
ATOM     28  N   UNL     1      -9.000 -44.919  30.304  1.00  0.00    -0.325 N 
ATOM     29  O   UNL     1      -7.095 -43.712  30.860  1.00  0.00    -0.274 OA
ATOM     30  H   UNL     1      -8.806 -45.729  30.875  1.00  0.00     0.169 HD
ENDBRANCH  16  17
ENDBRANCH   1  16
TORSDOF 5
ENDMDL
