MODEL 1
REMARK VINA RESULT:   -12.152      0.000      0.000
REMARK INTER + INTRA:         -17.389
REMARK INTER:                 -17.125
REMARK INTRA:                  -0.264
REMARK UNBOUND:                -0.264
REMARK SMILES COc1cc2c(cc1O)C(O)=C(Cc1cc[n+](Cc3cccc(Cl)c3)cc1C(C)=O)C2
REMARK SMILES IDX 14 1 15 2 16 3 17 4 26 5 27 6 13 7 12 8 10 9 6 10 31 11 7 12
REMARK SMILES IDX 5 13 8 14 4 15 3 16 11 17 9 19 2 21 1 22 28 23 29 24 30 25
REMARK SMILES IDX 18 26 19 27 20 28 25 29 21 30 23 31 22 32 24 33
REMARK H PARENT 11 18 9 20
ROOT
ATOM      1  C   UNL     1     -12.761 -43.808  27.298  1.00  0.00    -0.021 A 
ATOM      2  C   UNL     1     -13.543 -44.893  27.730  1.00  0.00     0.075 A 
ATOM      3  C   UNL     1     -13.183 -45.631  28.856  1.00  0.00     0.308 A 
ATOM      4  N   UNL     1     -12.073 -45.310  29.556  1.00  0.00    -0.200 N 
ATOM      5  C   UNL     1     -11.298 -44.270  29.172  1.00  0.00     0.320 A 
ATOM      6  C   UNL     1     -11.609 -43.514  28.038  1.00  0.00     0.085 A 
ENDROOT
BRANCH   1   7
ATOM      7  C   UNL     1     -13.255 -42.994  26.118  1.00  0.00     0.072 C 
BRANCH   7   8
ATOM      8  C   UNL     1     -14.743 -42.935  25.977  1.00  0.00    -0.019 C 
ATOM      9  C   UNL     1     -15.433 -42.969  24.825  1.00  0.00     0.123 C 
ATOM     10  C   UNL     1     -16.854 -42.812  25.090  1.00  0.00     0.024 A 
ATOM     11  C   UNL     1     -15.675 -42.716  27.153  1.00  0.00     0.071 C 
ATOM     12  C   UNL     1     -17.949 -42.803  24.249  1.00  0.00     0.062 A 
ATOM     13  C   UNL     1     -17.014 -42.651  26.478  1.00  0.00    -0.029 A 
ATOM     14  C   UNL     1     -19.203 -42.624  24.829  1.00  0.00     0.158 A 
ATOM     15  C   UNL     1     -18.265 -42.469  27.056  1.00  0.00     0.055 A 
ATOM     16  C   UNL     1     -19.380 -42.452  26.217  1.00  0.00     0.160 A 
BRANCH   9  17
ATOM     17  O   UNL     1     -14.917 -43.083  23.575  1.00  0.00    -0.507 OA
ATOM     18  H   UNL     1     -14.495 -42.238  23.337  1.00  0.00     0.293 HD
ENDBRANCH   9  17
BRANCH  14  19
ATOM     19  O   UNL     1     -20.291 -42.615  23.996  1.00  0.00    -0.504 OA
ATOM     20  H   UNL     1     -20.999 -42.167  24.499  1.00  0.00     0.293 HD
ENDBRANCH  14  19
BRANCH  16  21
ATOM     21  O   UNL     1     -20.684 -42.286  26.610  1.00  0.00    -0.493 OA
ATOM     22  C   UNL     1     -21.110 -40.954  26.871  1.00  0.00     0.278 C 
ENDBRANCH  16  21
ENDBRANCH   7   8
ENDBRANCH   1   7
BRANCH   6  23
ATOM     23  C   UNL     1     -10.686 -42.382  27.812  1.00  0.00     0.166 C 
ATOM     24  C   UNL     1      -9.294 -42.623  27.314  1.00  0.00     0.094 C 
ATOM     25  O   UNL     1     -11.097 -41.268  28.128  1.00  0.00    -0.294 OA
ENDBRANCH   6  23
BRANCH   4  26
ATOM     26  C   UNL     1     -11.705 -46.085  30.769  1.00  0.00     0.393 C 
BRANCH  26  27
ATOM     27  C   UNL     1     -10.312 -45.728  31.220  1.00  0.00     0.018 A 
ATOM     28  C   UNL     1      -9.225 -46.561  30.914  1.00  0.00     0.010 A 
ATOM     29  C   UNL     1     -10.081 -44.564  31.973  1.00  0.00     0.030 A 
ATOM     30  C   UNL     1      -7.938 -46.241  31.355  1.00  0.00     0.002 A 
ATOM     31  C   UNL     1      -8.792 -44.252  32.412  1.00  0.00     0.041 A 
ATOM     32  C   UNL     1      -7.722 -45.087  32.107  1.00  0.00     0.020 A 
ATOM     33  Cl  UNL     1      -8.537 -42.830  33.341  1.00  0.00    -0.084 Cl
ENDBRANCH  26  27
ENDBRANCH   4  26
TORSDOF 8
ENDMDL
MODEL 2
REMARK VINA RESULT:   -11.200      3.922      9.483
REMARK INTER + INTRA:         -16.047
REMARK INTER:                 -16.483
REMARK INTRA:                   0.436
REMARK UNBOUND:                -0.264
REMARK SMILES COc1cc2c(cc1O)C(O)=C(Cc1cc[n+](Cc3cccc(Cl)c3)cc1C(C)=O)C2
REMARK SMILES IDX 14 1 15 2 16 3 17 4 26 5 27 6 13 7 12 8 10 9 6 10 31 11 7 12
REMARK SMILES IDX 5 13 8 14 4 15 3 16 11 17 9 19 2 21 1 22 28 23 29 24 30 25
REMARK SMILES IDX 18 26 19 27 20 28 25 29 21 30 23 31 22 32 24 33
REMARK H PARENT 11 18 9 20
ROOT
ATOM      1  C   UNL     1     -13.979 -44.946  28.706  1.00  0.00    -0.021 A 
ATOM      2  C   UNL     1     -14.909 -43.894  28.649  1.00  0.00     0.075 A 
ATOM      3  C   UNL     1     -15.229 -43.287  27.436  1.00  0.00     0.308 A 
ATOM      4  N   UNL     1     -14.650 -43.705  26.290  1.00  0.00    -0.200 N 
ATOM      5  C   UNL     1     -13.752 -44.717  26.305  1.00  0.00     0.320 A 
ATOM      6  C   UNL     1     -13.385 -45.343  27.501  1.00  0.00     0.085 A 
ENDROOT
BRANCH   1   7
ATOM      7  C   UNL     1     -13.741 -45.620  30.043  1.00  0.00     0.072 C 
BRANCH   7   8
ATOM      8  C   UNL     1     -12.721 -44.951  30.909  1.00  0.00    -0.019 C 
ATOM      9  C   UNL     1     -12.934 -43.906  31.724  1.00  0.00     0.123 C 
ATOM     10  C   UNL     1     -11.684 -43.491  32.342  1.00  0.00     0.024 A 
ATOM     11  C   UNL     1     -11.251 -45.324  30.890  1.00  0.00     0.071 C 
ATOM     12  C   UNL     1     -11.397 -42.496  33.255  1.00  0.00     0.062 A 
ATOM     13  C   UNL     1     -10.666 -44.325  31.846  1.00  0.00    -0.029 A 
ATOM     14  C   UNL     1     -10.070 -42.352  33.652  1.00  0.00     0.158 A 
ATOM     15  C   UNL     1      -9.341 -44.180  32.241  1.00  0.00     0.055 A 
ATOM     16  C   UNL     1      -9.037 -43.174  33.158  1.00  0.00     0.160 A 
BRANCH   9  17
ATOM     17  O   UNL     1     -14.114 -43.268  31.932  1.00  0.00    -0.507 OA
ATOM     18  H   UNL     1     -14.410 -42.882  31.088  1.00  0.00     0.293 HD
ENDBRANCH   9  17
BRANCH  14  19
ATOM     19  O   UNL     1      -9.784 -41.364  34.558  1.00  0.00    -0.504 OA
ATOM     20  H   UNL     1      -9.207 -40.735  34.081  1.00  0.00     0.293 HD
ENDBRANCH  14  19
BRANCH  16  21
ATOM     21  O   UNL     1      -7.791 -42.887  33.658  1.00  0.00    -0.493 OA
ATOM     22  C   UNL     1      -6.677 -43.247  32.851  1.00  0.00     0.278 C 
ENDBRANCH  16  21
ENDBRANCH   7   8
ENDBRANCH   1   7
BRANCH   6  23
ATOM     23  C   UNL     1     -12.444 -46.466  27.315  1.00  0.00     0.166 C 
ATOM     24  C   UNL     1     -11.111 -46.463  28.000  1.00  0.00     0.094 C 
ATOM     25  O   UNL     1     -12.781 -47.339  26.520  1.00  0.00    -0.294 OA
ENDBRANCH   6  23
BRANCH   4  26
ATOM     26  C   UNL     1     -15.009 -43.071  24.996  1.00  0.00     0.393 C 
BRANCH  26  27
ATOM     27  C   UNL     1     -16.493 -42.817  24.926  1.00  0.00     0.018 A 
ATOM     28  C   UNL     1     -17.176 -42.894  23.702  1.00  0.00     0.010 A 
ATOM     29  C   UNL     1     -17.216 -42.481  26.084  1.00  0.00     0.030 A 
ATOM     30  C   UNL     1     -18.547 -42.633  23.636  1.00  0.00     0.002 A 
ATOM     31  C   UNL     1     -18.586 -42.220  26.008  1.00  0.00     0.041 A 
ATOM     32  C   UNL     1     -19.253 -42.294  24.790  1.00  0.00     0.020 A 
ATOM     33  Cl  UNL     1     -19.445 -41.799  27.436  1.00  0.00    -0.084 Cl
ENDBRANCH  26  27
ENDBRANCH   4  26
TORSDOF 8
ENDMDL
MODEL 3
REMARK VINA RESULT:   -10.928      3.581      8.844
REMARK INTER + INTRA:         -15.664
REMARK INTER:                 -14.968
REMARK INTRA:                  -0.696
REMARK UNBOUND:                -0.264
REMARK SMILES COc1cc2c(cc1O)C(O)=C(Cc1cc[n+](Cc3cccc(Cl)c3)cc1C(C)=O)C2
REMARK SMILES IDX 14 1 15 2 16 3 17 4 26 5 27 6 13 7 12 8 10 9 6 10 31 11 7 12
REMARK SMILES IDX 5 13 8 14 4 15 3 16 11 17 9 19 2 21 1 22 28 23 29 24 30 25
REMARK SMILES IDX 18 26 19 27 20 28 25 29 21 30 23 31 22 32 24 33
REMARK H PARENT 11 18 9 20
ROOT
ATOM      1  C   UNL     1     -12.404 -44.768  28.194  1.00  0.00    -0.021 A 
ATOM      2  C   UNL     1     -13.479 -45.402  27.546  1.00  0.00     0.075 A 
ATOM      3  C   UNL     1     -14.072 -44.833  26.422  1.00  0.00     0.308 A 
ATOM      4  N   UNL     1     -13.619 -43.659  25.931  1.00  0.00    -0.200 N 
ATOM      5  C   UNL     1     -12.585 -43.021  26.527  1.00  0.00     0.320 A 
ATOM      6  C   UNL     1     -11.972 -43.544  27.669  1.00  0.00     0.085 A 
ENDROOT
BRANCH   1   7
ATOM      7  C   UNL     1     -11.748 -45.483  29.359  1.00  0.00     0.072 C 
BRANCH   7   8
ATOM      8  C   UNL     1     -11.614 -44.663  30.603  1.00  0.00    -0.019 C 
ATOM      9  C   UNL     1     -12.589 -43.954  31.195  1.00  0.00     0.123 C 
ATOM     10  C   UNL     1     -12.055 -43.229  32.338  1.00  0.00     0.024 A 
ATOM     11  C   UNL     1     -10.289 -44.444  31.308  1.00  0.00     0.071 C 
ATOM     12  C   UNL     1     -12.658 -42.397  33.260  1.00  0.00     0.062 A 
ATOM     13  C   UNL     1     -10.679 -43.505  32.413  1.00  0.00    -0.029 A 
ATOM     14  C   UNL     1     -11.851 -41.845  34.252  1.00  0.00     0.158 A 
ATOM     15  C   UNL     1      -9.872 -42.953  33.402  1.00  0.00     0.055 A 
ATOM     16  C   UNL     1     -10.468 -42.105  34.336  1.00  0.00     0.160 A 
BRANCH   9  17
ATOM     17  O   UNL     1     -13.882 -43.860  30.793  1.00  0.00    -0.507 OA
ATOM     18  H   UNL     1     -14.079 -42.926  30.601  1.00  0.00     0.293 HD
ENDBRANCH   9  17
BRANCH  14  19
ATOM     19  O   UNL     1     -12.448 -41.020  35.168  1.00  0.00    -0.504 OA
ATOM     20  H   UNL     1     -13.051 -41.595  35.681  1.00  0.00     0.293 HD
ENDBRANCH  14  19
BRANCH  16  21
ATOM     21  O   UNL     1      -9.831 -41.474  35.376  1.00  0.00    -0.493 OA
ATOM     22  C   UNL     1      -8.455 -41.778  35.564  1.00  0.00     0.278 C 
ENDBRANCH  16  21
ENDBRANCH   7   8
ENDBRANCH   1   7
BRANCH   6  23
ATOM     23  C   UNL     1     -10.822 -42.745  28.140  1.00  0.00     0.166 C 
ATOM     24  C   UNL     1      -9.423 -43.123  27.756  1.00  0.00     0.094 C 
ATOM     25  O   UNL     1     -11.074 -41.823  28.912  1.00  0.00    -0.294 OA
ENDBRANCH   6  23
BRANCH   4  26
ATOM     26  C   UNL     1     -14.240 -43.066  24.719  1.00  0.00     0.393 C 
BRANCH  26  27
ATOM     27  C   UNL     1     -15.717 -42.856  24.931  1.00  0.00     0.018 A 
ATOM     28  C   UNL     1     -16.596 -42.798  23.837  1.00  0.00     0.010 A 
ATOM     29  C   UNL     1     -16.239 -42.698  26.226  1.00  0.00     0.030 A 
ATOM     30  C   UNL     1     -17.962 -42.579  24.035  1.00  0.00     0.002 A 
ATOM     31  C   UNL     1     -17.605 -42.478  26.414  1.00  0.00     0.041 A 
ATOM     32  C   UNL     1     -18.467 -42.416  25.324  1.00  0.00     0.020 A 
ATOM     33  Cl  UNL     1     -18.217 -42.274  28.007  1.00  0.00    -0.084 Cl
ENDBRANCH  26  27
ENDBRANCH   4  26
TORSDOF 8
ENDMDL
MODEL 4
REMARK VINA RESULT:   -10.829      4.082      9.063
REMARK INTER + INTRA:         -15.524
REMARK INTER:                 -14.742
REMARK INTRA:                  -0.782
REMARK UNBOUND:                -0.264
REMARK SMILES COc1cc2c(cc1O)C(O)=C(Cc1cc[n+](Cc3cccc(Cl)c3)cc1C(C)=O)C2
REMARK SMILES IDX 14 1 15 2 16 3 17 4 26 5 27 6 13 7 12 8 10 9 6 10 31 11 7 12
REMARK SMILES IDX 5 13 8 14 4 15 3 16 11 17 9 19 2 21 1 22 28 23 29 24 30 25
REMARK SMILES IDX 18 26 19 27 20 28 25 29 21 30 23 31 22 32 24 33
REMARK H PARENT 11 18 9 20
ROOT
ATOM      1  C   UNL     1     -11.920 -44.763  28.102  1.00  0.00    -0.021 A 
ATOM      2  C   UNL     1     -12.990 -45.546  27.635  1.00  0.00     0.075 A 
ATOM      3  C   UNL     1     -13.869 -45.057  26.672  1.00  0.00     0.308 A 
ATOM      4  N   UNL     1     -13.704 -43.816  26.164  1.00  0.00    -0.200 N 
ATOM      5  C   UNL     1     -12.684 -43.033  26.587  1.00  0.00     0.320 A 
ATOM      6  C   UNL     1     -11.789 -43.475  27.567  1.00  0.00     0.085 A 
ENDROOT
BRANCH   1   7
ATOM      7  C   UNL     1     -10.951 -45.387  29.086  1.00  0.00     0.072 C 
BRANCH   7   8
ATOM      8  C   UNL     1     -10.674 -44.561  30.302  1.00  0.00    -0.019 C 
ATOM      9  C   UNL     1      -9.476 -44.374  30.879  1.00  0.00     0.123 C 
ATOM     10  C   UNL     1      -9.622 -43.573  32.084  1.00  0.00     0.024 A 
ATOM     11  C   UNL     1     -11.770 -43.899  31.116  1.00  0.00     0.071 C 
ATOM     12  C   UNL     1      -8.693 -43.103  32.992  1.00  0.00     0.062 A 
ATOM     13  C   UNL     1     -10.989 -43.287  32.244  1.00  0.00    -0.029 A 
ATOM     14  C   UNL     1      -9.167 -42.350  34.063  1.00  0.00     0.158 A 
ATOM     15  C   UNL     1     -11.462 -42.537  33.314  1.00  0.00     0.055 A 
ATOM     16  C   UNL     1     -10.536 -42.062  34.242  1.00  0.00     0.160 A 
BRANCH   9  17
ATOM     17  O   UNL     1      -8.288 -44.881  30.462  1.00  0.00    -0.507 OA
ATOM     18  H   UNL     1      -7.671 -44.884  31.216  1.00  0.00     0.293 HD
ENDBRANCH   9  17
BRANCH  14  19
ATOM     19  O   UNL     1      -8.247 -41.883  34.965  1.00  0.00    -0.504 OA
ATOM     20  H   UNL     1      -8.637 -41.066  35.334  1.00  0.00     0.293 HD
ENDBRANCH  14  19
BRANCH  16  21
ATOM     21  O   UNL     1     -10.819 -41.309  35.355  1.00  0.00    -0.493 OA
ATOM     22  C   UNL     1     -12.175 -40.925  35.540  1.00  0.00     0.278 C 
ENDBRANCH  16  21
ENDBRANCH   7   8
ENDBRANCH   1   7
BRANCH   6  23
ATOM     23  C   UNL     1     -10.705 -42.512  27.853  1.00  0.00     0.166 C 
ATOM     24  C   UNL     1      -9.321 -42.745  27.327  1.00  0.00     0.094 C 
ATOM     25  O   UNL     1     -10.985 -41.577  28.599  1.00  0.00    -0.294 OA
ENDBRANCH   6  23
BRANCH   4  26
ATOM     26  C   UNL     1     -14.629 -43.305  25.121  1.00  0.00     0.393 C 
BRANCH  26  27
ATOM     27  C   UNL     1     -15.955 -42.927  25.730  1.00  0.00     0.018 A 
ATOM     28  C   UNL     1     -16.084 -42.765  27.118  1.00  0.00     0.010 A 
ATOM     29  C   UNL     1     -17.089 -42.747  24.920  1.00  0.00     0.030 A 
ATOM     30  C   UNL     1     -17.320 -42.438  27.683  1.00  0.00     0.002 A 
ATOM     31  C   UNL     1     -18.321 -42.423  25.493  1.00  0.00     0.041 A 
ATOM     32  C   UNL     1     -18.440 -42.270  26.870  1.00  0.00     0.020 A 
ATOM     33  Cl  UNL     1     -19.695 -42.222  24.482  1.00  0.00    -0.084 Cl
ENDBRANCH  26  27
ENDBRANCH   4  26
TORSDOF 8
ENDMDL
MODEL 5
REMARK VINA RESULT:   -10.460      2.190      3.068
REMARK INTER + INTRA:         -15.004
REMARK INTER:                 -14.331
REMARK INTRA:                  -0.673
REMARK UNBOUND:                -0.264
REMARK SMILES COc1cc2c(cc1O)C(O)=C(Cc1cc[n+](Cc3cccc(Cl)c3)cc1C(C)=O)C2
REMARK SMILES IDX 14 1 15 2 16 3 17 4 26 5 27 6 13 7 12 8 10 9 6 10 31 11 7 12
REMARK SMILES IDX 5 13 8 14 4 15 3 16 11 17 9 19 2 21 1 22 28 23 29 24 30 25
REMARK SMILES IDX 18 26 19 27 20 28 25 29 21 30 23 31 22 32 24 33
REMARK H PARENT 11 18 9 20
ROOT
ATOM      1  C   UNL     1     -11.865 -43.612  27.653  1.00  0.00    -0.021 A 
ATOM      2  C   UNL     1     -11.014 -42.609  28.149  1.00  0.00     0.075 A 
ATOM      3  C   UNL     1     -10.346 -42.773  29.360  1.00  0.00     0.308 A 
ATOM      4  N   UNL     1     -10.503 -43.905  30.079  1.00  0.00    -0.200 N 
ATOM      5  C   UNL     1     -11.312 -44.893  29.632  1.00  0.00     0.320 A 
ATOM      6  C   UNL     1     -12.018 -44.765  28.432  1.00  0.00     0.085 A 
ENDROOT
BRANCH   1   7
ATOM      7  C   UNL     1     -12.493 -43.408  26.288  1.00  0.00     0.072 C 
BRANCH   7   8
ATOM      8  C   UNL     1     -13.973 -43.189  26.306  1.00  0.00    -0.019 C 
ATOM      9  C   UNL     1     -14.752 -42.946  25.239  1.00  0.00     0.123 C 
ATOM     10  C   UNL     1     -16.123 -42.713  25.666  1.00  0.00     0.024 A 
ATOM     11  C   UNL     1     -14.780 -43.111  27.588  1.00  0.00     0.071 C 
ATOM     12  C   UNL     1     -17.274 -42.449  24.951  1.00  0.00     0.062 A 
ATOM     13  C   UNL     1     -16.154 -42.800  27.068  1.00  0.00    -0.029 A 
ATOM     14  C   UNL     1     -18.451 -42.268  25.672  1.00  0.00     0.158 A 
ATOM     15  C   UNL     1     -17.329 -42.617  27.789  1.00  0.00     0.055 A 
ATOM     16  C   UNL     1     -18.498 -42.344  27.080  1.00  0.00     0.160 A 
BRANCH   9  17
ATOM     17  O   UNL     1     -14.352 -42.870  23.944  1.00  0.00    -0.507 OA
ATOM     18  H   UNL     1     -13.851 -43.677  23.728  1.00  0.00     0.293 HD
ENDBRANCH   9  17
BRANCH  14  19
ATOM     19  O   UNL     1     -19.595 -42.007  24.964  1.00  0.00    -0.504 OA
ATOM     20  H   UNL     1     -19.821 -42.847  24.518  1.00  0.00     0.293 HD
ENDBRANCH  14  19
BRANCH  16  21
ATOM     21  O   UNL     1     -19.742 -42.137  27.621  1.00  0.00    -0.493 OA
ATOM     22  C   UNL     1     -20.590 -43.274  27.733  1.00  0.00     0.278 C 
ENDBRANCH  16  21
ENDBRANCH   7   8
ENDBRANCH   1   7
BRANCH   6  23
ATOM     23  C   UNL     1     -12.798 -45.969  28.075  1.00  0.00     0.166 C 
ATOM     24  C   UNL     1     -12.386 -46.827  26.918  1.00  0.00     0.094 C 
ATOM     25  O   UNL     1     -13.824 -46.169  28.720  1.00  0.00    -0.294 OA
ENDBRANCH   6  23
BRANCH   4  26
ATOM     26  C   UNL     1      -9.772 -44.085  31.360  1.00  0.00     0.393 C 
BRANCH  26  27
ATOM     27  C   UNL     1     -10.401 -43.255  32.449  1.00  0.00     0.018 A 
ATOM     28  C   UNL     1      -9.608 -42.648  33.434  1.00  0.00     0.010 A 
ATOM     29  C   UNL     1     -11.796 -43.090  32.506  1.00  0.00     0.030 A 
ATOM     30  C   UNL     1     -10.196 -41.899  34.457  1.00  0.00     0.002 A 
ATOM     31  C   UNL     1     -12.375 -42.341  33.534  1.00  0.00     0.041 A 
ATOM     32  C   UNL     1     -11.581 -41.748  34.509  1.00  0.00     0.020 A 
ATOM     33  Cl  UNL     1     -14.084 -42.165  33.590  1.00  0.00    -0.084 Cl
ENDBRANCH  26  27
ENDBRANCH   4  26
TORSDOF 8
ENDMDL
MODEL 6
REMARK VINA RESULT:   -10.391      4.505      9.732
REMARK INTER + INTRA:         -14.907
REMARK INTER:                 -16.072
REMARK INTRA:                   1.165
REMARK UNBOUND:                -0.264
REMARK SMILES COc1cc2c(cc1O)C(O)=C(Cc1cc[n+](Cc3cccc(Cl)c3)cc1C(C)=O)C2
REMARK SMILES IDX 14 1 15 2 16 3 17 4 26 5 27 6 13 7 12 8 10 9 6 10 31 11 7 12
REMARK SMILES IDX 5 13 8 14 4 15 3 16 11 17 9 19 2 21 1 22 28 23 29 24 30 25
REMARK SMILES IDX 18 26 19 27 20 28 25 29 21 30 23 31 22 32 24 33
REMARK H PARENT 11 18 9 20
ROOT
ATOM      1  C   UNL     1     -12.764 -45.530  28.670  1.00  0.00    -0.021 A 
ATOM      2  C   UNL     1     -12.882 -45.009  27.369  1.00  0.00     0.075 A 
ATOM      3  C   UNL     1     -13.964 -44.206  27.016  1.00  0.00     0.308 A 
ATOM      4  N   UNL     1     -14.919 -43.909  27.924  1.00  0.00    -0.200 N 
ATOM      5  C   UNL     1     -14.837 -44.389  29.186  1.00  0.00     0.320 A 
ATOM      6  C   UNL     1     -13.780 -45.216  29.580  1.00  0.00     0.085 A 
ENDROOT
BRANCH   1   7
ATOM      7  C   UNL     1     -11.519 -46.324  29.012  1.00  0.00     0.072 C 
BRANCH   7   8
ATOM      8  C   UNL     1     -10.572 -45.635  29.943  1.00  0.00    -0.019 C 
ATOM      9  C   UNL     1      -9.310 -46.008  30.210  1.00  0.00     0.123 C 
ATOM     10  C   UNL     1      -8.735 -45.134  31.220  1.00  0.00     0.024 A 
ATOM     11  C   UNL     1     -10.975 -44.453  30.803  1.00  0.00     0.071 C 
ATOM     12  C   UNL     1      -7.482 -45.100  31.799  1.00  0.00     0.062 A 
ATOM     13  C   UNL     1      -9.721 -44.203  31.591  1.00  0.00    -0.029 A 
ATOM     14  C   UNL     1      -7.244 -44.120  32.759  1.00  0.00     0.158 A 
ATOM     15  C   UNL     1      -9.485 -43.226  32.551  1.00  0.00     0.055 A 
ATOM     16  C   UNL     1      -8.225 -43.184  33.148  1.00  0.00     0.160 A 
BRANCH   9  17
ATOM     17  O   UNL     1      -8.647 -47.066  29.677  1.00  0.00    -0.507 OA
ATOM     18  H   UNL     1      -9.298 -47.750  29.439  1.00  0.00     0.293 HD
ENDBRANCH   9  17
BRANCH  14  19
ATOM     19  O   UNL     1      -6.000 -44.084  33.334  1.00  0.00    -0.504 OA
ATOM     20  H   UNL     1      -6.156 -43.868  34.275  1.00  0.00     0.293 HD
ENDBRANCH  14  19
BRANCH  16  21
ATOM     21  O   UNL     1      -7.815 -42.294  34.109  1.00  0.00    -0.493 OA
ATOM     22  C   UNL     1      -8.760 -41.959  35.118  1.00  0.00     0.278 C 
ENDBRANCH  16  21
ENDBRANCH   7   8
ENDBRANCH   1   7
BRANCH   6  23
ATOM     23  C   UNL     1     -13.824 -45.589  31.009  1.00  0.00     0.166 C 
ATOM     24  C   UNL     1     -13.824 -44.532  32.072  1.00  0.00     0.094 C 
ATOM     25  O   UNL     1     -13.781 -46.790  31.264  1.00  0.00    -0.294 OA
ENDBRANCH   6  23
BRANCH   4  26
ATOM     26  C   UNL     1     -16.059 -43.034  27.550  1.00  0.00     0.393 C 
BRANCH  26  27
ATOM     27  C   UNL     1     -16.012 -42.702  26.081  1.00  0.00     0.018 A 
ATOM     28  C   UNL     1     -14.807 -42.314  25.473  1.00  0.00     0.010 A 
ATOM     29  C   UNL     1     -17.177 -42.759  25.297  1.00  0.00     0.030 A 
ATOM     30  C   UNL     1     -14.771 -41.983  24.116  1.00  0.00     0.002 A 
ATOM     31  C   UNL     1     -17.132 -42.425  23.941  1.00  0.00     0.041 A 
ATOM     32  C   UNL     1     -15.934 -42.036  23.350  1.00  0.00     0.020 A 
ATOM     33  Cl  UNL     1     -18.573 -42.489  23.007  1.00  0.00    -0.084 Cl
ENDBRANCH  26  27
ENDBRANCH   4  26
TORSDOF 8
ENDMDL
MODEL 7
REMARK VINA RESULT:   -10.241      2.024      3.280
REMARK INTER + INTRA:         -14.695
REMARK INTER:                 -13.511
REMARK INTRA:                  -1.184
REMARK UNBOUND:                -0.264
REMARK SMILES COc1cc2c(cc1O)C(O)=C(Cc1cc[n+](Cc3cccc(Cl)c3)cc1C(C)=O)C2
REMARK SMILES IDX 14 1 15 2 16 3 17 4 26 5 27 6 13 7 12 8 10 9 6 10 31 11 7 12
REMARK SMILES IDX 5 13 8 14 4 15 3 16 11 17 9 19 2 21 1 22 28 23 29 24 30 25
REMARK SMILES IDX 18 26 19 27 20 28 25 29 21 30 23 31 22 32 24 33
REMARK H PARENT 11 18 9 20
ROOT
ATOM      1  C   UNL     1     -15.249 -43.315  26.975  1.00  0.00    -0.021 A 
ATOM      2  C   UNL     1     -15.075 -43.632  28.334  1.00  0.00     0.075 A 
ATOM      3  C   UNL     1     -14.199 -44.643  28.726  1.00  0.00     0.308 A 
ATOM      4  N   UNL     1     -13.497 -45.335  27.802  1.00  0.00    -0.200 N 
ATOM      5  C   UNL     1     -13.637 -45.055  26.486  1.00  0.00     0.320 A 
ATOM      6  C   UNL     1     -14.518 -44.063  26.044  1.00  0.00     0.085 A 
ENDROOT
BRANCH   1   7
ATOM      7  C   UNL     1     -16.149 -42.148  26.622  1.00  0.00     0.072 C 
BRANCH   7   8
ATOM      8  C   UNL     1     -17.574 -42.515  26.352  1.00  0.00    -0.019 C 
ATOM      9  C   UNL     1     -18.124 -42.726  25.145  1.00  0.00     0.123 C 
ATOM     10  C   UNL     1     -19.548 -42.988  25.285  1.00  0.00     0.024 A 
ATOM     11  C   UNL     1     -18.626 -42.593  27.442  1.00  0.00     0.071 C 
ATOM     12  C   UNL     1     -20.524 -43.279  24.352  1.00  0.00     0.062 A 
ATOM     13  C   UNL     1     -19.865 -42.904  26.652  1.00  0.00    -0.029 A 
ATOM     14  C   UNL     1     -21.821 -43.476  24.819  1.00  0.00     0.158 A 
ATOM     15  C   UNL     1     -21.161 -43.098  27.118  1.00  0.00     0.055 A 
ATOM     16  C   UNL     1     -22.157 -43.387  26.186  1.00  0.00     0.160 A 
BRANCH   9  17
ATOM     17  O   UNL     1     -17.493 -42.665  23.945  1.00  0.00    -0.507 OA
ATOM     18  H   UNL     1     -18.101 -42.267  23.296  1.00  0.00     0.293 HD
ENDBRANCH   9  17
BRANCH  14  19
ATOM     19  O   UNL     1     -22.790 -43.766  23.895  1.00  0.00    -0.504 OA
ATOM     20  H   UNL     1     -23.597 -43.318  24.217  1.00  0.00     0.293 HD
ENDBRANCH  14  19
BRANCH  16  21
ATOM     21  O   UNL     1     -23.483 -43.609  26.462  1.00  0.00    -0.493 OA
ATOM     22  C   UNL     1     -23.979 -43.082  27.687  1.00  0.00     0.278 C 
ENDBRANCH  16  21
ENDBRANCH   7   8
ENDBRANCH   1   7
BRANCH   6  23
ATOM     23  C   UNL     1     -14.488 -43.856  24.581  1.00  0.00     0.166 C 
ATOM     24  C   UNL     1     -14.670 -45.012  23.645  1.00  0.00     0.094 C 
ATOM     25  O   UNL     1     -14.231 -42.719  24.193  1.00  0.00    -0.294 OA
ENDBRANCH   6  23
BRANCH   4  26
ATOM     26  C   UNL     1     -12.548 -46.396  28.225  1.00  0.00     0.393 C 
BRANCH  26  27
ATOM     27  C   UNL     1     -11.503 -45.832  29.152  1.00  0.00     0.018 A 
ATOM     28  C   UNL     1     -11.402 -46.282  30.477  1.00  0.00     0.010 A 
ATOM     29  C   UNL     1     -10.621 -44.831  28.709  1.00  0.00     0.030 A 
ATOM     30  C   UNL     1     -10.448 -45.739  31.341  1.00  0.00     0.002 A 
ATOM     31  C   UNL     1      -9.671 -44.292  29.581  1.00  0.00     0.041 A 
ATOM     32  C   UNL     1      -9.583 -44.741  30.894  1.00  0.00     0.020 A 
ATOM     33  Cl  UNL     1      -8.614 -43.060  29.019  1.00  0.00    -0.084 Cl
ENDBRANCH  26  27
ENDBRANCH   4  26
TORSDOF 8
ENDMDL
MODEL 8
REMARK VINA RESULT:   -10.027      3.484      6.338
REMARK INTER + INTRA:         -14.394
REMARK INTER:                 -14.156
REMARK INTRA:                  -0.238
REMARK UNBOUND:                -0.264
REMARK SMILES COc1cc2c(cc1O)C(O)=C(Cc1cc[n+](Cc3cccc(Cl)c3)cc1C(C)=O)C2
REMARK SMILES IDX 14 1 15 2 16 3 17 4 26 5 27 6 13 7 12 8 10 9 6 10 31 11 7 12
REMARK SMILES IDX 5 13 8 14 4 15 3 16 11 17 9 19 2 21 1 22 28 23 29 24 30 25
REMARK SMILES IDX 18 26 19 27 20 28 25 29 21 30 23 31 22 32 24 33
REMARK H PARENT 11 18 9 20
ROOT
ATOM      1  C   UNL     1     -17.639 -42.855  25.026  1.00  0.00    -0.021 A 
ATOM      2  C   UNL     1     -16.573 -42.996  24.120  1.00  0.00     0.075 A 
ATOM      3  C   UNL     1     -15.253 -42.847  24.540  1.00  0.00     0.308 A 
ATOM      4  N   UNL     1     -14.975 -42.567  25.832  1.00  0.00    -0.200 N 
ATOM      5  C   UNL     1     -15.975 -42.427  26.733  1.00  0.00     0.320 A 
ATOM      6  C   UNL     1     -17.315 -42.549  26.353  1.00  0.00     0.085 A 
ENDROOT
BRANCH   1   7
ATOM      7  C   UNL     1     -19.045 -43.116  24.523  1.00  0.00     0.072 C 
BRANCH   7   8
ATOM      8  C   UNL     1     -19.652 -41.990  23.747  1.00  0.00    -0.019 C 
ATOM      9  C   UNL     1     -20.852 -41.430  23.967  1.00  0.00     0.123 C 
ATOM     10  C   UNL     1     -21.123 -40.418  22.958  1.00  0.00     0.024 A 
ATOM     11  C   UNL     1     -19.003 -41.398  22.510  1.00  0.00     0.071 C 
ATOM     12  C   UNL     1     -22.195 -39.567  22.776  1.00  0.00     0.062 A 
ATOM     13  C   UNL     1     -20.030 -40.392  22.075  1.00  0.00    -0.029 A 
ATOM     14  C   UNL     1     -22.150 -38.700  21.687  1.00  0.00     0.158 A 
ATOM     15  C   UNL     1     -19.985 -39.528  20.986  1.00  0.00     0.055 A 
ATOM     16  C   UNL     1     -21.065 -38.669  20.787  1.00  0.00     0.160 A 
BRANCH   9  17
ATOM     17  O   UNL     1     -21.734 -41.762  24.943  1.00  0.00    -0.507 OA
ATOM     18  H   UNL     1     -22.634 -41.563  24.627  1.00  0.00     0.293 HD
ENDBRANCH   9  17
BRANCH  14  19
ATOM     19  O   UNL     1     -23.213 -37.855  21.505  1.00  0.00    -0.504 OA
ATOM     20  H   UNL     1     -22.840 -37.056  21.083  1.00  0.00     0.293 HD
ENDBRANCH  14  19
BRANCH  16  21
ATOM     21  O   UNL     1     -21.192 -37.753  19.773  1.00  0.00    -0.493 OA
ATOM     22  C   UNL     1     -21.734 -38.227  18.546  1.00  0.00     0.278 C 
ENDBRANCH  16  21
ENDBRANCH   7   8
ENDBRANCH   1   7
BRANCH   6  23
ATOM     23  C   UNL     1     -18.261 -42.429  27.482  1.00  0.00     0.166 C 
ATOM     24  C   UNL     1     -19.539 -41.661  27.326  1.00  0.00     0.094 C 
ATOM     25  O   UNL     1     -17.904 -42.918  28.552  1.00  0.00    -0.294 OA
ENDBRANCH   6  23
BRANCH   4  26
ATOM     26  C   UNL     1     -13.566 -42.430  26.281  1.00  0.00     0.393 C 
BRANCH  26  27
ATOM     27  C   UNL     1     -13.072 -43.725  26.872  1.00  0.00     0.018 A 
ATOM     28  C   UNL     1     -13.688 -44.943  26.545  1.00  0.00     0.010 A 
ATOM     29  C   UNL     1     -11.997 -43.733  27.778  1.00  0.00     0.030 A 
ATOM     30  C   UNL     1     -13.244 -46.139  27.114  1.00  0.00     0.002 A 
ATOM     31  C   UNL     1     -11.561 -44.934  28.344  1.00  0.00     0.041 A 
ATOM     32  C   UNL     1     -12.181 -46.135  28.017  1.00  0.00     0.020 A 
ATOM     33  Cl  UNL     1     -10.253 -44.916  29.458  1.00  0.00    -0.084 Cl
ENDBRANCH  26  27
ENDBRANCH   4  26
TORSDOF 8
ENDMDL
MODEL 9
REMARK VINA RESULT:    -9.459      3.505      6.817
REMARK INTER + INTRA:         -13.593
REMARK INTER:                 -12.706
REMARK INTRA:                  -0.887
REMARK UNBOUND:                -0.264
REMARK SMILES COc1cc2c(cc1O)C(O)=C(Cc1cc[n+](Cc3cccc(Cl)c3)cc1C(C)=O)C2
REMARK SMILES IDX 14 1 15 2 16 3 17 4 26 5 27 6 13 7 12 8 10 9 6 10 31 11 7 12
REMARK SMILES IDX 5 13 8 14 4 15 3 16 11 17 9 19 2 21 1 22 28 23 29 24 30 25
REMARK SMILES IDX 18 26 19 27 20 28 25 29 21 30 23 31 22 32 24 33
REMARK H PARENT 11 18 9 20
ROOT
ATOM      1  C   UNL     1     -18.489 -42.187  26.330  1.00  0.00    -0.021 A 
ATOM      2  C   UNL     1     -17.422 -42.409  27.218  1.00  0.00     0.075 A 
ATOM      3  C   UNL     1     -16.178 -42.830  26.752  1.00  0.00     0.308 A 
ATOM      4  N   UNL     1     -15.976 -43.029  25.431  1.00  0.00    -0.200 N 
ATOM      5  C   UNL     1     -16.979 -42.822  24.546  1.00  0.00     0.320 A 
ATOM      6  C   UNL     1     -18.249 -42.418  24.970  1.00  0.00     0.085 A 
ENDROOT
BRANCH   1   7
ATOM      7  C   UNL     1     -19.788 -41.646  26.893  1.00  0.00     0.072 C 
BRANCH   7   8
ATOM      8  C   UNL     1     -20.924 -42.619  26.892  1.00  0.00    -0.019 C 
ATOM      9  C   UNL     1     -22.053 -42.521  26.171  1.00  0.00     0.123 C 
ATOM     10  C   UNL     1     -22.950 -43.619  26.497  1.00  0.00     0.024 A 
ATOM     11  C   UNL     1     -20.982 -43.819  27.818  1.00  0.00     0.071 C 
ATOM     12  C   UNL     1     -24.197 -43.959  26.013  1.00  0.00     0.062 A 
ATOM     13  C   UNL     1     -22.327 -44.399  27.487  1.00  0.00    -0.029 A 
ATOM     14  C   UNL     1     -24.806 -45.092  26.547  1.00  0.00     0.158 A 
ATOM     15  C   UNL     1     -22.936 -45.529  28.022  1.00  0.00     0.055 A 
ATOM     16  C   UNL     1     -24.199 -45.881  27.546  1.00  0.00     0.160 A 
BRANCH   9  17
ATOM     17  O   UNL     1     -22.371 -41.536  25.294  1.00  0.00    -0.507 OA
ATOM     18  H   UNL     1     -21.704 -41.527  24.583  1.00  0.00     0.293 HD
ENDBRANCH   9  17
BRANCH  14  19
ATOM     19  O   UNL     1     -26.044 -45.432  26.067  1.00  0.00    -0.504 OA
ATOM     20  H   UNL     1     -26.101 -45.019  25.182  1.00  0.00     0.293 HD
ENDBRANCH  14  19
BRANCH  16  21
ATOM     21  O   UNL     1     -24.946 -46.958  27.954  1.00  0.00    -0.493 OA
ATOM     22  C   UNL     1     -25.388 -46.955  29.306  1.00  0.00     0.278 C 
ENDBRANCH  16  21
ENDBRANCH   7   8
ENDBRANCH   1   7
BRANCH   6  23
ATOM     23  C   UNL     1     -19.194 -42.182  23.859  1.00  0.00     0.166 C 
ATOM     24  C   UNL     1     -19.144 -40.904  23.077  1.00  0.00     0.094 C 
ATOM     25  O   UNL     1     -20.053 -43.041  23.676  1.00  0.00    -0.294 OA
ENDBRANCH   6  23
BRANCH   4  26
ATOM     26  C   UNL     1     -14.643 -43.457  24.935  1.00  0.00     0.393 C 
BRANCH  26  27
ATOM     27  C   UNL     1     -13.744 -43.823  26.086  1.00  0.00     0.018 A 
ATOM     28  C   UNL     1     -13.861 -45.071  26.718  1.00  0.00     0.010 A 
ATOM     29  C   UNL     1     -12.783 -42.913  26.561  1.00  0.00     0.030 A 
ATOM     30  C   UNL     1     -13.042 -45.399  27.802  1.00  0.00     0.002 A 
ATOM     31  C   UNL     1     -11.970 -43.248  27.646  1.00  0.00     0.041 A 
ATOM     32  C   UNL     1     -12.097 -44.485  28.268  1.00  0.00     0.020 A 
ATOM     33  Cl  UNL     1     -10.812 -42.113  28.216  1.00  0.00    -0.084 Cl
ENDBRANCH  26  27
ENDBRANCH   4  26
TORSDOF 8
ENDMDL
