MODEL 1
REMARK VINA RESULT:    -8.864      0.000      0.000
REMARK INTER + INTRA:          -9.124
REMARK INTER:                  -9.124
REMARK INTRA:                   0.000
REMARK UNBOUND:                 0.000
REMARK SMILES Nc1c2c(nc3cc(Cl)ccc13)CCCC2
REMARK SMILES IDX 2 1 3 2 4 3 5 4 6 5 7 6 8 7 9 8 10 9 11 10 12 11 13 12 14 13
REMARK SMILES IDX 15 14 16 15 1 16
REMARK H PARENT 1 17 1 18
ROOT
ATOM      1  C   UNL     1     -17.725 -42.689  24.039  1.00  0.00     0.046 A 
ATOM      2  C   UNL     1     -18.816 -42.125  24.730  1.00  0.00    -0.003 A 
ATOM      3  C   UNL     1     -18.724 -42.025  26.120  1.00  0.00     0.046 A 
ATOM      4  N   UNL     1     -17.616 -42.371  26.816  1.00  0.00    -0.252 NA
ATOM      5  C   UNL     1     -16.544 -42.811  26.149  1.00  0.00     0.074 A 
ATOM      6  C   UNL     1     -15.407 -43.106  26.888  1.00  0.00     0.049 A 
ATOM      7  C   UNL     1     -14.239 -43.546  26.274  1.00  0.00     0.043 A 
ATOM      8  Cl  UNL     1     -12.849 -43.897  27.225  1.00  0.00    -0.084 Cl
ATOM      9  C   UNL     1     -14.186 -43.696  24.897  1.00  0.00     0.021 A 
ATOM     10  C   UNL     1     -15.321 -43.410  24.139  1.00  0.00     0.014 A 
ATOM     11  C   UNL     1     -16.525 -42.974  24.748  1.00  0.00     0.024 A 
ATOM     12  C   UNL     1     -19.845 -41.457  26.955  1.00  0.00     0.056 C 
ATOM     13  C   UNL     1     -21.191 -41.462  26.241  1.00  0.00     0.007 C 
ATOM     14  C   UNL     1     -21.036 -40.865  24.851  1.00  0.00     0.005 C 
ATOM     15  C   UNL     1     -20.079 -41.710  24.010  1.00  0.00     0.039 C 
ENDROOT
BRANCH   1  16
ATOM     16  N   UNL     1     -17.763 -42.781  22.625  1.00  0.00    -0.398 N 
ATOM     17  H   UNL     1     -17.269 -43.588  22.260  1.00  0.00     0.156 HD
ATOM     18  H   UNL     1     -18.699 -42.733  22.237  1.00  0.00     0.156 HD
ENDBRANCH   1  16
TORSDOF 1
ENDMDL
MODEL 2
REMARK VINA RESULT:    -8.821      2.519      5.214
REMARK INTER + INTRA:          -9.079
REMARK INTER:                  -9.079
REMARK INTRA:                   0.000
REMARK UNBOUND:                 0.000
REMARK SMILES Nc1c2c(nc3cc(Cl)ccc13)CCCC2
REMARK SMILES IDX 2 1 3 2 4 3 5 4 6 5 7 6 8 7 9 8 10 9 11 10 12 11 13 12 14 13
REMARK SMILES IDX 15 14 16 15 1 16
REMARK H PARENT 1 17 1 18
ROOT
ATOM      1  C   UNL     1     -17.699 -42.516  23.989  1.00  0.00     0.046 A 
ATOM      2  C   UNL     1     -16.584 -43.002  24.701  1.00  0.00    -0.003 A 
ATOM      3  C   UNL     1     -16.583 -42.852  26.090  1.00  0.00     0.046 A 
ATOM      4  N   UNL     1     -17.628 -42.336  26.779  1.00  0.00    -0.252 NA
ATOM      5  C   UNL     1     -18.726 -41.969  26.112  1.00  0.00     0.074 A 
ATOM      6  C   UNL     1     -19.798 -41.494  26.855  1.00  0.00     0.049 A 
ATOM      7  C   UNL     1     -20.989 -41.113  26.245  1.00  0.00     0.043 A 
ATOM      8  Cl  UNL     1     -22.296 -40.533  27.202  1.00  0.00    -0.084 Cl
ATOM      9  C   UNL     1     -21.131 -41.204  24.870  1.00  0.00     0.021 A 
ATOM     10  C   UNL     1     -20.062 -41.673  24.106  1.00  0.00     0.014 A 
ATOM     11  C   UNL     1     -18.836 -42.054  24.708  1.00  0.00     0.024 A 
ATOM     12  C   UNL     1     -15.429 -43.318  26.942  1.00  0.00     0.056 C 
ATOM     13  C   UNL     1     -14.136 -43.504  26.157  1.00  0.00     0.007 C 
ATOM     14  C   UNL     1     -14.409 -44.327  24.909  1.00  0.00     0.005 C 
ATOM     15  C   UNL     1     -15.390 -43.597  23.991  1.00  0.00     0.039 C 
ENDROOT
BRANCH   1  16
ATOM     16  N   UNL     1     -17.755 -42.676  22.582  1.00  0.00    -0.398 N 
ATOM     17  H   UNL     1     -16.867 -42.945  22.171  1.00  0.00     0.156 HD
ATOM     18  H   UNL     1     -18.493 -43.299  22.270  1.00  0.00     0.156 HD
ENDBRANCH   1  16
TORSDOF 1
ENDMDL
MODEL 3
REMARK VINA RESULT:    -8.662      2.840      5.851
REMARK INTER + INTRA:          -8.915
REMARK INTER:                  -8.915
REMARK INTRA:                   0.000
REMARK UNBOUND:                 0.000
REMARK SMILES Nc1c2c(nc3cc(Cl)ccc13)CCCC2
REMARK SMILES IDX 2 1 3 2 4 3 5 4 6 5 7 6 8 7 9 8 10 9 11 10 12 11 13 12 14 13
REMARK SMILES IDX 15 14 16 15 1 16
REMARK H PARENT 1 17 1 18
ROOT
ATOM      1  C   UNL     1     -17.800 -42.453  26.890  1.00  0.00     0.046 A 
ATOM      2  C   UNL     1     -16.730 -42.762  26.026  1.00  0.00    -0.003 A 
ATOM      3  C   UNL     1     -16.957 -42.668  24.651  1.00  0.00     0.046 A 
ATOM      4  N   UNL     1     -18.121 -42.226  24.121  1.00  0.00    -0.252 NA
ATOM      5  C   UNL     1     -19.101 -41.837  24.943  1.00  0.00     0.074 A 
ATOM      6  C   UNL     1     -20.261 -41.339  24.366  1.00  0.00     0.049 A 
ATOM      7  C   UNL     1     -21.321 -40.889  25.146  1.00  0.00     0.043 A 
ATOM      8  Cl  UNL     1     -22.741 -40.274  24.393  1.00  0.00    -0.084 Cl
ATOM      9  C   UNL     1     -21.237 -40.926  26.529  1.00  0.00     0.021 A 
ATOM     10  C   UNL     1     -20.081 -41.429  27.126  1.00  0.00     0.014 A 
ATOM     11  C   UNL     1     -18.996 -41.905  26.349  1.00  0.00     0.024 A 
ATOM     12  C   UNL     1     -15.886 -42.997  23.642  1.00  0.00     0.056 C 
ATOM     13  C   UNL     1     -14.765 -43.859  24.211  1.00  0.00     0.007 C 
ATOM     14  C   UNL     1     -14.276 -43.264  25.522  1.00  0.00     0.005 C 
ATOM     15  C   UNL     1     -15.402 -43.252  26.555  1.00  0.00     0.039 C 
ENDROOT
BRANCH   1  16
ATOM     16  N   UNL     1     -17.605 -42.504  28.293  1.00  0.00    -0.398 N 
ATOM     17  H   UNL     1     -18.123 -41.793  28.798  1.00  0.00     0.156 HD
ATOM     18  H   UNL     1     -17.773 -43.419  28.697  1.00  0.00     0.156 HD
ENDBRANCH   1  16
TORSDOF 1
ENDMDL
MODEL 4
REMARK VINA RESULT:    -8.533      7.135     10.326
REMARK INTER + INTRA:          -8.782
REMARK INTER:                  -8.782
REMARK INTRA:                   0.000
REMARK UNBOUND:                 0.000
REMARK SMILES Nc1c2c(nc3cc(Cl)ccc13)CCCC2
REMARK SMILES IDX 2 1 3 2 4 3 5 4 6 5 7 6 8 7 9 8 10 9 11 10 12 11 13 12 14 13
REMARK SMILES IDX 15 14 16 15 1 16
REMARK H PARENT 1 17 1 18
ROOT
ATOM      1  C   UNL     1     -11.042 -44.220  31.436  1.00  0.00     0.046 A 
ATOM      2  C   UNL     1      -9.658 -44.196  31.703  1.00  0.00    -0.003 A 
ATOM      3  C   UNL     1      -8.824 -44.962  30.886  1.00  0.00     0.046 A 
ATOM      4  N   UNL     1      -9.272 -45.659  29.816  1.00  0.00    -0.252 NA
ATOM      5  C   UNL     1     -10.571 -45.601  29.503  1.00  0.00     0.074 A 
ATOM      6  C   UNL     1     -10.987 -46.284  28.369  1.00  0.00     0.049 A 
ATOM      7  C   UNL     1     -12.315 -46.258  27.955  1.00  0.00     0.043 A 
ATOM      8  Cl  UNL     1     -12.790 -47.114  26.541  1.00  0.00    -0.084 Cl
ATOM      9  C   UNL     1     -13.257 -45.538  28.674  1.00  0.00     0.021 A 
ATOM     10  C   UNL     1     -12.858 -44.851  29.819  1.00  0.00     0.014 A 
ATOM     11  C   UNL     1     -11.512 -44.877  30.265  1.00  0.00     0.024 A 
ATOM     12  C   UNL     1      -7.332 -45.022  31.101  1.00  0.00     0.056 C 
ATOM     13  C   UNL     1      -6.907 -44.592  32.500  1.00  0.00     0.007 C 
ATOM     14  C   UNL     1      -7.573 -43.272  32.855  1.00  0.00     0.005 C 
ATOM     15  C   UNL     1      -9.093 -43.429  32.877  1.00  0.00     0.039 C 
ENDROOT
BRANCH   1  16
ATOM     16  N   UNL     1     -11.921 -43.433  32.219  1.00  0.00    -0.398 N 
ATOM     17  H   UNL     1     -11.948 -42.458  31.938  1.00  0.00     0.156 HD
ATOM     18  H   UNL     1     -12.861 -43.809  32.284  1.00  0.00     0.156 HD
ENDBRANCH   1  16
TORSDOF 1
ENDMDL
MODEL 5
REMARK VINA RESULT:    -8.521      5.530      9.051
REMARK INTER + INTRA:          -8.770
REMARK INTER:                  -8.770
REMARK INTRA:                   0.000
REMARK UNBOUND:                 0.000
REMARK SMILES Nc1c2c(nc3cc(Cl)ccc13)CCCC2
REMARK SMILES IDX 2 1 3 2 4 3 5 4 6 5 7 6 8 7 9 8 10 9 11 10 12 11 13 12 14 13
REMARK SMILES IDX 15 14 16 15 1 16
REMARK H PARENT 1 17 1 18
ROOT
ATOM      1  C   UNL     1     -11.720 -45.359  30.010  1.00  0.00     0.046 A 
ATOM      2  C   UNL     1     -10.469 -44.848  30.410  1.00  0.00    -0.003 A 
ATOM      3  C   UNL     1      -9.872 -43.879  29.602  1.00  0.00     0.046 A 
ATOM      4  N   UNL     1     -10.471 -43.360  28.504  1.00  0.00    -0.252 NA
ATOM      5  C   UNL     1     -11.701 -43.771  28.182  1.00  0.00     0.074 A 
ATOM      6  C   UNL     1     -12.307 -43.179  27.082  1.00  0.00     0.049 A 
ATOM      7  C   UNL     1     -13.595 -43.528  26.689  1.00  0.00     0.043 A 
ATOM      8  Cl  UNL     1     -14.312 -42.768  25.323  1.00  0.00    -0.084 Cl
ATOM      9  C   UNL     1     -14.307 -44.482  27.399  1.00  0.00     0.021 A 
ATOM     10  C   UNL     1     -13.713 -45.092  28.504  1.00  0.00     0.014 A 
ATOM     11  C   UNL     1     -12.396 -44.759  28.911  1.00  0.00     0.024 A 
ATOM     12  C   UNL     1      -8.525 -43.285  29.929  1.00  0.00     0.056 C 
ATOM     13  C   UNL     1      -7.707 -44.140  30.889  1.00  0.00     0.007 C 
ATOM     14  C   UNL     1      -8.563 -44.533  32.083  1.00  0.00     0.005 C 
ATOM     15  C   UNL     1      -9.753 -45.380  31.631  1.00  0.00     0.039 C 
ENDROOT
BRANCH   1  16
ATOM     16  N   UNL     1     -12.376 -46.320  30.818  1.00  0.00    -0.398 N 
ATOM     17  H   UNL     1     -13.360 -46.120  30.965  1.00  0.00     0.156 HD
ATOM     18  H   UNL     1     -12.253 -47.275  30.499  1.00  0.00     0.156 HD
ENDBRANCH   1  16
TORSDOF 1
ENDMDL
MODEL 6
REMARK VINA RESULT:    -8.496      8.461     10.672
REMARK INTER + INTRA:          -8.745
REMARK INTER:                  -8.745
REMARK INTRA:                   0.000
REMARK UNBOUND:                 0.000
REMARK SMILES Nc1c2c(nc3cc(Cl)ccc13)CCCC2
REMARK SMILES IDX 2 1 3 2 4 3 5 4 6 5 7 6 8 7 9 8 10 9 11 10 12 11 13 12 14 13
REMARK SMILES IDX 15 14 16 15 1 16
REMARK H PARENT 1 17 1 18
ROOT
ATOM      1  C   UNL     1     -11.521 -45.366  31.402  1.00  0.00     0.046 A 
ATOM      2  C   UNL     1     -10.122 -45.250  31.531  1.00  0.00    -0.003 A 
ATOM      3  C   UNL     1      -9.620 -44.113  32.167  1.00  0.00     0.046 A 
ATOM      4  N   UNL     1     -10.411 -43.166  32.725  1.00  0.00    -0.252 NA
ATOM      5  C   UNL     1     -11.737 -43.328  32.692  1.00  0.00     0.074 A 
ATOM      6  C   UNL     1     -12.516 -42.366  33.320  1.00  0.00     0.049 A 
ATOM      7  C   UNL     1     -13.903 -42.468  33.355  1.00  0.00     0.043 A 
ATOM      8  Cl  UNL     1     -14.833 -41.257  34.148  1.00  0.00    -0.084 Cl
ATOM      9  C   UNL     1     -14.540 -43.545  32.759  1.00  0.00     0.021 A 
ATOM     10  C   UNL     1     -13.774 -44.518  32.118  1.00  0.00     0.014 A 
ATOM     11  C   UNL     1     -12.361 -44.425  32.060  1.00  0.00     0.024 A 
ATOM     12  C   UNL     1      -8.139 -43.881  32.337  1.00  0.00     0.056 C 
ATOM     13  C   UNL     1      -7.287 -44.704  31.378  1.00  0.00     0.007 C 
ATOM     14  C   UNL     1      -7.736 -46.156  31.410  1.00  0.00     0.005 C 
ATOM     15  C   UNL     1      -9.185 -46.277  30.938  1.00  0.00     0.039 C 
ENDROOT
BRANCH   1  16
ATOM     16  N   UNL     1     -12.075 -46.519  30.792  1.00  0.00    -0.398 N 
ATOM     17  H   UNL     1     -13.050 -46.410  30.534  1.00  0.00     0.156 HD
ATOM     18  H   UNL     1     -11.536 -46.864  30.004  1.00  0.00     0.156 HD
ENDBRANCH   1  16
TORSDOF 1
ENDMDL
MODEL 7
REMARK VINA RESULT:    -8.409      5.488      7.849
REMARK INTER + INTRA:          -8.655
REMARK INTER:                  -8.655
REMARK INTRA:                   0.000
REMARK UNBOUND:                 0.000
REMARK SMILES Nc1c2c(nc3cc(Cl)ccc13)CCCC2
REMARK SMILES IDX 2 1 3 2 4 3 5 4 6 5 7 6 8 7 9 8 10 9 11 10 12 11 13 12 14 13
REMARK SMILES IDX 15 14 16 15 1 16
REMARK H PARENT 1 17 1 18
ROOT
ATOM      1  C   UNL     1     -12.532 -45.469  29.634  1.00  0.00     0.046 A 
ATOM      2  C   UNL     1     -12.873 -44.718  28.492  1.00  0.00    -0.003 A 
ATOM      3  C   UNL     1     -11.938 -43.797  28.015  1.00  0.00     0.046 A 
ATOM      4  N   UNL     1     -10.703 -43.651  28.550  1.00  0.00    -0.252 NA
ATOM      5  C   UNL     1     -10.342 -44.436  29.571  1.00  0.00     0.074 A 
ATOM      6  C   UNL     1      -9.051 -44.297  30.060  1.00  0.00     0.049 A 
ATOM      7  C   UNL     1      -8.584 -45.089  31.104  1.00  0.00     0.043 A 
ATOM      8  Cl  UNL     1      -6.975 -44.890  31.680  1.00  0.00    -0.084 Cl
ATOM      9  C   UNL     1      -9.407 -46.045  31.679  1.00  0.00     0.021 A 
ATOM     10  C   UNL     1     -10.710 -46.195  31.204  1.00  0.00     0.014 A 
ATOM     11  C   UNL     1     -11.208 -45.388  30.150  1.00  0.00     0.024 A 
ATOM     12  C   UNL     1     -12.214 -42.929  26.813  1.00  0.00     0.056 C 
ATOM     13  C   UNL     1     -13.697 -42.803  26.488  1.00  0.00     0.007 C 
ATOM     14  C   UNL     1     -14.336 -44.183  26.466  1.00  0.00     0.005 C 
ATOM     15  C   UNL     1     -14.232 -44.841  27.842  1.00  0.00     0.039 C 
ENDROOT
BRANCH   1  16
ATOM     16  N   UNL     1     -13.438 -46.437  30.133  1.00  0.00    -0.398 N 
ATOM     17  H   UNL     1     -14.369 -46.359  29.738  1.00  0.00     0.156 HD
ATOM     18  H   UNL     1     -13.101 -47.391  30.057  1.00  0.00     0.156 HD
ENDBRANCH   1  16
TORSDOF 1
ENDMDL
MODEL 8
REMARK VINA RESULT:    -8.308      7.605      9.742
REMARK INTER + INTRA:          -8.551
REMARK INTER:                  -8.551
REMARK INTRA:                   0.000
REMARK UNBOUND:                 0.000
REMARK SMILES Nc1c2c(nc3cc(Cl)ccc13)CCCC2
REMARK SMILES IDX 2 1 3 2 4 3 5 4 6 5 7 6 8 7 9 8 10 9 11 10 12 11 13 12 14 13
REMARK SMILES IDX 15 14 16 15 1 16
REMARK H PARENT 1 17 1 18
ROOT
ATOM      1  C   UNL     1     -11.578 -43.994  31.175  1.00  0.00     0.046 A 
ATOM      2  C   UNL     1     -11.717 -44.913  30.116  1.00  0.00    -0.003 A 
ATOM      3  C   UNL     1     -10.553 -45.471  29.582  1.00  0.00     0.046 A 
ATOM      4  N   UNL     1      -9.319 -45.227  30.082  1.00  0.00    -0.252 NA
ATOM      5  C   UNL     1      -9.197 -44.434  31.151  1.00  0.00     0.074 A 
ATOM      6  C   UNL     1      -7.924 -44.249  31.670  1.00  0.00     0.049 A 
ATOM      7  C   UNL     1      -7.708 -43.460  32.795  1.00  0.00     0.043 A 
ATOM      8  Cl  UNL     1      -6.114 -43.259  33.410  1.00  0.00    -0.084 Cl
ATOM      9  C   UNL     1      -8.774 -42.840  33.428  1.00  0.00     0.021 A 
ATOM     10  C   UNL     1     -10.060 -43.009  32.917  1.00  0.00     0.014 A 
ATOM     11  C   UNL     1     -10.298 -43.798  31.764  1.00  0.00     0.024 A 
ATOM     12  C   UNL     1     -10.590 -46.447  28.433  1.00  0.00     0.056 C 
ATOM     13  C   UNL     1     -11.889 -46.393  27.638  1.00  0.00     0.007 C 
ATOM     14  C   UNL     1     -13.075 -46.447  28.589  1.00  0.00     0.005 C 
ATOM     15  C   UNL     1     -13.068 -45.234  29.519  1.00  0.00     0.039 C 
ENDROOT
BRANCH   1  16
ATOM     16  N   UNL     1     -12.735 -43.429  31.768  1.00  0.00    -0.398 N 
ATOM     17  H   UNL     1     -13.185 -42.729  31.187  1.00  0.00     0.156 HD
ATOM     18  H   UNL     1     -13.411 -44.116  32.083  1.00  0.00     0.156 HD
ENDBRANCH   1  16
TORSDOF 1
ENDMDL
MODEL 9
REMARK VINA RESULT:    -8.101      7.432      9.714
REMARK INTER + INTRA:          -8.338
REMARK INTER:                  -8.338
REMARK INTRA:                   0.000
REMARK UNBOUND:                 0.000
REMARK SMILES Nc1c2c(nc3cc(Cl)ccc13)CCCC2
REMARK SMILES IDX 2 1 3 2 4 3 5 4 6 5 7 6 8 7 9 8 10 9 11 10 12 11 13 12 14 13
REMARK SMILES IDX 15 14 16 15 1 16
REMARK H PARENT 1 17 1 18
ROOT
ATOM      1  C   UNL     1      -9.577 -45.346  30.678  1.00  0.00     0.046 A 
ATOM      2  C   UNL     1     -10.667 -45.559  29.810  1.00  0.00    -0.003 A 
ATOM      3  C   UNL     1     -11.873 -44.924  30.112  1.00  0.00     0.046 A 
ATOM      4  N   UNL     1     -12.018 -44.064  31.147  1.00  0.00    -0.252 NA
ATOM      5  C   UNL     1     -10.956 -43.783  31.910  1.00  0.00     0.074 A 
ATOM      6  C   UNL     1     -11.127 -42.857  32.929  1.00  0.00     0.049 A 
ATOM      7  C   UNL     1     -10.070 -42.487  33.756  1.00  0.00     0.043 A 
ATOM      8  Cl  UNL     1     -10.321 -41.331  35.005  1.00  0.00    -0.084 Cl
ATOM      9  C   UNL     1      -8.813 -43.042  33.573  1.00  0.00     0.021 A 
ATOM     10  C   UNL     1      -8.625 -43.980  32.558  1.00  0.00     0.014 A 
ATOM     11  C   UNL     1      -9.692 -44.379  31.714  1.00  0.00     0.024 A 
ATOM     12  C   UNL     1     -13.105 -45.103  29.261  1.00  0.00     0.056 C 
ATOM     13  C   UNL     1     -13.054 -46.347  28.381  1.00  0.00     0.007 C 
ATOM     14  C   UNL     1     -11.727 -46.398  27.642  1.00  0.00     0.005 C 
ATOM     15  C   UNL     1     -10.567 -46.501  28.632  1.00  0.00     0.039 C 
ENDROOT
BRANCH   1  16
ATOM     16  N   UNL     1      -8.326 -45.946  30.391  1.00  0.00    -0.398 N 
ATOM     17  H   UNL     1      -7.721 -45.364  29.821  1.00  0.00     0.156 HD
ATOM     18  H   UNL     1      -7.829 -46.271  31.214  1.00  0.00     0.156 HD
ENDBRANCH   1  16
TORSDOF 1
ENDMDL
