MODEL 1
REMARK VINA RESULT:   -10.955      0.000      0.000
REMARK INTER + INTRA:         -16.779
REMARK INTER:                 -15.758
REMARK INTRA:                  -1.021
REMARK UNBOUND:                -1.021
REMARK SMILES COc1cc(/C=C/c2nnc(-c3ccc(OC(F)(F)F)cc3)o2)ccc1O
REMARK SMILES IDX 8 1 9 2 10 3 11 4 23 5 7 6 6 7 5 8 3 9 4 10 26 11 25 12
REMARK SMILES IDX 24 13 2 14 1 15 27 16 12 18 13 19 22 20 14 21 21 22 15 23
REMARK SMILES IDX 16 24 17 25 18 26 19 27 20 28
REMARK H PARENT 27 17
ROOT
ATOM      1  C   UNL     1     -13.026 -45.509  29.483  1.00  0.00     0.241 A 
ATOM      2  N   UNL     1     -12.463 -46.425  28.707  1.00  0.00    -0.108 NA
ATOM      3  N   UNL     1     -12.738 -46.099  27.397  1.00  0.00    -0.107 NA
ATOM      4  C   UNL     1     -13.456 -44.998  27.434  1.00  0.00     0.248 A 
ATOM      5  O   UNL     1     -13.680 -44.565  28.711  1.00  0.00    -0.417 OA
ENDROOT
BRANCH   1   6
ATOM      6  C   UNL     1     -13.006 -45.437  30.903  1.00  0.00     0.071 C 
BRANCH   6   7
ATOM      7  C   UNL     1     -12.172 -44.604  31.546  1.00  0.00     0.014 C 
BRANCH   7   8
ATOM      8  C   UNL     1     -10.730 -44.527  31.271  1.00  0.00    -0.022 A 
ATOM      9  C   UNL     1      -8.892 -43.380  30.152  1.00  0.00     0.161 A 
ATOM     10  C   UNL     1     -10.252 -43.484  30.461  1.00  0.00     0.058 A 
ATOM     11  C   UNL     1      -8.011 -44.347  30.656  1.00  0.00     0.157 A 
ATOM     12  C   UNL     1      -8.472 -45.398  31.447  1.00  0.00     0.051 A 
ATOM     13  C   UNL     1      -9.832 -45.488  31.749  1.00  0.00     0.012 A 
BRANCH   9  14
ATOM     14  O   UNL     1      -8.332 -42.396  29.381  1.00  0.00    -0.493 OA
ATOM     15  C   UNL     1      -8.683 -42.359  28.006  1.00  0.00     0.278 C 
ENDBRANCH   9  14
BRANCH  11  16
ATOM     16  O   UNL     1      -6.677 -44.256  30.359  1.00  0.00    -0.504 OA
ATOM     17  H   UNL     1      -6.272 -45.133  30.438  1.00  0.00     0.293 HD
ENDBRANCH  11  16
ENDBRANCH   7   8
ENDBRANCH   6   7
ENDBRANCH   1   6
BRANCH   4  18
ATOM     18  C   UNL     1     -14.022 -44.211  26.346  1.00  0.00     0.039 A 
ATOM     19  C   UNL     1     -14.287 -42.848  26.539  1.00  0.00     0.017 A 
ATOM     20  C   UNL     1     -14.316 -44.772  25.097  1.00  0.00     0.017 A 
ATOM     21  C   UNL     1     -14.831 -42.061  25.514  1.00  0.00     0.047 A 
ATOM     22  C   UNL     1     -14.860 -43.987  24.074  1.00  0.00     0.047 A 
ATOM     23  C   UNL     1     -15.120 -42.629  24.273  1.00  0.00     0.129 A 
BRANCH  23  24
ATOM     24  O   UNL     1     -15.649 -41.990  23.189  1.00  0.00    -0.406 OA
BRANCH  24  25
ATOM     25  C   UNL     1     -17.056 -42.019  23.025  1.00  0.00     0.573 C 
ATOM     26  F   UNL     1     -17.687 -41.935  24.215  1.00  0.00    -0.132 F 
ATOM     27  F   UNL     1     -17.426 -40.955  22.278  1.00  0.00    -0.132 F 
ATOM     28  F   UNL     1     -17.449 -43.140  22.383  1.00  0.00    -0.132 F 
ENDBRANCH  24  25
ENDBRANCH  23  24
ENDBRANCH   4  18
TORSDOF 8
ENDMDL
MODEL 2
REMARK VINA RESULT:   -10.929      1.891      2.312
REMARK INTER + INTRA:         -16.742
REMARK INTER:                 -16.080
REMARK INTRA:                  -0.662
REMARK UNBOUND:                -1.021
REMARK SMILES COc1cc(/C=C/c2nnc(-c3ccc(OC(F)(F)F)cc3)o2)ccc1O
REMARK SMILES IDX 8 1 9 2 10 3 11 4 23 5 7 6 6 7 5 8 3 9 4 10 26 11 25 12
REMARK SMILES IDX 24 13 2 14 1 15 27 16 12 18 13 19 22 20 14 21 21 22 15 23
REMARK SMILES IDX 16 24 17 25 18 26 19 27 20 28
REMARK H PARENT 27 17
ROOT
ATOM      1  C   UNL     1     -12.274 -45.693  29.394  1.00  0.00     0.241 A 
ATOM      2  N   UNL     1     -11.939 -46.543  28.433  1.00  0.00    -0.108 NA
ATOM      3  N   UNL     1     -12.635 -46.193  27.296  1.00  0.00    -0.107 NA
ATOM      4  C   UNL     1     -13.362 -45.146  27.616  1.00  0.00     0.248 A 
ATOM      5  O   UNL     1     -13.190 -44.771  28.920  1.00  0.00    -0.417 OA
ENDROOT
BRANCH   1   6
ATOM      6  C   UNL     1     -11.806 -45.666  30.736  1.00  0.00     0.071 C 
BRANCH   6   7
ATOM      7  C   UNL     1     -10.638 -46.233  31.078  1.00  0.00     0.014 C 
BRANCH   7   8
ATOM      8  C   UNL     1      -9.484 -45.475  31.583  1.00  0.00    -0.022 A 
ATOM      9  C   UNL     1      -8.649 -43.516  32.771  1.00  0.00     0.161 A 
ATOM     10  C   UNL     1      -9.715 -44.284  32.291  1.00  0.00     0.058 A 
ATOM     11  C   UNL     1      -7.339 -43.950  32.522  1.00  0.00     0.157 A 
ATOM     12  C   UNL     1      -7.094 -45.122  31.807  1.00  0.00     0.051 A 
ATOM     13  C   UNL     1      -8.167 -45.879  31.335  1.00  0.00     0.012 A 
BRANCH   9  14
ATOM     14  O   UNL     1      -8.775 -42.349  33.478  1.00  0.00    -0.493 OA
ATOM     15  C   UNL     1     -10.001 -42.121  34.157  1.00  0.00     0.278 C 
ENDBRANCH   9  14
BRANCH  11  16
ATOM     16  O   UNL     1      -6.289 -43.206  32.987  1.00  0.00    -0.504 OA
ATOM     17  H   UNL     1      -6.618 -42.544  33.614  1.00  0.00     0.293 HD
ENDBRANCH  11  16
ENDBRANCH   7   8
ENDBRANCH   6   7
ENDBRANCH   1   6
BRANCH   4  18
ATOM     18  C   UNL     1     -14.287 -44.364  26.806  1.00  0.00     0.039 A 
ATOM     19  C   UNL     1     -15.224 -43.529  27.432  1.00  0.00     0.017 A 
ATOM     20  C   UNL     1     -14.278 -44.416  25.407  1.00  0.00     0.017 A 
ATOM     21  C   UNL     1     -16.129 -42.763  26.683  1.00  0.00     0.047 A 
ATOM     22  C   UNL     1     -15.181 -43.652  24.660  1.00  0.00     0.047 A 
ATOM     23  C   UNL     1     -16.112 -42.821  25.290  1.00  0.00     0.129 A 
BRANCH  23  24
ATOM     24  O   UNL     1     -16.927 -42.137  24.437  1.00  0.00    -0.406 OA
BRANCH  24  25
ATOM     25  C   UNL     1     -18.324 -42.191  24.669  1.00  0.00     0.573 C 
ATOM     26  F   UNL     1     -19.008 -41.598  23.667  1.00  0.00    -0.132 F 
ATOM     27  F   UNL     1     -18.703 -43.487  24.726  1.00  0.00    -0.132 F 
ATOM     28  F   UNL     1     -18.646 -41.607  25.843  1.00  0.00    -0.132 F 
ENDBRANCH  24  25
ENDBRANCH  23  24
ENDBRANCH   4  18
TORSDOF 8
ENDMDL
MODEL 3
REMARK VINA RESULT:   -10.711      1.854      2.505
REMARK INTER + INTRA:         -16.428
REMARK INTER:                 -15.957
REMARK INTRA:                  -0.471
REMARK UNBOUND:                -1.021
REMARK SMILES COc1cc(/C=C/c2nnc(-c3ccc(OC(F)(F)F)cc3)o2)ccc1O
REMARK SMILES IDX 8 1 9 2 10 3 11 4 23 5 7 6 6 7 5 8 3 9 4 10 26 11 25 12
REMARK SMILES IDX 24 13 2 14 1 15 27 16 12 18 13 19 22 20 14 21 21 22 15 23
REMARK SMILES IDX 16 24 17 25 18 26 19 27 20 28
REMARK H PARENT 27 17
ROOT
ATOM      1  C   UNL     1     -13.167 -44.754  27.522  1.00  0.00     0.241 A 
ATOM      2  N   UNL     1     -12.802 -43.490  27.687  1.00  0.00    -0.108 NA
ATOM      3  N   UNL     1     -13.644 -42.703  26.931  1.00  0.00    -0.107 NA
ATOM      4  C   UNL     1     -14.484 -43.524  26.340  1.00  0.00     0.248 A 
ATOM      5  O   UNL     1     -14.248 -44.832  26.661  1.00  0.00    -0.417 OA
ENDROOT
BRANCH   1   6
ATOM      6  C   UNL     1     -12.586 -45.913  28.107  1.00  0.00     0.071 C 
BRANCH   6   7
ATOM      7  C   UNL     1     -11.257 -46.097  28.115  1.00  0.00     0.014 C 
BRANCH   7   8
ATOM      8  C   UNL     1     -10.335 -45.324  28.960  1.00  0.00    -0.022 A 
ATOM      9  C   UNL     1      -8.913 -43.359  29.218  1.00  0.00     0.161 A 
ATOM     10  C   UNL     1      -9.811 -44.120  28.461  1.00  0.00     0.058 A 
ATOM     11  C   UNL     1      -8.532 -43.828  30.483  1.00  0.00     0.157 A 
ATOM     12  C   UNL     1      -9.030 -45.030  30.985  1.00  0.00     0.051 A 
ATOM     13  C   UNL     1      -9.927 -45.777  30.220  1.00  0.00     0.012 A 
BRANCH   9  14
ATOM     14  O   UNL     1      -8.358 -42.171  28.822  1.00  0.00    -0.493 OA
ATOM     15  C   UNL     1      -8.201 -41.952  27.428  1.00  0.00     0.278 C 
ENDBRANCH   9  14
BRANCH  11  16
ATOM     16  O   UNL     1      -7.652 -43.093  31.232  1.00  0.00    -0.504 OA
ATOM     17  H   UNL     1      -8.147 -42.547  31.862  1.00  0.00     0.293 HD
ENDBRANCH  11  16
ENDBRANCH   7   8
ENDBRANCH   6   7
ENDBRANCH   1   6
BRANCH   4  18
ATOM     18  C   UNL     1     -15.584 -43.242  25.428  1.00  0.00     0.039 A 
ATOM     19  C   UNL     1     -15.416 -43.449  24.051  1.00  0.00     0.017 A 
ATOM     20  C   UNL     1     -16.821 -42.765  25.878  1.00  0.00     0.017 A 
ATOM     21  C   UNL     1     -16.453 -43.188  23.145  1.00  0.00     0.047 A 
ATOM     22  C   UNL     1     -17.856 -42.503  24.974  1.00  0.00     0.047 A 
ATOM     23  C   UNL     1     -17.681 -42.713  23.603  1.00  0.00     0.129 A 
BRANCH  23  24
ATOM     24  O   UNL     1     -18.775 -42.417  22.843  1.00  0.00    -0.406 OA
BRANCH  24  25
ATOM     25  C   UNL     1     -18.939 -41.076  22.413  1.00  0.00     0.573 C 
ATOM     26  F   UNL     1     -17.753 -40.434  22.355  1.00  0.00    -0.132 F 
ATOM     27  F   UNL     1     -19.474 -41.082  21.172  1.00  0.00    -0.132 F 
ATOM     28  F   UNL     1     -19.778 -40.402  23.229  1.00  0.00    -0.132 F 
ENDBRANCH  24  25
ENDBRANCH  23  24
ENDBRANCH   4  18
TORSDOF 8
ENDMDL
MODEL 4
REMARK VINA RESULT:   -10.391      2.330      3.208
REMARK INTER + INTRA:         -15.968
REMARK INTER:                 -15.145
REMARK INTRA:                  -0.823
REMARK UNBOUND:                -1.021
REMARK SMILES COc1cc(/C=C/c2nnc(-c3ccc(OC(F)(F)F)cc3)o2)ccc1O
REMARK SMILES IDX 8 1 9 2 10 3 11 4 23 5 7 6 6 7 5 8 3 9 4 10 26 11 25 12
REMARK SMILES IDX 24 13 2 14 1 15 27 16 12 18 13 19 22 20 14 21 21 22 15 23
REMARK SMILES IDX 16 24 17 25 18 26 19 27 20 28
REMARK H PARENT 27 17
ROOT
ATOM      1  C   UNL     1     -13.139 -44.779  27.362  1.00  0.00     0.241 A 
ATOM      2  N   UNL     1     -12.696 -43.532  27.447  1.00  0.00    -0.108 NA
ATOM      3  N   UNL     1     -13.529 -42.733  26.695  1.00  0.00    -0.107 NA
ATOM      4  C   UNL     1     -14.443 -43.530  26.185  1.00  0.00     0.248 A 
ATOM      5  O   UNL     1     -14.265 -44.833  26.558  1.00  0.00    -0.417 OA
ENDROOT
BRANCH   1   6
ATOM      6  C   UNL     1     -12.596 -45.942  27.974  1.00  0.00     0.071 C 
BRANCH   6   7
ATOM      7  C   UNL     1     -12.771 -46.186  29.283  1.00  0.00     0.014 C 
BRANCH   7   8
ATOM      8  C   UNL     1     -12.092 -45.433  30.347  1.00  0.00    -0.022 A 
ATOM      9  C   UNL     1     -12.089 -43.513  31.851  1.00  0.00     0.161 A 
ATOM     10  C   UNL     1     -12.706 -44.276  30.854  1.00  0.00     0.058 A 
ATOM     11  C   UNL     1     -10.834 -43.916  32.329  1.00  0.00     0.157 A 
ATOM     12  C   UNL     1     -10.204 -45.053  31.824  1.00  0.00     0.051 A 
ATOM     13  C   UNL     1     -10.832 -45.806  30.830  1.00  0.00     0.012 A 
BRANCH   9  14
ATOM     14  O   UNL     1     -12.613 -42.378  32.413  1.00  0.00    -0.493 OA
ATOM     15  C   UNL     1     -13.805 -42.512  33.173  1.00  0.00     0.278 C 
ENDBRANCH   9  14
BRANCH  11  16
ATOM     16  O   UNL     1     -10.221 -43.176  33.304  1.00  0.00    -0.504 OA
ATOM     17  H   UNL     1     -10.487 -42.249  33.216  1.00  0.00     0.293 HD
ENDBRANCH  11  16
ENDBRANCH   7   8
ENDBRANCH   6   7
ENDBRANCH   1   6
BRANCH   4  18
ATOM     18  C   UNL     1     -15.570 -43.226  25.313  1.00  0.00     0.039 A 
ATOM     19  C   UNL     1     -16.757 -42.719  25.862  1.00  0.00     0.017 A 
ATOM     20  C   UNL     1     -15.514 -43.423  23.928  1.00  0.00     0.017 A 
ATOM     21  C   UNL     1     -17.860 -42.416  25.053  1.00  0.00     0.047 A 
ATOM     22  C   UNL     1     -16.616 -43.121  23.120  1.00  0.00     0.047 A 
ATOM     23  C   UNL     1     -17.795 -42.616  23.675  1.00  0.00     0.129 A 
BRANCH  23  24
ATOM     24  O   UNL     1     -18.784 -42.367  22.768  1.00  0.00    -0.406 OA
BRANCH  24  25
ATOM     25  C   UNL     1     -18.974 -41.027  22.346  1.00  0.00     0.573 C 
ATOM     26  F   UNL     1     -19.569 -40.977  21.136  1.00  0.00    -0.132 F 
ATOM     27  F   UNL     1     -19.777 -40.404  23.236  1.00  0.00    -0.132 F 
ATOM     28  F   UNL     1     -17.801 -40.361  22.300  1.00  0.00    -0.132 F 
ENDBRANCH  24  25
ENDBRANCH  23  24
ENDBRANCH   4  18
TORSDOF 8
ENDMDL
MODEL 5
REMARK VINA RESULT:   -10.247      2.183      3.495
REMARK INTER + INTRA:         -15.760
REMARK INTER:                 -15.099
REMARK INTRA:                  -0.662
REMARK UNBOUND:                -1.021
REMARK SMILES COc1cc(/C=C/c2nnc(-c3ccc(OC(F)(F)F)cc3)o2)ccc1O
REMARK SMILES IDX 8 1 9 2 10 3 11 4 23 5 7 6 6 7 5 8 3 9 4 10 26 11 25 12
REMARK SMILES IDX 24 13 2 14 1 15 27 16 12 18 13 19 22 20 14 21 21 22 15 23
REMARK SMILES IDX 16 24 17 25 18 26 19 27 20 28
REMARK H PARENT 27 17
ROOT
ATOM      1  C   UNL     1     -14.272 -44.320  27.285  1.00  0.00     0.241 A 
ATOM      2  N   UNL     1     -14.895 -43.629  28.230  1.00  0.00    -0.108 NA
ATOM      3  N   UNL     1     -15.942 -42.954  27.642  1.00  0.00    -0.107 NA
ATOM      4  C   UNL     1     -15.910 -43.264  26.365  1.00  0.00     0.248 A 
ATOM      5  O   UNL     1     -14.887 -44.119  26.061  1.00  0.00    -0.417 OA
ENDROOT
BRANCH   1   6
ATOM      6  C   UNL     1     -13.136 -45.164  27.425  1.00  0.00     0.071 C 
BRANCH   6   7
ATOM      7  C   UNL     1     -12.284 -45.019  28.452  1.00  0.00     0.014 C 
BRANCH   7   8
ATOM      8  C   UNL     1     -11.131 -44.107  28.429  1.00  0.00    -0.022 A 
ATOM      9  C   UNL     1      -8.954 -43.494  29.341  1.00  0.00     0.161 A 
ATOM     10  C   UNL     1     -10.064 -44.346  29.310  1.00  0.00     0.058 A 
ATOM     11  C   UNL     1      -8.931 -42.385  28.484  1.00  0.00     0.157 A 
ATOM     12  C   UNL     1      -9.991 -42.125  27.616  1.00  0.00     0.051 A 
ATOM     13  C   UNL     1     -11.091 -42.985  27.594  1.00  0.00     0.012 A 
BRANCH   9  14
ATOM     14  O   UNL     1      -7.864 -43.650  30.156  1.00  0.00    -0.493 OA
ATOM     15  C   UNL     1      -7.739 -44.878  30.858  1.00  0.00     0.278 C 
ENDBRANCH   9  14
BRANCH  11  16
ATOM     16  O   UNL     1      -7.851 -41.544  28.507  1.00  0.00    -0.504 OA
ATOM     17  H   UNL     1      -7.371 -41.664  29.340  1.00  0.00     0.293 HD
ENDBRANCH  11  16
ENDBRANCH   7   8
ENDBRANCH   6   7
ENDBRANCH   1   6
BRANCH   4  18
ATOM     18  C   UNL     1     -16.779 -42.839  25.275  1.00  0.00     0.039 A 
ATOM     19  C   UNL     1     -16.322 -42.914  23.952  1.00  0.00     0.017 A 
ATOM     20  C   UNL     1     -18.071 -42.349  25.501  1.00  0.00     0.017 A 
ATOM     21  C   UNL     1     -17.132 -42.513  22.880  1.00  0.00     0.047 A 
ATOM     22  C   UNL     1     -18.879 -41.949  24.432  1.00  0.00     0.047 A 
ATOM     23  C   UNL     1     -18.417 -42.027  23.115  1.00  0.00     0.129 A 
BRANCH  23  24
ATOM     24  O   UNL     1     -19.312 -41.603  22.176  1.00  0.00    -0.406 OA
BRANCH  24  25
ATOM     25  C   UNL     1     -19.115 -40.321  21.605  1.00  0.00     0.573 C 
ATOM     26  F   UNL     1     -20.021 -39.436  22.073  1.00  0.00    -0.132 F 
ATOM     27  F   UNL     1     -17.884 -39.880  21.946  1.00  0.00    -0.132 F 
ATOM     28  F   UNL     1     -19.187 -40.371  20.258  1.00  0.00    -0.132 F 
ENDBRANCH  24  25
ENDBRANCH  23  24
ENDBRANCH   4  18
TORSDOF 8
ENDMDL
MODEL 6
REMARK VINA RESULT:   -10.156      5.189      9.727
REMARK INTER + INTRA:         -15.631
REMARK INTER:                 -14.795
REMARK INTRA:                  -0.835
REMARK UNBOUND:                -1.021
REMARK SMILES COc1cc(/C=C/c2nnc(-c3ccc(OC(F)(F)F)cc3)o2)ccc1O
REMARK SMILES IDX 8 1 9 2 10 3 11 4 23 5 7 6 6 7 5 8 3 9 4 10 26 11 25 12
REMARK SMILES IDX 24 13 2 14 1 15 27 16 12 18 13 19 22 20 14 21 21 22 15 23
REMARK SMILES IDX 16 24 17 25 18 26 19 27 20 28
REMARK H PARENT 27 17
ROOT
ATOM      1  C   UNL     1     -14.130 -43.422  26.400  1.00  0.00     0.241 A 
ATOM      2  N   UNL     1     -14.282 -44.723  26.608  1.00  0.00    -0.108 NA
ATOM      3  N   UNL     1     -13.220 -45.158  27.371  1.00  0.00    -0.107 NA
ATOM      4  C   UNL     1     -12.469 -44.102  27.594  1.00  0.00     0.248 A 
ATOM      5  O   UNL     1     -12.974 -42.972  27.016  1.00  0.00    -0.417 OA
ENDROOT
BRANCH   1   6
ATOM      6  C   UNL     1     -14.980 -42.550  25.668  1.00  0.00     0.071 C 
BRANCH   6   7
ATOM      7  C   UNL     1     -16.171 -42.964  25.206  1.00  0.00     0.014 C 
BRANCH   7   8
ATOM      8  C   UNL     1     -17.457 -42.501  25.746  1.00  0.00    -0.022 A 
ATOM      9  C   UNL     1     -19.681 -41.595  25.318  1.00  0.00     0.161 A 
ATOM     10  C   UNL     1     -18.448 -42.065  24.852  1.00  0.00     0.058 A 
ATOM     11  C   UNL     1     -19.906 -41.553  26.701  1.00  0.00     0.157 A 
ATOM     12  C   UNL     1     -18.926 -41.966  27.603  1.00  0.00     0.051 A 
ATOM     13  C   UNL     1     -17.702 -42.435  27.123  1.00  0.00     0.012 A 
BRANCH   9  14
ATOM     14  O   UNL     1     -20.709 -41.160  24.525  1.00  0.00    -0.493 OA
ATOM     15  C   UNL     1     -21.317 -42.106  23.658  1.00  0.00     0.278 C 
ENDBRANCH   9  14
BRANCH  11  16
ATOM     16  O   UNL     1     -21.108 -41.093  27.169  1.00  0.00    -0.504 OA
ATOM     17  H   UNL     1     -21.004 -40.178  27.471  1.00  0.00     0.293 HD
ENDBRANCH  11  16
ENDBRANCH   7   8
ENDBRANCH   6   7
ENDBRANCH   1   6
BRANCH   4  18
ATOM     18  C   UNL     1     -11.225 -43.979  28.342  1.00  0.00     0.039 A 
ATOM     19  C   UNL     1     -10.771 -45.055  29.118  1.00  0.00     0.017 A 
ATOM     20  C   UNL     1     -10.453 -42.811  28.315  1.00  0.00     0.017 A 
ATOM     21  C   UNL     1      -9.578 -44.971  29.850  1.00  0.00     0.047 A 
ATOM     22  C   UNL     1      -9.263 -42.726  29.046  1.00  0.00     0.047 A 
ATOM     23  C   UNL     1      -8.816 -43.803  29.817  1.00  0.00     0.129 A 
BRANCH  23  24
ATOM     24  O   UNL     1      -7.641 -43.579  30.474  1.00  0.00    -0.406 OA
BRANCH  24  25
ATOM     25  C   UNL     1      -7.639 -43.696  31.887  1.00  0.00     0.573 C 
ATOM     26  F   UNL     1      -8.847 -43.385  32.403  1.00  0.00    -0.132 F 
ATOM     27  F   UNL     1      -7.361 -44.978  32.213  1.00  0.00    -0.132 F 
ATOM     28  F   UNL     1      -6.695 -42.906  32.440  1.00  0.00    -0.132 F 
ENDBRANCH  24  25
ENDBRANCH  23  24
ENDBRANCH   4  18
TORSDOF 8
ENDMDL
MODEL 7
REMARK VINA RESULT:    -9.985      4.894     10.008
REMARK INTER + INTRA:         -15.384
REMARK INTER:                 -14.698
REMARK INTRA:                  -0.686
REMARK UNBOUND:                -1.021
REMARK SMILES COc1cc(/C=C/c2nnc(-c3ccc(OC(F)(F)F)cc3)o2)ccc1O
REMARK SMILES IDX 8 1 9 2 10 3 11 4 23 5 7 6 6 7 5 8 3 9 4 10 26 11 25 12
REMARK SMILES IDX 24 13 2 14 1 15 27 16 12 18 13 19 22 20 14 21 21 22 15 23
REMARK SMILES IDX 16 24 17 25 18 26 19 27 20 28
REMARK H PARENT 27 17
ROOT
ATOM      1  C   UNL     1     -13.780 -43.467  26.627  1.00  0.00     0.241 A 
ATOM      2  N   UNL     1     -13.885 -44.780  26.778  1.00  0.00    -0.108 NA
ATOM      3  N   UNL     1     -12.818 -45.207  27.538  1.00  0.00    -0.107 NA
ATOM      4  C   UNL     1     -12.110 -44.134  27.816  1.00  0.00     0.248 A 
ATOM      5  O   UNL     1     -12.651 -43.000  27.277  1.00  0.00    -0.417 OA
ENDROOT
BRANCH   1   6
ATOM      6  C   UNL     1     -14.654 -42.598  25.919  1.00  0.00     0.071 C 
BRANCH   6   7
ATOM      7  C   UNL     1     -15.872 -43.003  25.527  1.00  0.00     0.014 C 
BRANCH   7   8
ATOM      8  C   UNL     1     -16.619 -42.381  24.424  1.00  0.00    -0.022 A 
ATOM      9  C   UNL     1     -18.778 -41.851  23.422  1.00  0.00     0.161 A 
ATOM     10  C   UNL     1     -18.023 -42.409  24.458  1.00  0.00     0.058 A 
ATOM     11  C   UNL     1     -18.108 -41.271  22.335  1.00  0.00     0.157 A 
ATOM     12  C   UNL     1     -16.714 -41.250  22.279  1.00  0.00     0.051 A 
ATOM     13  C   UNL     1     -15.973 -41.809  23.321  1.00  0.00     0.012 A 
BRANCH   9  14
ATOM     14  O   UNL     1     -20.147 -41.822  23.372  1.00  0.00    -0.493 OA
ATOM     15  C   UNL     1     -20.812 -40.834  24.146  1.00  0.00     0.278 C 
ENDBRANCH   9  14
BRANCH  11  16
ATOM     16  O   UNL     1     -18.837 -40.723  21.315  1.00  0.00    -0.504 OA
ATOM     17  H   UNL     1     -18.757 -39.757  21.347  1.00  0.00     0.293 HD
ENDBRANCH  11  16
ENDBRANCH   7   8
ENDBRANCH   6   7
ENDBRANCH   1   6
BRANCH   4  18
ATOM     18  C   UNL     1     -10.881 -43.996  28.585  1.00  0.00     0.039 A 
ATOM     19  C   UNL     1     -10.508 -45.003  29.486  1.00  0.00     0.017 A 
ATOM     20  C   UNL     1     -10.046 -42.879  28.459  1.00  0.00     0.017 A 
ATOM     21  C   UNL     1      -9.332 -44.903  30.243  1.00  0.00     0.047 A 
ATOM     22  C   UNL     1      -8.872 -42.778  29.214  1.00  0.00     0.047 A 
ATOM     23  C   UNL     1      -8.506 -43.787  30.110  1.00  0.00     0.129 A 
BRANCH  23  24
ATOM     24  O   UNL     1      -7.338 -43.554  30.776  1.00  0.00    -0.406 OA
BRANCH  24  25
ATOM     25  C   UNL     1      -7.361 -43.611  32.193  1.00  0.00     0.573 C 
ATOM     26  F   UNL     1      -8.578 -43.279  32.674  1.00  0.00    -0.132 F 
ATOM     27  F   UNL     1      -7.089 -44.878  32.578  1.00  0.00    -0.132 F 
ATOM     28  F   UNL     1      -6.427 -42.798  32.728  1.00  0.00    -0.132 F 
ENDBRANCH  24  25
ENDBRANCH  23  24
ENDBRANCH   4  18
TORSDOF 8
ENDMDL
MODEL 8
REMARK VINA RESULT:    -9.903      3.041      4.668
REMARK INTER + INTRA:         -15.266
REMARK INTER:                 -14.378
REMARK INTRA:                  -0.888
REMARK UNBOUND:                -1.021
REMARK SMILES COc1cc(/C=C/c2nnc(-c3ccc(OC(F)(F)F)cc3)o2)ccc1O
REMARK SMILES IDX 8 1 9 2 10 3 11 4 23 5 7 6 6 7 5 8 3 9 4 10 26 11 25 12
REMARK SMILES IDX 24 13 2 14 1 15 27 16 12 18 13 19 22 20 14 21 21 22 15 23
REMARK SMILES IDX 16 24 17 25 18 26 19 27 20 28
REMARK H PARENT 27 17
ROOT
ATOM      1  C   UNL     1     -14.891 -43.599  26.645  1.00  0.00     0.241 A 
ATOM      2  N   UNL     1     -15.494 -43.125  27.726  1.00  0.00    -0.108 NA
ATOM      3  N   UNL     1     -16.696 -42.576  27.335  1.00  0.00    -0.107 NA
ATOM      4  C   UNL     1     -16.770 -42.740  26.033  1.00  0.00     0.248 A 
ATOM      5  O   UNL     1     -15.672 -43.375  25.524  1.00  0.00    -0.417 OA
ENDROOT
BRANCH   1   6
ATOM      6  C   UNL     1     -13.630 -44.251  26.564  1.00  0.00     0.071 C 
BRANCH   6   7
ATOM      7  C   UNL     1     -13.441 -45.468  27.097  1.00  0.00     0.014 C 
BRANCH   7   8
ATOM      8  C   UNL     1     -12.528 -45.731  28.219  1.00  0.00    -0.022 A 
ATOM      9  C   UNL     1     -12.065 -45.534  30.606  1.00  0.00     0.161 A 
ATOM     10  C   UNL     1     -12.909 -45.327  29.509  1.00  0.00     0.058 A 
ATOM     11  C   UNL     1     -10.820 -46.142  30.392  1.00  0.00     0.157 A 
ATOM     12  C   UNL     1     -10.420 -46.533  29.115  1.00  0.00     0.051 A 
ATOM     13  C   UNL     1     -11.273 -46.322  28.031  1.00  0.00     0.012 A 
BRANCH   9  14
ATOM     14  O   UNL     1     -12.353 -45.185  31.899  1.00  0.00    -0.493 OA
ATOM     15  C   UNL     1     -13.697 -44.842  32.203  1.00  0.00     0.278 C 
ENDBRANCH   9  14
BRANCH  11  16
ATOM     16  O   UNL     1      -9.985 -46.349  31.458  1.00  0.00    -0.504 OA
ATOM     17  H   UNL     1     -10.515 -46.471  32.260  1.00  0.00     0.293 HD
ENDBRANCH  11  16
ENDBRANCH   7   8
ENDBRANCH   6   7
ENDBRANCH   1   6
BRANCH   4  18
ATOM     18  C   UNL     1     -17.819 -42.353  25.098  1.00  0.00     0.039 A 
ATOM     19  C   UNL     1     -17.588 -42.444  23.718  1.00  0.00     0.017 A 
ATOM     20  C   UNL     1     -19.066 -41.887  25.530  1.00  0.00     0.017 A 
ATOM     21  C   UNL     1     -18.574 -42.080  22.790  1.00  0.00     0.047 A 
ATOM     22  C   UNL     1     -20.051 -41.523  24.605  1.00  0.00     0.047 A 
ATOM     23  C   UNL     1     -19.813 -41.617  23.231  1.00  0.00     0.129 A 
BRANCH  23  24
ATOM     24  O   UNL     1     -20.862 -41.229  22.449  1.00  0.00    -0.406 OA
BRANCH  24  25
ATOM     25  C   UNL     1     -21.027 -39.843  22.200  1.00  0.00     0.573 C 
ATOM     26  F   UNL     1     -21.482 -39.624  20.948  1.00  0.00    -0.132 F 
ATOM     27  F   UNL     1     -21.937 -39.353  23.070  1.00  0.00    -0.132 F 
ATOM     28  F   UNL     1     -19.868 -39.175  22.383  1.00  0.00    -0.132 F 
ENDBRANCH  24  25
ENDBRANCH  23  24
ENDBRANCH   4  18
TORSDOF 8
ENDMDL
MODEL 9
REMARK VINA RESULT:    -9.830      5.299     10.182
REMARK INTER + INTRA:         -15.160
REMARK INTER:                 -14.434
REMARK INTRA:                  -0.726
REMARK UNBOUND:                -1.021
REMARK SMILES COc1cc(/C=C/c2nnc(-c3ccc(OC(F)(F)F)cc3)o2)ccc1O
REMARK SMILES IDX 8 1 9 2 10 3 11 4 23 5 7 6 6 7 5 8 3 9 4 10 26 11 25 12
REMARK SMILES IDX 24 13 2 14 1 15 27 16 12 18 13 19 22 20 14 21 21 22 15 23
REMARK SMILES IDX 16 24 17 25 18 26 19 27 20 28
REMARK H PARENT 27 17
ROOT
ATOM      1  C   UNL     1     -15.910 -42.841  26.180  1.00  0.00     0.241 A 
ATOM      2  N   UNL     1     -15.208 -42.737  25.059  1.00  0.00    -0.108 NA
ATOM      3  N   UNL     1     -13.961 -43.274  25.288  1.00  0.00    -0.107 NA
ATOM      4  C   UNL     1     -13.958 -43.681  26.538  1.00  0.00     0.248 A 
ATOM      5  O   UNL     1     -15.148 -43.442  27.166  1.00  0.00    -0.417 OA
ENDROOT
BRANCH   1   6
ATOM      6  C   UNL     1     -17.248 -42.421  26.414  1.00  0.00     0.071 C 
BRANCH   6   7
ATOM      7  C   UNL     1     -18.137 -42.340  25.412  1.00  0.00     0.014 C 
BRANCH   7   8
ATOM      8  C   UNL     1     -19.472 -41.741  25.557  1.00  0.00    -0.022 A 
ATOM      9  C   UNL     1     -21.403 -40.698  24.494  1.00  0.00     0.161 A 
ATOM     10  C   UNL     1     -20.141 -41.295  24.405  1.00  0.00     0.058 A 
ATOM     11  C   UNL     1     -21.986 -40.538  25.759  1.00  0.00     0.157 A 
ATOM     12  C   UNL     1     -21.327 -40.960  26.913  1.00  0.00     0.051 A 
ATOM     13  C   UNL     1     -20.069 -41.556  26.809  1.00  0.00     0.012 A 
BRANCH   9  14
ATOM     14  O   UNL     1     -22.135 -40.242  23.429  1.00  0.00    -0.493 OA
ATOM     15  C   UNL     1     -21.499 -40.210  22.160  1.00  0.00     0.278 C 
ENDBRANCH   9  14
BRANCH  11  16
ATOM     16  O   UNL     1     -23.220 -39.953  25.857  1.00  0.00    -0.504 OA
ATOM     17  H   UNL     1     -23.475 -39.900  26.791  1.00  0.00     0.293 HD
ENDBRANCH  11  16
ENDBRANCH   7   8
ENDBRANCH   6   7
ENDBRANCH   1   6
BRANCH   4  18
ATOM     18  C   UNL     1     -12.903 -44.323  27.312  1.00  0.00     0.039 A 
ATOM     19  C   UNL     1     -12.860 -45.721  27.402  1.00  0.00     0.017 A 
ATOM     20  C   UNL     1     -11.917 -43.587  27.981  1.00  0.00     0.017 A 
ATOM     21  C   UNL     1     -11.859 -46.372  28.138  1.00  0.00     0.047 A 
ATOM     22  C   UNL     1     -10.919 -44.235  28.716  1.00  0.00     0.047 A 
ATOM     23  C   UNL     1     -10.882 -45.630  28.800  1.00  0.00     0.129 A 
BRANCH  23  24
ATOM     24  O   UNL     1      -9.854 -46.123  29.549  1.00  0.00    -0.406 OA
BRANCH  24  25
ATOM     25  C   UNL     1     -10.056 -46.254  30.946  1.00  0.00     0.573 C 
ATOM     26  F   UNL     1      -9.743 -45.111  31.593  1.00  0.00    -0.132 F 
ATOM     27  F   UNL     1     -11.361 -46.520  31.171  1.00  0.00    -0.132 F 
ATOM     28  F   UNL     1      -9.326 -47.272  31.450  1.00  0.00    -0.132 F 
ENDBRANCH  24  25
ENDBRANCH  23  24
ENDBRANCH   4  18
TORSDOF 8
ENDMDL
