MODEL 1
REMARK VINA RESULT:   -11.163      0.000      0.000
REMARK INTER + INTRA:         -12.619
REMARK INTER:                 -13.121
REMARK INTRA:                   0.502
REMARK UNBOUND:                 0.502
REMARK SMILES Oc1ccc([C@@H]2CC(c3c4ccccc4cc4ccccc34)=NN2)c(O)c1
REMARK SMILES IDX 2 1 3 2 4 3 5 4 25 5 27 6 1 7 26 9 6 11 7 12 24 13 8 14
REMARK SMILES IDX 23 15 9 17 10 18 22 19 11 20 15 21 21 22 17 23 12 24 14 25
REMARK SMILES IDX 16 26 20 27 18 28 13 29 19 30
REMARK H PARENT 1 8 26 10 24 16
ROOT
ATOM      1  C   UNL     1     -23.488 -39.612  18.172  1.00  0.00     0.119 A 
ATOM      2  C   UNL     1     -23.567 -40.927  18.617  1.00  0.00     0.047 A 
ATOM      3  C   UNL     1     -22.499 -41.473  19.335  1.00  0.00     0.013 A 
ATOM      4  C   UNL     1     -21.353 -40.710  19.619  1.00  0.00     0.018 A 
ATOM      5  C   UNL     1     -21.303 -39.393  19.143  1.00  0.00     0.124 A 
ATOM      6  C   UNL     1     -22.363 -38.839  18.426  1.00  0.00     0.092 A 
ENDROOT
BRANCH   1   7
ATOM      7  O   UNL     1     -24.506 -39.039  17.469  1.00  0.00    -0.508 OA
ATOM      8  H   UNL     1     -24.656 -39.559  16.662  1.00  0.00     0.293 HD
ENDBRANCH   1   7
BRANCH   5   9
ATOM      9  O   UNL     1     -20.181 -38.649  19.387  1.00  0.00    -0.507 OA
ATOM     10  H   UNL     1     -19.405 -39.160  19.102  1.00  0.00     0.293 HD
ENDBRANCH   5   9
BRANCH   4  11
ATOM     11  C   UNL     1     -20.181 -41.287  20.375  1.00  0.00     0.138 C 
ATOM     12  C   UNL     1     -20.523 -41.668  21.809  1.00  0.00     0.090 C 
ATOM     13  N   UNL     1     -19.060 -40.362  20.539  1.00  0.00    -0.302 N 
ATOM     14  C   UNL     1     -19.244 -41.242  22.472  1.00  0.00     0.071 C 
ATOM     15  N   UNL     1     -18.440 -40.520  21.751  1.00  0.00    -0.184 NA
ATOM     16  H   UNL     1     -18.433 -40.177  19.759  1.00  0.00     0.184 HD
BRANCH  14  17
ATOM     17  C   UNL     1     -18.973 -41.632  23.862  1.00  0.00     0.013 A 
ATOM     18  C   UNL     1     -19.946 -41.333  24.853  1.00  0.00    -0.009 A 
ATOM     19  C   UNL     1     -17.729 -42.248  24.164  1.00  0.00    -0.009 A 
ATOM     20  C   UNL     1     -21.208 -40.748  24.583  1.00  0.00     0.009 A 
ATOM     21  C   UNL     1     -19.637 -41.644  26.194  1.00  0.00    -0.017 A 
ATOM     22  C   UNL     1     -16.750 -42.583  23.198  1.00  0.00     0.009 A 
ATOM     23  C   UNL     1     -17.453 -42.544  25.515  1.00  0.00    -0.017 A 
ATOM     24  C   UNL     1     -22.120 -40.471  25.605  1.00  0.00     0.001 A 
ATOM     25  C   UNL     1     -20.563 -41.358  27.211  1.00  0.00     0.009 A 
ATOM     26  C   UNL     1     -18.401 -42.237  26.504  1.00  0.00     0.017 A 
ATOM     27  C   UNL     1     -15.541 -43.180  23.558  1.00  0.00     0.001 A 
ATOM     28  C   UNL     1     -16.230 -43.144  25.864  1.00  0.00     0.009 A 
ATOM     29  C   UNL     1     -21.795 -40.774  26.919  1.00  0.00     0.001 A 
ATOM     30  C   UNL     1     -15.280 -43.458  24.894  1.00  0.00     0.001 A 
ENDBRANCH  14  17
ENDBRANCH   4  11
TORSDOF 4
ENDMDL
MODEL 2
REMARK VINA RESULT:   -10.883      7.975     11.387
REMARK INTER + INTRA:         -12.289
REMARK INTER:                 -12.045
REMARK INTRA:                  -0.244
REMARK UNBOUND:                 0.502
REMARK SMILES Oc1ccc([C@@H]2CC(c3c4ccccc4cc4ccccc34)=NN2)c(O)c1
REMARK SMILES IDX 2 1 3 2 4 3 5 4 25 5 27 6 1 7 26 9 6 11 7 12 24 13 8 14
REMARK SMILES IDX 23 15 9 17 10 18 22 19 11 20 15 21 21 22 17 23 12 24 14 25
REMARK SMILES IDX 16 26 20 27 18 28 13 29 19 30
REMARK H PARENT 1 8 26 10 24 16
ROOT
ATOM      1  C   UNL     1     -14.996 -43.835  24.976  1.00  0.00     0.119 A 
ATOM      2  C   UNL     1     -14.022 -44.782  25.274  1.00  0.00     0.047 A 
ATOM      3  C   UNL     1     -13.725 -45.062  26.610  1.00  0.00     0.013 A 
ATOM      4  C   UNL     1     -14.400 -44.408  27.655  1.00  0.00     0.018 A 
ATOM      5  C   UNL     1     -15.367 -43.449  27.317  1.00  0.00     0.124 A 
ATOM      6  C   UNL     1     -15.671 -43.163  25.987  1.00  0.00     0.092 A 
ENDROOT
BRANCH   1   7
ATOM      7  O   UNL     1     -15.319 -43.531  23.687  1.00  0.00    -0.508 OA
ATOM      8  H   UNL     1     -15.211 -44.330  23.144  1.00  0.00     0.293 HD
ENDBRANCH   1   7
BRANCH   5   9
ATOM      9  O   UNL     1     -16.011 -42.784  28.323  1.00  0.00    -0.507 OA
ATOM     10  H   UNL     1     -15.454 -42.816  29.120  1.00  0.00     0.293 HD
ENDBRANCH   5   9
BRANCH   4  11
ATOM     11  C   UNL     1     -14.080 -44.681  29.104  1.00  0.00     0.138 C 
ATOM     12  C   UNL     1     -12.945 -43.819  29.639  1.00  0.00     0.090 C 
ATOM     13  N   UNL     1     -13.611 -46.042  29.367  1.00  0.00    -0.302 N 
ATOM     14  C   UNL     1     -12.268 -44.841  30.506  1.00  0.00     0.071 C 
ATOM     15  N   UNL     1     -12.653 -46.072  30.345  1.00  0.00    -0.184 NA
ATOM     16  H   UNL     1     -14.275 -46.813  29.394  1.00  0.00     0.184 HD
BRANCH  14  17
ATOM     17  C   UNL     1     -11.226 -44.425  31.454  1.00  0.00     0.013 A 
ATOM     18  C   UNL     1     -11.562 -43.485  32.465  1.00  0.00    -0.009 A 
ATOM     19  C   UNL     1      -9.913 -44.942  31.289  1.00  0.00    -0.009 A 
ATOM     20  C   UNL     1     -12.867 -42.972  32.676  1.00  0.00     0.009 A 
ATOM     21  C   UNL     1     -10.531 -43.038  33.317  1.00  0.00    -0.017 A 
ATOM     22  C   UNL     1      -9.550 -45.899  30.310  1.00  0.00     0.009 A 
ATOM     23  C   UNL     1      -8.907 -44.472  32.159  1.00  0.00    -0.017 A 
ATOM     24  C   UNL     1     -13.132 -42.043  33.685  1.00  0.00     0.001 A 
ATOM     25  C   UNL     1     -10.813 -42.101  34.326  1.00  0.00     0.009 A 
ATOM     26  C   UNL     1      -9.227 -43.531  33.150  1.00  0.00     0.017 A 
ATOM     27  C   UNL     1      -8.239 -46.363  30.192  1.00  0.00     0.001 A 
ATOM     28  C   UNL     1      -7.590 -44.947  32.027  1.00  0.00     0.009 A 
ATOM     29  C   UNL     1     -12.104 -41.605  34.507  1.00  0.00     0.001 A 
ATOM     30  C   UNL     1      -7.258 -45.884  31.050  1.00  0.00     0.001 A 
ENDBRANCH  14  17
ENDBRANCH   4  11
TORSDOF 4
ENDMDL
MODEL 3
REMARK VINA RESULT:   -10.734      0.510      3.581
REMARK INTER + INTRA:         -12.115
REMARK INTER:                 -12.481
REMARK INTRA:                   0.366
REMARK UNBOUND:                 0.502
REMARK SMILES Oc1ccc([C@@H]2CC(c3c4ccccc4cc4ccccc34)=NN2)c(O)c1
REMARK SMILES IDX 2 1 3 2 4 3 5 4 25 5 27 6 1 7 26 9 6 11 7 12 24 13 8 14
REMARK SMILES IDX 23 15 9 17 10 18 22 19 11 20 15 21 21 22 17 23 12 24 14 25
REMARK SMILES IDX 16 26 20 27 18 28 13 29 19 30
REMARK H PARENT 1 8 26 10 24 16
ROOT
ATOM      1  C   UNL     1     -23.479 -38.995  18.493  1.00  0.00     0.119 A 
ATOM      2  C   UNL     1     -23.351 -40.368  18.312  1.00  0.00     0.047 A 
ATOM      3  C   UNL     1     -22.316 -41.051  18.957  1.00  0.00     0.013 A 
ATOM      4  C   UNL     1     -21.410 -40.372  19.791  1.00  0.00     0.018 A 
ATOM      5  C   UNL     1     -21.562 -38.986  19.939  1.00  0.00     0.124 A 
ATOM      6  C   UNL     1     -22.591 -38.296  19.301  1.00  0.00     0.092 A 
ENDROOT
BRANCH   1   7
ATOM      7  O   UNL     1     -24.473 -38.289  17.884  1.00  0.00    -0.508 OA
ATOM      8  H   UNL     1     -24.153 -37.388  17.713  1.00  0.00     0.293 HD
ENDBRANCH   1   7
BRANCH   5   9
ATOM      9  O   UNL     1     -20.670 -38.309  20.724  1.00  0.00    -0.507 OA
ATOM     10  H   UNL     1     -19.823 -38.785  20.709  1.00  0.00     0.293 HD
ENDBRANCH   5   9
BRANCH   4  11
ATOM     11  C   UNL     1     -20.275 -41.088  20.481  1.00  0.00     0.138 C 
ATOM     12  C   UNL     1     -20.557 -41.383  21.948  1.00  0.00     0.090 C 
ATOM     13  N   UNL     1     -19.029 -40.323  20.533  1.00  0.00    -0.302 N 
ATOM     14  C   UNL     1     -19.185 -41.124  22.502  1.00  0.00     0.071 C 
ATOM     15  N   UNL     1     -18.347 -40.537  21.701  1.00  0.00    -0.184 NA
ATOM     16  H   UNL     1     -18.443 -40.246  19.704  1.00  0.00     0.184 HD
BRANCH  14  17
ATOM     17  C   UNL     1     -18.866 -41.514  23.882  1.00  0.00     0.013 A 
ATOM     18  C   UNL     1     -17.609 -42.120  24.143  1.00  0.00    -0.009 A 
ATOM     19  C   UNL     1     -19.849 -41.313  24.888  1.00  0.00    -0.009 A 
ATOM     20  C   UNL     1     -16.595 -42.309  23.170  1.00  0.00     0.009 A 
ATOM     21  C   UNL     1     -17.350 -42.559  25.459  1.00  0.00    -0.017 A 
ATOM     22  C   UNL     1     -21.101 -40.688  24.667  1.00  0.00     0.009 A 
ATOM     23  C   UNL     1     -19.557 -41.765  26.192  1.00  0.00    -0.017 A 
ATOM     24  C   UNL     1     -15.380 -42.920  23.489  1.00  0.00     0.001 A 
ATOM     25  C   UNL     1     -16.124 -43.175  25.764  1.00  0.00     0.009 A 
ATOM     26  C   UNL     1     -18.323 -42.380  26.456  1.00  0.00     0.017 A 
ATOM     27  C   UNL     1     -22.029 -40.527  25.697  1.00  0.00     0.001 A 
ATOM     28  C   UNL     1     -20.503 -41.597  27.219  1.00  0.00     0.009 A 
ATOM     29  C   UNL     1     -15.147 -43.355  24.786  1.00  0.00     0.001 A 
ATOM     30  C   UNL     1     -21.730 -40.985  26.974  1.00  0.00     0.001 A 
ENDBRANCH  14  17
ENDBRANCH   4  11
TORSDOF 4
ENDMDL
MODEL 4
REMARK VINA RESULT:   -10.513      3.475      7.408
REMARK INTER + INTRA:         -11.855
REMARK INTER:                 -11.256
REMARK INTRA:                  -0.599
REMARK UNBOUND:                 0.502
REMARK SMILES Oc1ccc([C@@H]2CC(c3c4ccccc4cc4ccccc34)=NN2)c(O)c1
REMARK SMILES IDX 2 1 3 2 4 3 5 4 25 5 27 6 1 7 26 9 6 11 7 12 24 13 8 14
REMARK SMILES IDX 23 15 9 17 10 18 22 19 11 20 15 21 21 22 17 23 12 24 14 25
REMARK SMILES IDX 16 26 20 27 18 28 13 29 19 30
REMARK H PARENT 1 8 26 10 24 16
ROOT
ATOM      1  C   UNL     1     -14.523 -44.216  27.193  1.00  0.00     0.119 A 
ATOM      2  C   UNL     1     -15.575 -43.360  27.501  1.00  0.00     0.047 A 
ATOM      3  C   UNL     1     -16.307 -42.775  26.465  1.00  0.00     0.013 A 
ATOM      4  C   UNL     1     -16.001 -43.044  25.119  1.00  0.00     0.018 A 
ATOM      5  C   UNL     1     -14.925 -43.901  24.847  1.00  0.00     0.124 A 
ATOM      6  C   UNL     1     -14.189 -44.491  25.873  1.00  0.00     0.092 A 
ENDROOT
BRANCH   1   7
ATOM      7  O   UNL     1     -13.782 -44.810  28.172  1.00  0.00    -0.508 OA
ATOM      8  H   UNL     1     -13.938 -44.339  29.007  1.00  0.00     0.293 HD
ENDBRANCH   1   7
BRANCH   5   9
ATOM      9  O   UNL     1     -14.598 -44.149  23.542  1.00  0.00    -0.507 OA
ATOM     10  H   UNL     1     -15.292 -43.776  22.974  1.00  0.00     0.293 HD
ENDBRANCH   5   9
BRANCH   4  11
ATOM     11  C   UNL     1     -16.767 -42.407  23.986  1.00  0.00     0.138 C 
ATOM     12  C   UNL     1     -17.856 -41.455  24.461  1.00  0.00     0.090 C 
ATOM     13  N   UNL     1     -17.502 -43.356  23.151  1.00  0.00    -0.302 N 
ATOM     14  C   UNL     1     -18.908 -41.782  23.441  1.00  0.00     0.071 C 
ATOM     15  N   UNL     1     -18.695 -42.840  22.718  1.00  0.00    -0.184 NA
ATOM     16  H   UNL     1     -17.006 -43.922  22.464  1.00  0.00     0.184 HD
BRANCH  14  17
ATOM     17  C   UNL     1     -20.101 -40.932  23.318  1.00  0.00     0.013 A 
ATOM     18  C   UNL     1     -21.035 -40.914  24.388  1.00  0.00    -0.009 A 
ATOM     19  C   UNL     1     -20.292 -40.201  22.116  1.00  0.00    -0.009 A 
ATOM     20  C   UNL     1     -20.861 -41.606  25.613  1.00  0.00     0.009 A 
ATOM     21  C   UNL     1     -22.211 -40.153  24.222  1.00  0.00    -0.017 A 
ATOM     22  C   UNL     1     -19.370 -40.176  21.041  1.00  0.00     0.009 A 
ATOM     23  C   UNL     1     -21.480 -39.452  21.983  1.00  0.00    -0.017 A 
ATOM     24  C   UNL     1     -21.821 -41.554  26.625  1.00  0.00     0.001 A 
ATOM     25  C   UNL     1     -23.170 -40.113  25.249  1.00  0.00     0.009 A 
ATOM     26  C   UNL     1     -22.417 -39.441  23.029  1.00  0.00     0.017 A 
ATOM     27  C   UNL     1     -19.620 -39.445  19.879  1.00  0.00     0.001 A 
ATOM     28  C   UNL     1     -21.719 -38.721  20.806  1.00  0.00     0.009 A 
ATOM     29  C   UNL     1     -22.978 -40.810  26.441  1.00  0.00     0.001 A 
ATOM     30  C   UNL     1     -20.798 -38.719  19.761  1.00  0.00     0.001 A 
ENDBRANCH  14  17
ENDBRANCH   4  11
TORSDOF 4
ENDMDL
MODEL 5
REMARK VINA RESULT:   -10.511      3.010      7.427
REMARK INTER + INTRA:         -11.853
REMARK INTER:                 -11.041
REMARK INTRA:                  -0.811
REMARK UNBOUND:                 0.502
REMARK SMILES Oc1ccc([C@@H]2CC(c3c4ccccc4cc4ccccc34)=NN2)c(O)c1
REMARK SMILES IDX 2 1 3 2 4 3 5 4 25 5 27 6 1 7 26 9 6 11 7 12 24 13 8 14
REMARK SMILES IDX 23 15 9 17 10 18 22 19 11 20 15 21 21 22 17 23 12 24 14 25
REMARK SMILES IDX 16 26 20 27 18 28 13 29 19 30
REMARK H PARENT 1 8 26 10 24 16
ROOT
ATOM      1  C   UNL     1     -15.132 -42.650  25.832  1.00  0.00     0.119 A 
ATOM      2  C   UNL     1     -16.475 -42.938  26.051  1.00  0.00     0.047 A 
ATOM      3  C   UNL     1     -17.410 -42.648  25.054  1.00  0.00     0.013 A 
ATOM      4  C   UNL     1     -17.011 -42.079  23.831  1.00  0.00     0.018 A 
ATOM      5  C   UNL     1     -15.651 -41.790  23.651  1.00  0.00     0.124 A 
ATOM      6  C   UNL     1     -14.711 -42.075  24.639  1.00  0.00     0.092 A 
ENDROOT
BRANCH   1   7
ATOM      7  O   UNL     1     -14.186 -42.917  26.777  1.00  0.00    -0.508 OA
ATOM      8  H   UNL     1     -13.428 -43.344  26.344  1.00  0.00     0.293 HD
ENDBRANCH   1   7
BRANCH   5   9
ATOM      9  O   UNL     1     -15.254 -41.209  22.478  1.00  0.00    -0.507 OA
ATOM     10  H   UNL     1     -14.623 -41.803  22.038  1.00  0.00     0.293 HD
ENDBRANCH   5   9
BRANCH   4  11
ATOM     11  C   UNL     1     -18.008 -41.740  22.749  1.00  0.00     0.138 C 
ATOM     12  C   UNL     1     -18.938 -40.597  23.130  1.00  0.00     0.090 C 
ATOM     13  N   UNL     1     -18.934 -42.825  22.428  1.00  0.00    -0.302 N 
ATOM     14  C   UNL     1     -20.205 -41.116  22.512  1.00  0.00     0.071 C 
ATOM     15  N   UNL     1     -20.185 -42.356  22.125  1.00  0.00    -0.184 NA
ATOM     16  H   UNL     1     -18.623 -43.611  21.860  1.00  0.00     0.184 HD
BRANCH  14  17
ATOM     17  C   UNL     1     -21.377 -40.238  22.393  1.00  0.00     0.013 A 
ATOM     18  C   UNL     1     -21.507 -39.433  21.230  1.00  0.00    -0.009 A 
ATOM     19  C   UNL     1     -22.304 -40.195  23.468  1.00  0.00    -0.009 A 
ATOM     20  C   UNL     1     -20.618 -39.473  20.127  1.00  0.00     0.009 A 
ATOM     21  C   UNL     1     -22.596 -38.539  21.168  1.00  0.00    -0.017 A 
ATOM     22  C   UNL     1     -22.218 -41.002  24.629  1.00  0.00     0.009 A 
ATOM     23  C   UNL     1     -23.380 -39.288  23.372  1.00  0.00    -0.017 A 
ATOM     24  C   UNL     1     -20.797 -38.649  19.014  1.00  0.00     0.001 A 
ATOM     25  C   UNL     1     -22.762 -37.714  20.042  1.00  0.00     0.009 A 
ATOM     26  C   UNL     1     -23.509 -38.477  22.234  1.00  0.00     0.017 A 
ATOM     27  C   UNL     1     -23.157 -40.907  25.657  1.00  0.00     0.001 A 
ATOM     28  C   UNL     1     -24.319 -39.203  24.417  1.00  0.00     0.009 A 
ATOM     29  C   UNL     1     -21.868 -37.767  18.973  1.00  0.00     0.001 A 
ATOM     30  C   UNL     1     -24.207 -40.004  25.551  1.00  0.00     0.001 A 
ENDBRANCH  14  17
ENDBRANCH   4  11
TORSDOF 4
ENDMDL
MODEL 6
REMARK VINA RESULT:   -10.460      4.418      6.904
REMARK INTER + INTRA:         -11.793
REMARK INTER:                 -10.936
REMARK INTRA:                  -0.856
REMARK UNBOUND:                 0.502
REMARK SMILES Oc1ccc([C@@H]2CC(c3c4ccccc4cc4ccccc34)=NN2)c(O)c1
REMARK SMILES IDX 2 1 3 2 4 3 5 4 25 5 27 6 1 7 26 9 6 11 7 12 24 13 8 14
REMARK SMILES IDX 23 15 9 17 10 18 22 19 11 20 15 21 21 22 17 23 12 24 14 25
REMARK SMILES IDX 16 26 20 27 18 28 13 29 19 30
REMARK H PARENT 1 8 26 10 24 16
ROOT
ATOM      1  C   UNL     1     -24.289 -45.521  28.801  1.00  0.00     0.119 A 
ATOM      2  C   UNL     1     -23.468 -45.806  27.716  1.00  0.00     0.047 A 
ATOM      3  C   UNL     1     -22.913 -44.753  26.982  1.00  0.00     0.013 A 
ATOM      4  C   UNL     1     -23.166 -43.415  27.331  1.00  0.00     0.018 A 
ATOM      5  C   UNL     1     -24.010 -43.167  28.424  1.00  0.00     0.124 A 
ATOM      6  C   UNL     1     -24.568 -44.209  29.162  1.00  0.00     0.092 A 
ENDROOT
BRANCH   1   7
ATOM      7  O   UNL     1     -24.851 -46.516  29.545  1.00  0.00    -0.508 OA
ATOM      8  H   UNL     1     -24.634 -47.370  29.135  1.00  0.00     0.293 HD
ENDBRANCH   1   7
BRANCH   5   9
ATOM      9  O   UNL     1     -24.288 -41.870  28.756  1.00  0.00    -0.507 OA
ATOM     10  H   UNL     1     -25.231 -41.806  28.984  1.00  0.00     0.293 HD
ENDBRANCH   5   9
BRANCH   4  11
ATOM     11  C   UNL     1     -22.593 -42.265  26.541  1.00  0.00     0.138 C 
ATOM     12  C   UNL     1     -21.651 -42.712  25.431  1.00  0.00     0.090 C 
ATOM     13  N   UNL     1     -21.763 -41.352  27.327  1.00  0.00    -0.302 N 
ATOM     14  C   UNL     1     -20.626 -41.620  25.545  1.00  0.00     0.071 C 
ATOM     15  N   UNL     1     -20.705 -40.871  26.603  1.00  0.00    -0.184 NA
ATOM     16  H   UNL     1     -22.200 -40.674  27.949  1.00  0.00     0.184 HD
BRANCH  14  17
ATOM     17  C   UNL     1     -19.604 -41.462  24.501  1.00  0.00     0.013 A 
ATOM     18  C   UNL     1     -19.976 -40.853  23.273  1.00  0.00    -0.009 A 
ATOM     19  C   UNL     1     -18.300 -41.968  24.747  1.00  0.00    -0.009 A 
ATOM     20  C   UNL     1     -21.258 -40.311  23.005  1.00  0.00     0.009 A 
ATOM     21  C   UNL     1     -19.003 -40.779  22.254  1.00  0.00    -0.017 A 
ATOM     22  C   UNL     1     -17.889 -42.556  25.968  1.00  0.00     0.009 A 
ATOM     23  C   UNL     1     -17.353 -41.879  23.705  1.00  0.00    -0.017 A 
ATOM     24  C   UNL     1     -21.564 -39.731  21.772  1.00  0.00     0.001 A 
ATOM     25  C   UNL     1     -19.327 -40.196  21.017  1.00  0.00     0.009 A 
ATOM     26  C   UNL     1     -17.716 -41.293  22.482  1.00  0.00     0.017 A 
ATOM     27  C   UNL     1     -16.594 -43.044  26.146  1.00  0.00     0.001 A 
ATOM     28  C   UNL     1     -16.051 -42.375  23.898  1.00  0.00     0.009 A 
ATOM     29  C   UNL     1     -20.598 -39.677  20.777  1.00  0.00     0.001 A 
ATOM     30  C   UNL     1     -15.675 -42.956  25.108  1.00  0.00     0.001 A 
ENDBRANCH  14  17
ENDBRANCH   4  11
TORSDOF 4
ENDMDL
MODEL 7
REMARK VINA RESULT:   -10.413      3.592      7.816
REMARK INTER + INTRA:         -11.738
REMARK INTER:                 -11.352
REMARK INTRA:                  -0.386
REMARK UNBOUND:                 0.502
REMARK SMILES Oc1ccc([C@@H]2CC(c3c4ccccc4cc4ccccc34)=NN2)c(O)c1
REMARK SMILES IDX 2 1 3 2 4 3 5 4 25 5 27 6 1 7 26 9 6 11 7 12 24 13 8 14
REMARK SMILES IDX 23 15 9 17 10 18 22 19 11 20 15 21 21 22 17 23 12 24 14 25
REMARK SMILES IDX 16 26 20 27 18 28 13 29 19 30
REMARK H PARENT 1 8 26 10 24 16
ROOT
ATOM      1  C   UNL     1     -14.091 -44.668  27.174  1.00  0.00     0.119 A 
ATOM      2  C   UNL     1     -14.993 -43.677  27.546  1.00  0.00     0.047 A 
ATOM      3  C   UNL     1     -15.723 -43.009  26.559  1.00  0.00     0.013 A 
ATOM      4  C   UNL     1     -15.564 -43.330  25.199  1.00  0.00     0.018 A 
ATOM      5  C   UNL     1     -14.636 -44.325  24.861  1.00  0.00     0.124 A 
ATOM      6  C   UNL     1     -13.904 -44.998  25.838  1.00  0.00     0.092 A 
ENDROOT
BRANCH   1   7
ATOM      7  O   UNL     1     -13.359 -45.346  28.103  1.00  0.00    -0.508 OA
ATOM      8  H   UNL     1     -12.804 -45.998  27.644  1.00  0.00     0.293 HD
ENDBRANCH   1   7
BRANCH   5   9
ATOM      9  O   UNL     1     -14.450 -44.627  23.540  1.00  0.00    -0.507 OA
ATOM     10  H   UNL     1     -15.002 -45.395  23.318  1.00  0.00     0.293 HD
ENDBRANCH   5   9
BRANCH   4  11
ATOM     11  C   UNL     1     -16.327 -42.607  24.117  1.00  0.00     0.138 C 
ATOM     12  C   UNL     1     -17.505 -41.802  24.650  1.00  0.00     0.090 C 
ATOM     13  N   UNL     1     -16.952 -43.490  23.132  1.00  0.00    -0.302 N 
ATOM     14  C   UNL     1     -18.485 -42.068  23.544  1.00  0.00     0.071 C 
ATOM     15  N   UNL     1     -18.161 -43.007  22.707  1.00  0.00    -0.184 NA
ATOM     16  H   UNL     1     -16.386 -43.926  22.407  1.00  0.00     0.184 HD
BRANCH  14  17
ATOM     17  C   UNL     1     -19.732 -41.295  23.468  1.00  0.00     0.013 A 
ATOM     18  C   UNL     1     -19.960 -40.484  22.325  1.00  0.00    -0.009 A 
ATOM     19  C   UNL     1     -20.634 -41.354  24.564  1.00  0.00    -0.009 A 
ATOM     20  C   UNL     1     -19.097 -40.424  21.202  1.00  0.00     0.009 A 
ATOM     21  C   UNL     1     -21.125 -39.689  22.304  1.00  0.00    -0.017 A 
ATOM     22  C   UNL     1     -20.451 -42.171  25.706  1.00  0.00     0.009 A 
ATOM     23  C   UNL     1     -21.789 -40.545  24.509  1.00  0.00    -0.017 A 
ATOM     24  C   UNL     1     -19.373 -39.599  20.110  1.00  0.00     0.001 A 
ATOM     25  C   UNL     1     -21.389 -38.862  21.199  1.00  0.00     0.009 A 
ATOM     26  C   UNL     1     -22.015 -39.728  23.390  1.00  0.00     0.017 A 
ATOM     27  C   UNL     1     -21.370 -42.179  26.756  1.00  0.00     0.001 A 
ATOM     28  C   UNL     1     -22.706 -40.562  25.575  1.00  0.00     0.009 A 
ATOM     29  C   UNL     1     -20.519 -38.815  20.110  1.00  0.00     0.001 A 
ATOM     30  C   UNL     1     -22.498 -41.371  26.690  1.00  0.00     0.001 A 
ENDBRANCH  14  17
ENDBRANCH   4  11
TORSDOF 4
ENDMDL
MODEL 8
REMARK VINA RESULT:   -10.277      4.384      7.416
REMARK INTER + INTRA:         -11.577
REMARK INTER:                 -10.785
REMARK INTRA:                  -0.792
REMARK UNBOUND:                 0.502
REMARK SMILES Oc1ccc([C@@H]2CC(c3c4ccccc4cc4ccccc34)=NN2)c(O)c1
REMARK SMILES IDX 2 1 3 2 4 3 5 4 25 5 27 6 1 7 26 9 6 11 7 12 24 13 8 14
REMARK SMILES IDX 23 15 9 17 10 18 22 19 11 20 15 21 21 22 17 23 12 24 14 25
REMARK SMILES IDX 16 26 20 27 18 28 13 29 19 30
REMARK H PARENT 1 8 26 10 24 16
ROOT
ATOM      1  C   UNL     1     -24.275 -45.473  28.781  1.00  0.00     0.119 A 
ATOM      2  C   UNL     1     -23.464 -45.774  27.693  1.00  0.00     0.047 A 
ATOM      3  C   UNL     1     -22.896 -44.734  26.953  1.00  0.00     0.013 A 
ATOM      4  C   UNL     1     -23.125 -43.390  27.298  1.00  0.00     0.018 A 
ATOM      5  C   UNL     1     -23.960 -43.124  28.393  1.00  0.00     0.124 A 
ATOM      6  C   UNL     1     -24.531 -44.155  29.138  1.00  0.00     0.092 A 
ENDROOT
BRANCH   1   7
ATOM      7  O   UNL     1     -24.850 -46.456  29.531  1.00  0.00    -0.508 OA
ATOM      8  H   UNL     1     -25.401 -46.041  30.215  1.00  0.00     0.293 HD
ENDBRANCH   1   7
BRANCH   5   9
ATOM      9  O   UNL     1     -24.216 -41.822  28.722  1.00  0.00    -0.507 OA
ATOM     10  H   UNL     1     -23.796 -41.248  28.059  1.00  0.00     0.293 HD
ENDBRANCH   5   9
BRANCH   4  11
ATOM     11  C   UNL     1     -22.537 -42.252  26.500  1.00  0.00     0.138 C 
ATOM     12  C   UNL     1     -21.649 -42.720  25.356  1.00  0.00     0.090 C 
ATOM     13  N   UNL     1     -21.651 -41.378  27.268  1.00  0.00    -0.302 N 
ATOM     14  C   UNL     1     -20.582 -41.666  25.447  1.00  0.00     0.071 C 
ATOM     15  N   UNL     1     -20.600 -40.926  26.515  1.00  0.00    -0.184 NA
ATOM     16  H   UNL     1     -22.043 -40.691  27.911  1.00  0.00     0.184 HD
BRANCH  14  17
ATOM     17  C   UNL     1     -19.590 -41.532  24.372  1.00  0.00     0.013 A 
ATOM     18  C   UNL     1     -18.268 -41.995  24.607  1.00  0.00    -0.009 A 
ATOM     19  C   UNL     1     -19.982 -40.902  23.161  1.00  0.00    -0.009 A 
ATOM     20  C   UNL     1     -17.850 -42.654  25.790  1.00  0.00     0.009 A 
ATOM     21  C   UNL     1     -17.308 -41.788  23.594  1.00  0.00    -0.017 A 
ATOM     22  C   UNL     1     -21.297 -40.454  22.885  1.00  0.00     0.009 A 
ATOM     23  C   UNL     1     -18.997 -40.711  22.170  1.00  0.00    -0.017 A 
ATOM     24  C   UNL     1     -16.531 -43.078  25.964  1.00  0.00     0.001 A 
ATOM     25  C   UNL     1     -15.984 -42.219  23.784  1.00  0.00     0.009 A 
ATOM     26  C   UNL     1     -17.683 -41.150  22.399  1.00  0.00     0.017 A 
ATOM     27  C   UNL     1     -21.619 -39.832  21.677  1.00  0.00     0.001 A 
ATOM     28  C   UNL     1     -19.336 -40.083  20.958  1.00  0.00     0.009 A 
ATOM     29  C   UNL     1     -15.597 -42.858  24.961  1.00  0.00     0.001 A 
ATOM     30  C   UNL     1     -20.636 -39.645  20.714  1.00  0.00     0.001 A 
ENDBRANCH  14  17
ENDBRANCH   4  11
TORSDOF 4
ENDMDL
MODEL 9
REMARK VINA RESULT:   -10.071      3.693      6.936
REMARK INTER + INTRA:         -11.336
REMARK INTER:                 -10.425
REMARK INTRA:                  -0.911
REMARK UNBOUND:                 0.502
REMARK SMILES Oc1ccc([C@@H]2CC(c3c4ccccc4cc4ccccc34)=NN2)c(O)c1
REMARK SMILES IDX 2 1 3 2 4 3 5 4 25 5 27 6 1 7 26 9 6 11 7 12 24 13 8 14
REMARK SMILES IDX 23 15 9 17 10 18 22 19 11 20 15 21 21 22 17 23 12 24 14 25
REMARK SMILES IDX 16 26 20 27 18 28 13 29 19 30
REMARK H PARENT 1 8 26 10 24 16
ROOT
ATOM      1  C   UNL     1     -25.217 -39.911  28.290  1.00  0.00     0.119 A 
ATOM      2  C   UNL     1     -24.311 -39.148  27.563  1.00  0.00     0.047 A 
ATOM      3  C   UNL     1     -23.158 -39.753  27.054  1.00  0.00     0.013 A 
ATOM      4  C   UNL     1     -22.907 -41.122  27.260  1.00  0.00     0.018 A 
ATOM      5  C   UNL     1     -23.837 -41.856  28.010  1.00  0.00     0.124 A 
ATOM      6  C   UNL     1     -24.990 -41.262  28.521  1.00  0.00     0.092 A 
ENDROOT
BRANCH   1   7
ATOM      7  O   UNL     1     -26.355 -39.363  28.804  1.00  0.00    -0.508 OA
ATOM      8  H   UNL     1     -26.798 -40.029  29.356  1.00  0.00     0.293 HD
ENDBRANCH   1   7
BRANCH   5   9
ATOM      9  O   UNL     1     -23.591 -43.181  28.243  1.00  0.00    -0.507 OA
ATOM     10  H   UNL     1     -23.012 -43.516  27.538  1.00  0.00     0.293 HD
ENDBRANCH   5   9
BRANCH   4  11
ATOM     11  C   UNL     1     -21.660 -41.789  26.736  1.00  0.00     0.138 C 
ATOM     12  C   UNL     1     -20.839 -40.890  25.822  1.00  0.00     0.090 C 
ATOM     13  N   UNL     1     -21.914 -42.963  25.902  1.00  0.00    -0.302 N 
ATOM     14  C   UNL     1     -20.406 -41.919  24.817  1.00  0.00     0.071 C 
ATOM     15  N   UNL     1     -21.011 -43.067  24.877  1.00  0.00    -0.184 NA
ATOM     16  H   UNL     1     -22.176 -43.848  26.332  1.00  0.00     0.184 HD
BRANCH  14  17
ATOM     17  C   UNL     1     -19.366 -41.589  23.833  1.00  0.00     0.013 A 
ATOM     18  C   UNL     1     -18.026 -41.975  24.105  1.00  0.00    -0.009 A 
ATOM     19  C   UNL     1     -19.737 -40.856  22.674  1.00  0.00    -0.009 A 
ATOM     20  C   UNL     1     -17.626 -42.732  25.235  1.00  0.00     0.009 A 
ATOM     21  C   UNL     1     -17.029 -41.584  23.187  1.00  0.00    -0.017 A 
ATOM     22  C   UNL     1     -21.065 -40.479  22.360  1.00  0.00     0.009 A 
ATOM     23  C   UNL     1     -18.713 -40.480  21.778  1.00  0.00    -0.017 A 
ATOM     24  C   UNL     1     -16.289 -43.074  25.450  1.00  0.00     0.001 A 
ATOM     25  C   UNL     1     -15.687 -41.933  23.418  1.00  0.00     0.009 A 
ATOM     26  C   UNL     1     -17.384 -40.843  22.047  1.00  0.00     0.017 A 
ATOM     27  C   UNL     1     -21.365 -39.749  21.208  1.00  0.00     0.001 A 
ATOM     28  C   UNL     1     -19.030 -39.745  20.622  1.00  0.00     0.009 A 
ATOM     29  C   UNL     1     -15.320 -42.671  24.542  1.00  0.00     0.001 A 
ATOM     30  C   UNL     1     -20.345 -39.380  20.340  1.00  0.00     0.001 A 
ENDBRANCH  14  17
ENDBRANCH   4  11
TORSDOF 4
ENDMDL
