MODEL 1
REMARK VINA RESULT:    -7.505      0.000      0.000
REMARK INTER + INTRA:          -9.885
REMARK INTER:                  -9.479
REMARK INTRA:                  -0.406
REMARK UNBOUND:                -0.406
REMARK SMILES COc1ccc([C@@H](C)NS(N)(=O)=O)cc1
REMARK SMILES IDX 7 1 8 2 6 3 3 4 4 5 15 6 5 7 14 8 2 9 1 10 9 11 10 13 12 14
REMARK SMILES IDX 13 15 11 16
REMARK H PARENT 9 12 11 17 11 18
ROOT
ATOM      1  C   UNL     1     -12.586 -45.298  28.531  1.00  0.00     0.097 C 
ATOM      2  C   UNL     1     -12.699 -46.176  27.282  1.00  0.00     0.031 C 
ENDROOT
BRANCH   1   3
ATOM      3  C   UNL     1     -11.403 -44.346  28.443  1.00  0.00    -0.030 A 
ATOM      4  C   UNL     1      -9.170 -42.625  28.265  1.00  0.00     0.118 A 
ATOM      5  C   UNL     1     -10.374 -42.295  27.641  1.00  0.00     0.047 A 
ATOM      6  C   UNL     1      -9.080 -43.822  28.974  1.00  0.00     0.047 A 
ATOM      7  C   UNL     1     -11.479 -43.145  27.724  1.00  0.00     0.009 A 
ATOM      8  C   UNL     1     -10.186 -44.677  29.059  1.00  0.00     0.009 A 
BRANCH   4   9
ATOM      9  O   UNL     1      -8.171 -41.706  28.104  1.00  0.00    -0.497 OA
ATOM     10  C   UNL     1      -7.755 -41.434  26.772  1.00  0.00     0.278 C 
ENDBRANCH   4   9
ENDBRANCH   1   3
BRANCH   1  11
ATOM     11  N   UNL     1     -12.465 -46.158  29.716  1.00  0.00    -0.195 NA
ATOM     12  H   UNL     1     -11.527 -46.501  29.915  1.00  0.00     0.143 HD
BRANCH  11  13
ATOM     13  S   UNL     1     -13.269 -45.752  31.099  1.00  0.00     0.274 S 
ATOM     14  O   UNL     1     -13.901 -46.914  31.666  1.00  0.00    -0.195 OA
ATOM     15  O   UNL     1     -12.464 -44.832  31.856  1.00  0.00    -0.195 OA
BRANCH  13  16
ATOM     16  N   UNL     1     -14.492 -44.849  30.424  1.00  0.00    -0.216 NA
ATOM     17  H   UNL     1     -14.869 -45.354  29.621  1.00  0.00     0.138 HD
ATOM     18  H   UNL     1     -15.215 -44.710  31.132  1.00  0.00     0.138 HD
ENDBRANCH  13  16
ENDBRANCH  11  13
ENDBRANCH   1  11
TORSDOF 5
ENDMDL
MODEL 2
REMARK VINA RESULT:    -7.225      3.749      5.025
REMARK INTER + INTRA:          -9.532
REMARK INTER:                  -9.130
REMARK INTRA:                  -0.402
REMARK UNBOUND:                -0.406
REMARK SMILES COc1ccc([C@@H](C)NS(N)(=O)=O)cc1
REMARK SMILES IDX 7 1 8 2 6 3 3 4 4 5 15 6 5 7 14 8 2 9 1 10 9 11 10 13 12 14
REMARK SMILES IDX 13 15 11 16
REMARK H PARENT 9 12 11 17 11 18
ROOT
ATOM      1  C   UNL     1     -13.450 -45.265  28.303  1.00  0.00     0.097 C 
ATOM      2  C   UNL     1     -12.445 -46.199  27.626  1.00  0.00     0.031 C 
ENDROOT
BRANCH   1   3
ATOM      3  C   UNL     1     -14.265 -44.483  27.285  1.00  0.00    -0.030 A 
ATOM      4  C   UNL     1     -15.764 -42.979  25.422  1.00  0.00     0.118 A 
ATOM      5  C   UNL     1     -14.830 -43.921  24.988  1.00  0.00     0.047 A 
ATOM      6  C   UNL     1     -15.944 -42.783  26.790  1.00  0.00     0.047 A 
ATOM      7  C   UNL     1     -14.084 -44.664  25.906  1.00  0.00     0.009 A 
ATOM      8  C   UNL     1     -15.198 -43.526  27.714  1.00  0.00     0.009 A 
BRANCH   4   9
ATOM      9  O   UNL     1     -16.423 -42.323  24.420  1.00  0.00    -0.497 OA
ATOM     10  C   UNL     1     -16.725 -43.073  23.250  1.00  0.00     0.278 C 
ENDBRANCH   4   9
ENDBRANCH   1   3
BRANCH   1  11
ATOM     11  N   UNL     1     -12.730 -44.348  29.197  1.00  0.00    -0.195 NA
ATOM     12  H   UNL     1     -12.835 -43.357  28.986  1.00  0.00     0.143 HD
BRANCH  11  13
ATOM     13  S   UNL     1     -12.739 -44.626  30.824  1.00  0.00     0.274 S 
ATOM     14  O   UNL     1     -11.662 -45.508  31.184  1.00  0.00    -0.195 OA
ATOM     15  O   UNL     1     -13.024 -43.393  31.508  1.00  0.00    -0.195 OA
BRANCH  13  16
ATOM     16  N   UNL     1     -14.129 -45.537  30.916  1.00  0.00    -0.216 NA
ATOM     17  H   UNL     1     -13.904 -46.503  30.680  1.00  0.00     0.138 HD
ATOM     18  H   UNL     1     -14.489 -45.474  31.870  1.00  0.00     0.138 HD
ENDBRANCH  13  16
ENDBRANCH  11  13
ENDBRANCH   1  11
TORSDOF 5
ENDMDL
MODEL 3
REMARK VINA RESULT:    -7.017      4.637      5.812
REMARK INTER + INTRA:          -9.270
REMARK INTER:                  -9.001
REMARK INTRA:                  -0.268
REMARK UNBOUND:                -0.406
REMARK SMILES COc1ccc([C@@H](C)NS(N)(=O)=O)cc1
REMARK SMILES IDX 7 1 8 2 6 3 3 4 4 5 15 6 5 7 14 8 2 9 1 10 9 11 10 13 12 14
REMARK SMILES IDX 13 15 11 16
REMARK H PARENT 9 12 11 17 11 18
ROOT
ATOM      1  C   UNL     1     -13.409 -44.378  27.662  1.00  0.00     0.097 C 
ATOM      2  C   UNL     1     -13.013 -45.849  27.505  1.00  0.00     0.031 C 
ENDROOT
BRANCH   1   3
ATOM      3  C   UNL     1     -14.384 -43.941  26.580  1.00  0.00    -0.030 A 
ATOM      4  C   UNL     1     -16.195 -43.074  24.593  1.00  0.00     0.118 A 
ATOM      5  C   UNL     1     -15.077 -43.836  24.252  1.00  0.00     0.047 A 
ATOM      6  C   UNL     1     -16.405 -42.738  25.930  1.00  0.00     0.047 A 
ATOM      7  C   UNL     1     -14.177 -44.265  25.232  1.00  0.00     0.009 A 
ATOM      8  C   UNL     1     -15.504 -43.165  26.915  1.00  0.00     0.009 A 
BRANCH   4   9
ATOM      9  O   UNL     1     -16.991 -42.722  23.539  1.00  0.00    -0.497 OA
ATOM     10  C   UNL     1     -16.535 -41.656  22.716  1.00  0.00     0.278 C 
ENDBRANCH   4   9
ENDBRANCH   1   3
BRANCH   1  11
ATOM     11  N   UNL     1     -12.198 -43.547  27.627  1.00  0.00    -0.195 NA
ATOM     12  H   UNL     1     -12.324 -42.605  27.261  1.00  0.00     0.143 HD
BRANCH  11  13
ATOM     13  S   UNL     1     -11.162 -43.566  28.912  1.00  0.00     0.274 S 
ATOM     14  O   UNL     1     -11.901 -43.577  30.146  1.00  0.00    -0.195 OA
ATOM     15  O   UNL     1     -10.075 -44.462  28.624  1.00  0.00    -0.195 OA
BRANCH  13  16
ATOM     16  N   UNL     1     -10.546 -42.028  28.760  1.00  0.00    -0.216 NA
ATOM     17  H   UNL     1     -11.306 -41.356  28.872  1.00  0.00     0.138 HD
ATOM     18  H   UNL     1      -9.839 -41.894  29.486  1.00  0.00     0.138 HD
ENDBRANCH  13  16
ENDBRANCH  11  13
ENDBRANCH   1  11
TORSDOF 5
ENDMDL
MODEL 4
REMARK VINA RESULT:    -6.953      3.878      4.187
REMARK INTER + INTRA:          -9.189
REMARK INTER:                  -8.974
REMARK INTRA:                  -0.215
REMARK UNBOUND:                -0.406
REMARK SMILES COc1ccc([C@@H](C)NS(N)(=O)=O)cc1
REMARK SMILES IDX 7 1 8 2 6 3 3 4 4 5 15 6 5 7 14 8 2 9 1 10 9 11 10 13 12 14
REMARK SMILES IDX 13 15 11 16
REMARK H PARENT 9 12 11 17 11 18
ROOT
ATOM      1  C   UNL     1     -12.850 -44.922  31.195  1.00  0.00     0.097 C 
ATOM      2  C   UNL     1     -13.482 -46.237  30.733  1.00  0.00     0.031 C 
ENDROOT
BRANCH   1   3
ATOM      3  C   UNL     1     -11.355 -45.070  31.433  1.00  0.00    -0.030 A 
ATOM      4  C   UNL     1      -8.573 -45.365  31.821  1.00  0.00     0.118 A 
ATOM      5  C   UNL     1      -9.218 -44.179  32.174  1.00  0.00     0.047 A 
ATOM      6  C   UNL     1      -9.319 -46.403  31.266  1.00  0.00     0.047 A 
ATOM      7  C   UNL     1     -10.593 -44.028  31.981  1.00  0.00     0.009 A 
ATOM      8  C   UNL     1     -10.698 -46.255  31.071  1.00  0.00     0.009 A 
BRANCH   4   9
ATOM      9  O   UNL     1      -7.227 -45.379  32.063  1.00  0.00    -0.497 OA
ATOM     10  C   UNL     1      -6.653 -44.182  32.573  1.00  0.00     0.278 C 
ENDBRANCH   4   9
ENDBRANCH   1   3
BRANCH   1  11
ATOM     11  N   UNL     1     -13.522 -44.468  32.419  1.00  0.00    -0.195 NA
ATOM     12  H   UNL     1     -13.074 -44.740  33.292  1.00  0.00     0.143 HD
BRANCH  11  13
ATOM     13  S   UNL     1     -14.117 -42.930  32.496  1.00  0.00     0.274 S 
ATOM     14  O   UNL     1     -13.043 -41.977  32.408  1.00  0.00    -0.195 OA
ATOM     15  O   UNL     1     -15.320 -42.852  31.712  1.00  0.00    -0.195 OA
BRANCH  13  16
ATOM     16  N   UNL     1     -14.602 -42.928  34.088  1.00  0.00    -0.216 NA
ATOM     17  H   UNL     1     -15.260 -42.161  34.231  1.00  0.00     0.138 HD
ATOM     18  H   UNL     1     -15.048 -43.825  34.287  1.00  0.00     0.138 HD
ENDBRANCH  13  16
ENDBRANCH  11  13
ENDBRANCH   1  11
TORSDOF 5
ENDMDL
MODEL 5
REMARK VINA RESULT:    -6.868      6.411      7.970
REMARK INTER + INTRA:          -9.080
REMARK INTER:                  -8.733
REMARK INTRA:                  -0.347
REMARK UNBOUND:                -0.406
REMARK SMILES COc1ccc([C@@H](C)NS(N)(=O)=O)cc1
REMARK SMILES IDX 7 1 8 2 6 3 3 4 4 5 15 6 5 7 14 8 2 9 1 10 9 11 10 13 12 14
REMARK SMILES IDX 13 15 11 16
REMARK H PARENT 9 12 11 17 11 18
ROOT
ATOM      1  C   UNL     1     -15.492 -42.946  25.567  1.00  0.00     0.097 C 
ATOM      2  C   UNL     1     -15.062 -42.123  24.350  1.00  0.00     0.031 C 
ENDROOT
BRANCH   1   3
ATOM      3  C   UNL     1     -16.903 -42.593  26.013  1.00  0.00    -0.030 A 
ATOM      4  C   UNL     1     -19.544 -41.980  26.803  1.00  0.00     0.118 A 
ATOM      5  C   UNL     1     -18.554 -42.218  27.757  1.00  0.00     0.047 A 
ATOM      6  C   UNL     1     -19.215 -42.055  25.450  1.00  0.00     0.047 A 
ATOM      7  C   UNL     1     -17.247 -42.525  27.370  1.00  0.00     0.009 A 
ATOM      8  C   UNL     1     -17.906 -42.363  25.059  1.00  0.00     0.009 A 
BRANCH   4   9
ATOM      9  O   UNL     1     -20.777 -41.691  27.318  1.00  0.00    -0.497 OA
ATOM     10  C   UNL     1     -21.620 -40.853  26.537  1.00  0.00     0.278 C 
ENDBRANCH   4   9
ENDBRANCH   1   3
BRANCH   1  11
ATOM     11  N   UNL     1     -14.538 -42.723  26.661  1.00  0.00    -0.195 NA
ATOM     12  H   UNL     1     -14.873 -42.136  27.422  1.00  0.00     0.143 HD
BRANCH  11  13
ATOM     13  S   UNL     1     -13.635 -43.987  27.221  1.00  0.00     0.274 S 
ATOM     14  O   UNL     1     -13.846 -45.150  26.401  1.00  0.00    -0.195 OA
ATOM     15  O   UNL     1     -12.335 -43.502  27.601  1.00  0.00    -0.195 OA
BRANCH  13  16
ATOM     16  N   UNL     1     -14.455 -44.271  28.640  1.00  0.00    -0.216 NA
ATOM     17  H   UNL     1     -14.969 -45.148  28.553  1.00  0.00     0.138 HD
ATOM     18  H   UNL     1     -13.772 -44.329  29.398  1.00  0.00     0.138 HD
ENDBRANCH  13  16
ENDBRANCH  11  13
ENDBRANCH   1  11
TORSDOF 5
ENDMDL
MODEL 6
REMARK VINA RESULT:    -6.858      4.980      6.045
REMARK INTER + INTRA:          -9.069
REMARK INTER:                  -8.716
REMARK INTRA:                  -0.352
REMARK UNBOUND:                -0.406
REMARK SMILES COc1ccc([C@@H](C)NS(N)(=O)=O)cc1
REMARK SMILES IDX 7 1 8 2 6 3 3 4 4 5 15 6 5 7 14 8 2 9 1 10 9 11 10 13 12 14
REMARK SMILES IDX 13 15 11 16
REMARK H PARENT 9 12 11 17 11 18
ROOT
ATOM      1  C   UNL     1     -15.591 -43.488  26.731  1.00  0.00     0.097 C 
ATOM      2  C   UNL     1     -16.402 -42.572  27.651  1.00  0.00     0.031 C 
ENDROOT
BRANCH   1   3
ATOM      3  C   UNL     1     -14.543 -44.275  27.503  1.00  0.00    -0.030 A 
ATOM      4  C   UNL     1     -12.640 -45.759  28.971  1.00  0.00     0.118 A 
ATOM      5  C   UNL     1     -12.629 -45.772  27.576  1.00  0.00     0.047 A 
ATOM      6  C   UNL     1     -13.609 -45.007  29.634  1.00  0.00     0.047 A 
ATOM      7  C   UNL     1     -13.570 -45.042  26.846  1.00  0.00     0.009 A 
ATOM      8  C   UNL     1     -14.555 -44.274  28.906  1.00  0.00     0.009 A 
BRANCH   4   9
ATOM      9  O   UNL     1     -11.665 -46.515  29.559  1.00  0.00    -0.497 OA
ATOM     10  C   UNL     1     -11.241 -46.123  30.858  1.00  0.00     0.278 C 
ENDBRANCH   4   9
ENDBRANCH   1   3
BRANCH   1  11
ATOM     11  N   UNL     1     -14.955 -42.679  25.683  1.00  0.00    -0.195 NA
ATOM     12  H   UNL     1     -13.946 -42.569  25.765  1.00  0.00     0.143 HD
BRANCH  11  13
ATOM     13  S   UNL     1     -15.418 -42.876  24.111  1.00  0.00     0.274 S 
ATOM     14  O   UNL     1     -14.697 -43.967  23.513  1.00  0.00    -0.195 OA
ATOM     15  O   UNL     1     -16.845 -42.716  24.018  1.00  0.00    -0.195 OA
BRANCH  13  16
ATOM     16  N   UNL     1     -14.755 -41.487  23.477  1.00  0.00    -0.216 NA
ATOM     17  H   UNL     1     -15.431 -41.059  22.845  1.00  0.00     0.138 HD
ATOM     18  H   UNL     1     -14.537 -40.856  24.251  1.00  0.00     0.138 HD
ENDBRANCH  13  16
ENDBRANCH  11  13
ENDBRANCH   1  11
TORSDOF 5
ENDMDL
MODEL 7
REMARK VINA RESULT:    -6.758      1.881      2.502
REMARK INTER + INTRA:          -8.942
REMARK INTER:                  -8.578
REMARK INTRA:                  -0.364
REMARK UNBOUND:                -0.406
REMARK SMILES COc1ccc([C@@H](C)NS(N)(=O)=O)cc1
REMARK SMILES IDX 7 1 8 2 6 3 3 4 4 5 15 6 5 7 14 8 2 9 1 10 9 11 10 13 12 14
REMARK SMILES IDX 13 15 11 16
REMARK H PARENT 9 12 11 17 11 18
ROOT
ATOM      1  C   UNL     1     -11.309 -45.193  30.693  1.00  0.00     0.097 C 
ATOM      2  C   UNL     1     -10.504 -46.319  31.347  1.00  0.00     0.031 C 
ENDROOT
BRANCH   1   3
ATOM      3  C   UNL     1     -10.411 -44.229  29.934  1.00  0.00    -0.030 A 
ATOM      4  C   UNL     1      -8.786 -42.395  28.529  1.00  0.00     0.118 A 
ATOM      5  C   UNL     1      -8.262 -43.150  29.579  1.00  0.00     0.047 A 
ATOM      6  C   UNL     1     -10.128 -42.551  28.185  1.00  0.00     0.047 A 
ATOM      7  C   UNL     1      -9.063 -44.056  30.278  1.00  0.00     0.009 A 
ATOM      8  C   UNL     1     -10.934 -43.458  28.884  1.00  0.00     0.009 A 
BRANCH   4   9
ATOM      9  O   UNL     1      -7.894 -41.548  27.932  1.00  0.00    -0.497 OA
ATOM     10  C   UNL     1      -7.819 -41.589  26.513  1.00  0.00     0.278 C 
ENDBRANCH   4   9
ENDBRANCH   1   3
BRANCH   1  11
ATOM     11  N   UNL     1     -12.069 -44.480  31.728  1.00  0.00    -0.195 NA
ATOM     12  H   UNL     1     -11.618 -43.650  32.108  1.00  0.00     0.143 HD
BRANCH  11  13
ATOM     13  S   UNL     1     -13.692 -44.255  31.534  1.00  0.00     0.274 S 
ATOM     14  O   UNL     1     -14.111 -43.053  32.204  1.00  0.00    -0.195 OA
ATOM     15  O   UNL     1     -14.052 -44.581  30.180  1.00  0.00    -0.195 OA
BRANCH  13  16
ATOM     16  N   UNL     1     -14.235 -45.516  32.473  1.00  0.00    -0.216 NA
ATOM     17  H   UNL     1     -13.653 -45.579  33.308  1.00  0.00     0.138 HD
ATOM     18  H   UNL     1     -15.208 -45.331  32.726  1.00  0.00     0.138 HD
ENDBRANCH  13  16
ENDBRANCH  11  13
ENDBRANCH   1  11
TORSDOF 5
ENDMDL
MODEL 8
REMARK VINA RESULT:    -6.525      2.929      4.297
REMARK INTER + INTRA:          -8.648
REMARK INTER:                  -8.315
REMARK INTRA:                  -0.333
REMARK UNBOUND:                -0.406
REMARK SMILES COc1ccc([C@@H](C)NS(N)(=O)=O)cc1
REMARK SMILES IDX 7 1 8 2 6 3 3 4 4 5 15 6 5 7 14 8 2 9 1 10 9 11 10 13 12 14
REMARK SMILES IDX 13 15 11 16
REMARK H PARENT 9 12 11 17 11 18
ROOT
ATOM      1  C   UNL     1     -10.812 -43.872  29.074  1.00  0.00     0.097 C 
ATOM      2  C   UNL     1      -9.497 -43.454  28.412  1.00  0.00     0.031 C 
ENDROOT
BRANCH   1   3
ATOM      3  C   UNL     1     -11.952 -43.932  28.069  1.00  0.00    -0.030 A 
ATOM      4  C   UNL     1     -14.105 -44.066  26.246  1.00  0.00     0.118 A 
ATOM      5  C   UNL     1     -13.334 -42.908  26.351  1.00  0.00     0.047 A 
ATOM      6  C   UNL     1     -13.804 -45.157  27.059  1.00  0.00     0.047 A 
ATOM      7  C   UNL     1     -12.270 -42.837  27.254  1.00  0.00     0.009 A 
ATOM      8  C   UNL     1     -12.739 -45.089  27.966  1.00  0.00     0.009 A 
BRANCH   4   9
ATOM      9  O   UNL     1     -15.113 -44.000  25.325  1.00  0.00    -0.497 OA
ATOM     10  C   UNL     1     -14.761 -44.237  23.967  1.00  0.00     0.278 C 
ENDBRANCH   4   9
ENDBRANCH   1   3
BRANCH   1  11
ATOM     11  N   UNL     1     -11.130 -42.928  30.154  1.00  0.00    -0.195 NA
ATOM     12  H   UNL     1     -11.719 -42.141  29.889  1.00  0.00     0.143 HD
BRANCH  11  13
ATOM     13  S   UNL     1     -11.527 -43.507  31.648  1.00  0.00     0.274 S 
ATOM     14  O   UNL     1     -12.322 -44.699  31.524  1.00  0.00    -0.195 OA
ATOM     15  O   UNL     1     -10.383 -43.396  32.513  1.00  0.00    -0.195 OA
BRANCH  13  16
ATOM     16  N   UNL     1     -12.576 -42.303  32.113  1.00  0.00    -0.216 NA
ATOM     17  H   UNL     1     -12.404 -42.076  33.093  1.00  0.00     0.138 HD
ATOM     18  H   UNL     1     -12.409 -41.487  31.521  1.00  0.00     0.138 HD
ENDBRANCH  13  16
ENDBRANCH  11  13
ENDBRANCH   1  11
TORSDOF 5
ENDMDL
MODEL 9
REMARK VINA RESULT:    -6.411      3.755      4.178
REMARK INTER + INTRA:          -8.504
REMARK INTER:                  -8.142
REMARK INTRA:                  -0.363
REMARK UNBOUND:                -0.406
REMARK SMILES COc1ccc([C@@H](C)NS(N)(=O)=O)cc1
REMARK SMILES IDX 7 1 8 2 6 3 3 4 4 5 15 6 5 7 14 8 2 9 1 10 9 11 10 13 12 14
REMARK SMILES IDX 13 15 11 16
REMARK H PARENT 9 12 11 17 11 18
ROOT
ATOM      1  C   UNL     1     -12.684 -45.684  30.395  1.00  0.00     0.097 C 
ATOM      2  C   UNL     1     -13.556 -46.529  31.327  1.00  0.00     0.031 C 
ENDROOT
BRANCH   1   3
ATOM      3  C   UNL     1     -11.572 -44.977  31.153  1.00  0.00    -0.030 A 
ATOM      4  C   UNL     1      -9.470 -43.669  32.513  1.00  0.00     0.118 A 
ATOM      5  C   UNL     1     -10.749 -43.113  32.479  1.00  0.00     0.047 A 
ATOM      6  C   UNL     1      -9.239 -44.879  31.860  1.00  0.00     0.047 A 
ATOM      7  C   UNL     1     -11.791 -43.755  31.805  1.00  0.00     0.009 A 
ATOM      8  C   UNL     1     -10.281 -45.525  31.182  1.00  0.00     0.009 A 
BRANCH   4   9
ATOM      9  O   UNL     1      -8.546 -42.938  33.207  1.00  0.00    -0.497 OA
ATOM     10  C   UNL     1      -8.998 -42.281  34.384  1.00  0.00     0.278 C 
ENDBRANCH   4   9
ENDBRANCH   1   3
BRANCH   1  11
ATOM     11  N   UNL     1     -13.531 -44.708  29.697  1.00  0.00    -0.195 NA
ATOM     12  H   UNL     1     -13.545 -43.773  30.100  1.00  0.00     0.143 HD
BRANCH  11  13
ATOM     13  S   UNL     1     -13.522 -44.657  28.047  1.00  0.00     0.274 S 
ATOM     14  O   UNL     1     -13.003 -45.888  27.515  1.00  0.00    -0.195 OA
ATOM     15  O   UNL     1     -14.738 -44.039  27.591  1.00  0.00    -0.195 OA
BRANCH  13  16
ATOM     16  N   UNL     1     -12.321 -43.524  27.837  1.00  0.00    -0.216 NA
ATOM     17  H   UNL     1     -12.359 -42.858  28.609  1.00  0.00     0.138 HD
ATOM     18  H   UNL     1     -11.422 -44.010  27.825  1.00  0.00     0.138 HD
ENDBRANCH  13  16
ENDBRANCH  11  13
ENDBRANCH   1  11
TORSDOF 5
ENDMDL
