MODEL 1
REMARK VINA RESULT:    -9.356      0.000      0.000
REMARK INTER + INTRA:         -15.795
REMARK INTER:                 -15.100
REMARK INTRA:                  -0.695
REMARK UNBOUND:                -0.695
REMARK SMILES CCOCC[n+]1ccc(CC=C(O)[C@@H]2Cc3cc(OC)c(OC)cc3S2)cc1
REMARK SMILES IDX 9 1 8 2 7 3 6 4 28 5 27 6 10 7 11 8 12 9 13 10 14 12 15 13
REMARK SMILES IDX 26 14 16 15 25 16 17 17 24 18 18 19 21 20 19 21 20 22 22 23
REMARK SMILES IDX 23 24 5 25 4 26 3 27 2 28 1 29
REMARK H PARENT 13 11
ROOT
ATOM      1  C   UNL     1     -11.990 -46.171  28.395  1.00  0.00    -0.032 A 
ATOM      2  C   UNL     1     -10.659 -46.445  28.073  1.00  0.00     0.074 A 
ATOM      3  C   UNL     1      -9.710 -46.550  29.082  1.00  0.00     0.308 A 
ATOM      4  N   UNL     1     -10.066 -46.394  30.378  1.00  0.00    -0.203 N 
ATOM      5  C   UNL     1     -11.347 -46.121  30.715  1.00  0.00     0.308 A 
ATOM      6  C   UNL     1     -12.329 -46.004  29.737  1.00  0.00     0.074 A 
ENDROOT
BRANCH   1   7
ATOM      7  C   UNL     1     -13.017 -46.017  27.296  1.00  0.00     0.067 C 
BRANCH   7   8
ATOM      8  C   UNL     1     -13.876 -44.802  27.504  1.00  0.00     0.020 C 
BRANCH   8   9
ATOM      9  C   UNL     1     -13.581 -43.570  27.060  1.00  0.00     0.102 C 
BRANCH   9  10
ATOM     10  O   UNL     1     -12.307 -43.059  27.260  1.00  0.00    -0.511 OA
ATOM     11  H   UNL     1     -12.385 -42.300  27.873  1.00  0.00     0.293 HD
ENDBRANCH   9  10
BRANCH   9  12
ATOM     12  C   UNL     1     -14.589 -42.675  26.370  1.00  0.00     0.121 C 
ATOM     13  C   UNL     1     -16.021 -42.823  26.923  1.00  0.00     0.059 C 
ATOM     14  S   UNL     1     -14.675 -43.081  24.586  1.00  0.00    -0.114 SA
ATOM     15  C   UNL     1     -16.963 -42.561  25.783  1.00  0.00    -0.029 A 
ATOM     16  C   UNL     1     -16.399 -42.693  24.516  1.00  0.00     0.015 A 
ATOM     17  C   UNL     1     -18.319 -42.276  25.922  1.00  0.00     0.055 A 
ATOM     18  C   UNL     1     -17.157 -42.533  23.366  1.00  0.00     0.065 A 
ATOM     19  C   UNL     1     -19.103 -42.104  24.773  1.00  0.00     0.161 A 
ATOM     20  C   UNL     1     -18.517 -42.229  23.489  1.00  0.00     0.161 A 
BRANCH  19  21
ATOM     21  O   UNL     1     -20.446 -41.817  24.790  1.00  0.00    -0.493 OA
ATOM     22  C   UNL     1     -21.317 -42.749  25.413  1.00  0.00     0.278 C 
ENDBRANCH  19  21
BRANCH  20  23
ATOM     23  O   UNL     1     -19.366 -42.049  22.425  1.00  0.00    -0.493 OA
ATOM     24  C   UNL     1     -19.270 -40.832  21.697  1.00  0.00     0.278 C 
ENDBRANCH  20  23
ENDBRANCH   9  12
ENDBRANCH   8   9
ENDBRANCH   7   8
ENDBRANCH   1   7
BRANCH   4  25
ATOM     25  C   UNL     1      -9.034 -46.505  31.434  1.00  0.00     0.385 C 
BRANCH  25  26
ATOM     26  C   UNL     1      -8.324 -45.166  31.611  1.00  0.00     0.233 C 
BRANCH  26  27
ATOM     27  O   UNL     1      -9.091 -44.293  32.434  1.00  0.00    -0.375 OA
BRANCH  27  28
ATOM     28  C   UNL     1      -8.365 -43.155  32.900  1.00  0.00     0.157 C 
ATOM     29  C   UNL     1      -9.216 -42.438  33.929  1.00  0.00     0.035 C 
ENDBRANCH  27  28
ENDBRANCH  26  27
ENDBRANCH  25  26
ENDBRANCH   4  25
TORSDOF 11
ENDMDL
MODEL 2
REMARK VINA RESULT:    -9.110      3.344      9.641
REMARK INTER + INTRA:         -15.396
REMARK INTER:                 -14.525
REMARK INTRA:                  -0.871
REMARK UNBOUND:                -0.695
REMARK SMILES CCOCC[n+]1ccc(CC=C(O)[C@@H]2Cc3cc(OC)c(OC)cc3S2)cc1
REMARK SMILES IDX 9 1 8 2 7 3 6 4 28 5 27 6 10 7 11 8 12 9 13 10 14 12 15 13
REMARK SMILES IDX 26 14 16 15 25 16 17 17 24 18 18 19 21 20 19 21 20 22 22 23
REMARK SMILES IDX 23 24 5 25 4 26 3 27 2 28 1 29
REMARK H PARENT 13 11
ROOT
ATOM      1  C   UNL     1     -14.774 -43.409  26.230  1.00  0.00    -0.032 A 
ATOM      2  C   UNL     1     -15.126 -43.536  24.884  1.00  0.00     0.074 A 
ATOM      3  C   UNL     1     -16.378 -43.118  24.454  1.00  0.00     0.308 A 
ATOM      4  N   UNL     1     -17.262 -42.584  25.328  1.00  0.00    -0.203 N 
ATOM      5  C   UNL     1     -16.948 -42.458  26.637  1.00  0.00     0.308 A 
ATOM      6  C   UNL     1     -15.706 -42.865  27.113  1.00  0.00     0.074 A 
ENDROOT
BRANCH   1   7
ATOM      7  C   UNL     1     -13.426 -43.898  26.709  1.00  0.00     0.067 C 
BRANCH   7   8
ATOM      8  C   UNL     1     -13.442 -45.370  27.009  1.00  0.00     0.020 C 
BRANCH   8   9
ATOM      9  C   UNL     1     -12.555 -46.002  27.794  1.00  0.00     0.102 C 
BRANCH   9  10
ATOM     10  O   UNL     1     -11.695 -46.938  27.238  1.00  0.00    -0.511 OA
ATOM     11  H   UNL     1     -11.073 -46.458  26.653  1.00  0.00     0.293 HD
ENDBRANCH   9  10
BRANCH   9  12
ATOM     12  C   UNL     1     -12.461 -45.772  29.288  1.00  0.00     0.121 C 
ATOM     13  C   UNL     1     -13.714 -45.099  29.885  1.00  0.00     0.059 C 
ATOM     14  S   UNL     1     -11.047 -44.674  29.669  1.00  0.00    -0.114 SA
ATOM     15  C   UNL     1     -13.254 -44.266  31.048  1.00  0.00    -0.029 A 
ATOM     16  C   UNL     1     -11.897 -43.948  31.039  1.00  0.00     0.015 A 
ATOM     17  C   UNL     1     -14.087 -43.764  32.045  1.00  0.00     0.055 A 
ATOM     18  C   UNL     1     -11.337 -43.142  32.018  1.00  0.00     0.065 A 
ATOM     19  C   UNL     1     -13.541 -42.953  33.048  1.00  0.00     0.161 A 
ATOM     20  C   UNL     1     -12.158 -42.645  33.036  1.00  0.00     0.161 A 
BRANCH  19  21
ATOM     21  O   UNL     1     -14.265 -42.408  34.080  1.00  0.00    -0.493 OA
ATOM     22  C   UNL     1     -15.235 -41.422  33.762  1.00  0.00     0.278 C 
ENDBRANCH  19  21
BRANCH  20  23
ATOM     23  O   UNL     1     -11.717 -41.839  34.058  1.00  0.00    -0.493 OA
ATOM     24  C   UNL     1     -10.347 -41.922  34.425  1.00  0.00     0.278 C 
ENDBRANCH  20  23
ENDBRANCH   9  12
ENDBRANCH   8   9
ENDBRANCH   7   8
ENDBRANCH   1   7
BRANCH   4  25
ATOM     25  C   UNL     1     -18.593 -42.153  24.844  1.00  0.00     0.385 C 
BRANCH  25  26
ATOM     26  C   UNL     1     -18.656 -42.264  23.324  1.00  0.00     0.233 C 
BRANCH  26  27
ATOM     27  O   UNL     1     -19.376 -41.169  22.768  1.00  0.00    -0.375 OA
BRANCH  27  28
ATOM     28  C   UNL     1     -18.689 -40.507  21.706  1.00  0.00     0.157 C 
ATOM     29  C   UNL     1     -17.199 -40.606  21.969  1.00  0.00     0.035 C 
ENDBRANCH  27  28
ENDBRANCH  26  27
ENDBRANCH  25  26
ENDBRANCH   4  25
TORSDOF 11
ENDMDL
MODEL 3
REMARK VINA RESULT:    -9.093      1.778      2.304
REMARK INTER + INTRA:         -15.369
REMARK INTER:                 -14.699
REMARK INTRA:                  -0.669
REMARK UNBOUND:                -0.695
REMARK SMILES CCOCC[n+]1ccc(CC=C(O)[C@@H]2Cc3cc(OC)c(OC)cc3S2)cc1
REMARK SMILES IDX 9 1 8 2 7 3 6 4 28 5 27 6 10 7 11 8 12 9 13 10 14 12 15 13
REMARK SMILES IDX 26 14 16 15 25 16 17 17 24 18 18 19 21 20 19 21 20 22 22 23
REMARK SMILES IDX 23 24 5 25 4 26 3 27 2 28 1 29
REMARK H PARENT 13 11
ROOT
ATOM      1  C   UNL     1     -13.084 -45.626  27.544  1.00  0.00    -0.032 A 
ATOM      2  C   UNL     1     -11.896 -46.349  27.665  1.00  0.00     0.074 A 
ATOM      3  C   UNL     1     -11.270 -46.450  28.900  1.00  0.00     0.308 A 
ATOM      4  N   UNL     1     -11.805 -45.855  29.992  1.00  0.00    -0.203 N 
ATOM      5  C   UNL     1     -12.952 -45.144  29.899  1.00  0.00     0.308 A 
ATOM      6  C   UNL     1     -13.611 -45.014  28.680  1.00  0.00     0.074 A 
ENDROOT
BRANCH   1   7
ATOM      7  C   UNL     1     -13.747 -45.482  26.192  1.00  0.00     0.067 C 
BRANCH   7   8
ATOM      8  C   UNL     1     -14.364 -44.123  26.017  1.00  0.00     0.020 C 
BRANCH   8   9
ATOM      9  C   UNL     1     -14.952 -43.689  24.890  1.00  0.00     0.102 C 
BRANCH   9  10
ATOM     10  O   UNL     1     -14.591 -44.246  23.672  1.00  0.00    -0.511 OA
ATOM     11  H   UNL     1     -15.071 -45.094  23.580  1.00  0.00     0.293 HD
ENDBRANCH   9  10
BRANCH   9  12
ATOM     12  C   UNL     1     -15.983 -42.579  24.870  1.00  0.00     0.121 C 
ATOM     13  C   UNL     1     -17.035 -42.698  25.992  1.00  0.00     0.059 C 
ATOM     14  S   UNL     1     -16.903 -42.603  23.287  1.00  0.00    -0.114 SA
ATOM     15  C   UNL     1     -18.314 -42.118  25.459  1.00  0.00    -0.029 A 
ATOM     16  C   UNL     1     -18.388 -42.044  24.069  1.00  0.00     0.015 A 
ATOM     17  C   UNL     1     -19.402 -41.738  26.241  1.00  0.00     0.055 A 
ATOM     18  C   UNL     1     -19.526 -41.580  23.428  1.00  0.00     0.065 A 
ATOM     19  C   UNL     1     -20.561 -41.261  25.615  1.00  0.00     0.161 A 
ATOM     20  C   UNL     1     -20.621 -41.177  24.202  1.00  0.00     0.161 A 
BRANCH  19  21
ATOM     21  O   UNL     1     -21.689 -40.855  26.285  1.00  0.00    -0.493 OA
ATOM     22  C   UNL     1     -22.481 -41.850  26.916  1.00  0.00     0.278 C 
ENDBRANCH  19  21
BRANCH  20  23
ATOM     23  O   UNL     1     -21.800 -40.702  23.681  1.00  0.00    -0.493 OA
ATOM     24  C   UNL     1     -21.884 -40.535  22.273  1.00  0.00     0.278 C 
ENDBRANCH  20  23
ENDBRANCH   9  12
ENDBRANCH   8   9
ENDBRANCH   7   8
ENDBRANCH   1   7
BRANCH   4  25
ATOM     25  C   UNL     1     -11.115 -45.972  31.297  1.00  0.00     0.385 C 
BRANCH  25  26
ATOM     26  C   UNL     1     -10.637 -44.598  31.757  1.00  0.00     0.233 C 
BRANCH  26  27
ATOM     27  O   UNL     1      -9.272 -44.648  32.159  1.00  0.00    -0.375 OA
BRANCH  27  28
ATOM     28  C   UNL     1      -8.496 -45.609  31.444  1.00  0.00     0.157 C 
ATOM     29  C   UNL     1      -7.032 -45.354  31.743  1.00  0.00     0.035 C 
ENDBRANCH  27  28
ENDBRANCH  26  27
ENDBRANCH  25  26
ENDBRANCH   4  25
TORSDOF 11
ENDMDL
MODEL 4
REMARK VINA RESULT:    -8.592      2.391      3.865
REMARK INTER + INTRA:         -14.561
REMARK INTER:                 -13.887
REMARK INTRA:                  -0.673
REMARK UNBOUND:                -0.695
REMARK SMILES CCOCC[n+]1ccc(CC=C(O)[C@@H]2Cc3cc(OC)c(OC)cc3S2)cc1
REMARK SMILES IDX 9 1 8 2 7 3 6 4 28 5 27 6 10 7 11 8 12 9 13 10 14 12 15 13
REMARK SMILES IDX 26 14 16 15 25 16 17 17 24 18 18 19 21 20 19 21 20 22 22 23
REMARK SMILES IDX 23 24 5 25 4 26 3 27 2 28 1 29
REMARK H PARENT 13 11
ROOT
ATOM      1  C   UNL     1     -13.417 -44.059  26.791  1.00  0.00    -0.032 A 
ATOM      2  C   UNL     1     -13.165 -45.039  27.753  1.00  0.00     0.074 A 
ATOM      3  C   UNL     1     -12.120 -44.874  28.653  1.00  0.00     0.308 A 
ATOM      4  N   UNL     1     -11.344 -43.767  28.608  1.00  0.00    -0.203 N 
ATOM      5  C   UNL     1     -11.563 -42.807  27.681  1.00  0.00     0.308 A 
ATOM      6  C   UNL     1     -12.597 -42.932  26.759  1.00  0.00     0.074 A 
ENDROOT
BRANCH   1   7
ATOM      7  C   UNL     1     -14.529 -44.254  25.786  1.00  0.00     0.067 C 
BRANCH   7   8
ATOM      8  C   UNL     1     -15.264 -42.973  25.513  1.00  0.00     0.020 C 
BRANCH   8   9
ATOM      9  C   UNL     1     -15.519 -42.481  24.289  1.00  0.00     0.102 C 
BRANCH   9  10
ATOM     10  O   UNL     1     -14.510 -41.838  23.588  1.00  0.00    -0.511 OA
ATOM     11  H   UNL     1     -14.346 -40.978  24.025  1.00  0.00     0.293 HD
ENDBRANCH   9  10
BRANCH   9  12
ATOM     12  C   UNL     1     -16.882 -42.560  23.634  1.00  0.00     0.121 C 
ATOM     13  C   UNL     1     -17.094 -41.504  22.530  1.00  0.00     0.059 C 
ATOM     14  S   UNL     1     -18.196 -42.285  24.879  1.00  0.00    -0.114 SA
ATOM     15  C   UNL     1     -18.557 -41.162  22.523  1.00  0.00    -0.029 A 
ATOM     16  C   UNL     1     -19.239 -41.486  23.695  1.00  0.00     0.015 A 
ATOM     17  C   UNL     1     -19.216 -40.508  21.485  1.00  0.00     0.055 A 
ATOM     18  C   UNL     1     -20.582 -41.184  23.858  1.00  0.00     0.065 A 
ATOM     19  C   UNL     1     -20.575 -40.198  21.625  1.00  0.00     0.161 A 
ATOM     20  C   UNL     1     -21.262 -40.542  22.816  1.00  0.00     0.161 A 
BRANCH  19  21
ATOM     21  O   UNL     1     -21.325 -39.560  20.668  1.00  0.00    -0.493 OA
ATOM     22  C   UNL     1     -20.748 -38.444  20.007  1.00  0.00     0.278 C 
ENDBRANCH  19  21
BRANCH  20  23
ATOM     23  O   UNL     1     -22.590 -40.194  22.862  1.00  0.00    -0.493 OA
ATOM     24  C   UNL     1     -23.551 -41.239  22.872  1.00  0.00     0.278 C 
ENDBRANCH  20  23
ENDBRANCH   9  12
ENDBRANCH   8   9
ENDBRANCH   7   8
ENDBRANCH   1   7
BRANCH   4  25
ATOM     25  C   UNL     1     -10.232 -43.618  29.575  1.00  0.00     0.385 C 
BRANCH  25  26
ATOM     26  C   UNL     1      -9.112 -42.789  28.955  1.00  0.00     0.233 C 
BRANCH  26  27
ATOM     27  O   UNL     1      -7.976 -42.754  29.813  1.00  0.00    -0.375 OA
BRANCH  27  28
ATOM     28  C   UNL     1      -7.879 -43.880  30.686  1.00  0.00     0.157 C 
ATOM     29  C   UNL     1      -7.469 -43.383  32.058  1.00  0.00     0.035 C 
ENDBRANCH  27  28
ENDBRANCH  26  27
ENDBRANCH  25  26
ENDBRANCH   4  25
TORSDOF 11
ENDMDL
MODEL 5
REMARK VINA RESULT:    -8.551      1.717      2.075
REMARK INTER + INTRA:         -14.495
REMARK INTER:                 -13.680
REMARK INTRA:                  -0.815
REMARK UNBOUND:                -0.695
REMARK SMILES CCOCC[n+]1ccc(CC=C(O)[C@@H]2Cc3cc(OC)c(OC)cc3S2)cc1
REMARK SMILES IDX 9 1 8 2 7 3 6 4 28 5 27 6 10 7 11 8 12 9 13 10 14 12 15 13
REMARK SMILES IDX 26 14 16 15 25 16 17 17 24 18 18 19 21 20 19 21 20 22 22 23
REMARK SMILES IDX 23 24 5 25 4 26 3 27 2 28 1 29
REMARK H PARENT 13 11
ROOT
ATOM      1  C   UNL     1     -12.227 -45.258  27.839  1.00  0.00    -0.032 A 
ATOM      2  C   UNL     1     -11.643 -44.000  27.999  1.00  0.00     0.074 A 
ATOM      3  C   UNL     1     -10.522 -43.855  28.806  1.00  0.00     0.308 A 
ATOM      4  N   UNL     1      -9.988 -44.926  29.438  1.00  0.00    -0.203 N 
ATOM      5  C   UNL     1     -10.540 -46.154  29.304  1.00  0.00     0.308 A 
ATOM      6  C   UNL     1     -11.664 -46.344  28.508  1.00  0.00     0.074 A 
ENDROOT
BRANCH   1   7
ATOM      7  C   UNL     1     -13.470 -45.413  26.992  1.00  0.00     0.067 C 
BRANCH   7   8
ATOM      8  C   UNL     1     -14.123 -44.088  26.714  1.00  0.00     0.020 C 
BRANCH   8   9
ATOM      9  C   UNL     1     -15.084 -43.534  27.470  1.00  0.00     0.102 C 
BRANCH   9  10
ATOM     10  O   UNL     1     -15.234 -43.938  28.788  1.00  0.00    -0.511 OA
ATOM     11  H   UNL     1     -16.147 -43.718  29.064  1.00  0.00     0.293 HD
ENDBRANCH   9  10
BRANCH   9  12
ATOM     12  C   UNL     1     -16.056 -42.498  26.944  1.00  0.00     0.121 C 
ATOM     13  C   UNL     1     -17.390 -42.460  27.716  1.00  0.00     0.059 C 
ATOM     14  S   UNL     1     -16.473 -42.856  25.198  1.00  0.00    -0.114 SA
ATOM     15  C   UNL     1     -18.454 -42.052  26.737  1.00  0.00    -0.029 A 
ATOM     16  C   UNL     1     -18.118 -42.236  25.397  1.00  0.00     0.015 A 
ATOM     17  C   UNL     1     -19.720 -41.588  27.086  1.00  0.00     0.055 A 
ATOM     18  C   UNL     1     -19.017 -41.954  24.380  1.00  0.00     0.065 A 
ATOM     19  C   UNL     1     -20.642 -41.290  26.075  1.00  0.00     0.161 A 
ATOM     20  C   UNL     1     -20.287 -41.470  24.715  1.00  0.00     0.161 A 
BRANCH  19  21
ATOM     21  O   UNL     1     -21.914 -40.824  26.301  1.00  0.00    -0.493 OA
ATOM     22  C   UNL     1     -22.820 -41.673  26.988  1.00  0.00     0.278 C 
ENDBRANCH  19  21
BRANCH  20  23
ATOM     23  O   UNL     1     -21.259 -41.157  23.796  1.00  0.00    -0.493 OA
ATOM     24  C   UNL     1     -21.052 -41.555  22.449  1.00  0.00     0.278 C 
ENDBRANCH  20  23
ENDBRANCH   9  12
ENDBRANCH   8   9
ENDBRANCH   7   8
ENDBRANCH   1   7
BRANCH   4  25
ATOM     25  C   UNL     1      -8.797 -44.744  30.298  1.00  0.00     0.385 C 
BRANCH  25  26
ATOM     26  C   UNL     1      -9.224 -44.604  31.756  1.00  0.00     0.233 C 
BRANCH  26  27
ATOM     27  O   UNL     1      -9.538 -43.249  32.061  1.00  0.00    -0.375 OA
BRANCH  27  28
ATOM     28  C   UNL     1     -10.690 -43.097  32.891  1.00  0.00     0.157 C 
ATOM     29  C   UNL     1     -11.869 -43.739  32.188  1.00  0.00     0.035 C 
ENDBRANCH  27  28
ENDBRANCH  26  27
ENDBRANCH  25  26
ENDBRANCH   4  25
TORSDOF 11
ENDMDL
MODEL 6
REMARK VINA RESULT:    -8.451      1.809      3.017
REMARK INTER + INTRA:         -14.334
REMARK INTER:                 -13.667
REMARK INTRA:                  -0.667
REMARK UNBOUND:                -0.695
REMARK SMILES CCOCC[n+]1ccc(CC=C(O)[C@@H]2Cc3cc(OC)c(OC)cc3S2)cc1
REMARK SMILES IDX 9 1 8 2 7 3 6 4 28 5 27 6 10 7 11 8 12 9 13 10 14 12 15 13
REMARK SMILES IDX 26 14 16 15 25 16 17 17 24 18 18 19 21 20 19 21 20 22 22 23
REMARK SMILES IDX 23 24 5 25 4 26 3 27 2 28 1 29
REMARK H PARENT 13 11
ROOT
ATOM      1  C   UNL     1     -12.983 -44.862  27.296  1.00  0.00    -0.032 A 
ATOM      2  C   UNL     1     -12.647 -46.139  27.750  1.00  0.00     0.074 A 
ATOM      3  C   UNL     1     -11.539 -46.313  28.568  1.00  0.00     0.308 A 
ATOM      4  N   UNL     1     -10.781 -45.253  28.933  1.00  0.00    -0.203 N 
ATOM      5  C   UNL     1     -11.082 -44.007  28.501  1.00  0.00     0.308 A 
ATOM      6  C   UNL     1     -12.182 -43.787  27.678  1.00  0.00     0.074 A 
ENDROOT
BRANCH   1   7
ATOM      7  C   UNL     1     -14.167 -44.674  26.374  1.00  0.00     0.067 C 
BRANCH   7   8
ATOM      8  C   UNL     1     -14.283 -43.254  25.899  1.00  0.00     0.020 C 
BRANCH   8   9
ATOM      9  C   UNL     1     -15.069 -42.846  24.889  1.00  0.00     0.102 C 
BRANCH   9  10
ATOM     10  O   UNL     1     -14.503 -42.191  23.805  1.00  0.00    -0.511 OA
ATOM     11  H   UNL     1     -15.149 -42.221  23.070  1.00  0.00     0.293 HD
ENDBRANCH   9  10
BRANCH   9  12
ATOM     12  C   UNL     1     -16.572 -43.033  24.883  1.00  0.00     0.121 C 
ATOM     13  C   UNL     1     -17.284 -42.243  23.767  1.00  0.00     0.059 C 
ATOM     14  S   UNL     1     -17.284 -42.455  26.468  1.00  0.00    -0.114 SA
ATOM     15  C   UNL     1     -18.644 -41.873  24.287  1.00  0.00    -0.029 A 
ATOM     16  C   UNL     1     -18.769 -41.911  25.675  1.00  0.00     0.015 A 
ATOM     17  C   UNL     1     -19.710 -41.449  23.498  1.00  0.00     0.055 A 
ATOM     18  C   UNL     1     -19.948 -41.547  26.306  1.00  0.00     0.065 A 
ATOM     19  C   UNL     1     -20.913 -41.081  24.114  1.00  0.00     0.161 A 
ATOM     20  C   UNL     1     -21.034 -41.135  25.525  1.00  0.00     0.161 A 
BRANCH  19  21
ATOM     21  O   UNL     1     -22.028 -40.652  23.436  1.00  0.00    -0.493 OA
ATOM     22  C   UNL     1     -21.897 -39.521  22.589  1.00  0.00     0.278 C 
ENDBRANCH  19  21
BRANCH  20  23
ATOM     23  O   UNL     1     -22.250 -40.750  26.036  1.00  0.00    -0.493 OA
ATOM     24  C   UNL     1     -22.906 -41.640  26.928  1.00  0.00     0.278 C 
ENDBRANCH  20  23
ENDBRANCH   9  12
ENDBRANCH   8   9
ENDBRANCH   7   8
ENDBRANCH   1   7
BRANCH   4  25
ATOM     25  C   UNL     1      -9.600 -45.467  29.800  1.00  0.00     0.385 C 
BRANCH  25  26
ATOM     26  C   UNL     1     -10.043 -45.994  31.162  1.00  0.00     0.233 C 
BRANCH  26  27
ATOM     27  O   UNL     1      -9.746 -45.052  32.188  1.00  0.00    -0.375 OA
BRANCH  27  28
ATOM     28  C   UNL     1      -8.468 -44.431  32.047  1.00  0.00     0.157 C 
ATOM     29  C   UNL     1      -8.448 -43.185  32.909  1.00  0.00     0.035 C 
ENDBRANCH  27  28
ENDBRANCH  26  27
ENDBRANCH  25  26
ENDBRANCH   4  25
TORSDOF 11
ENDMDL
MODEL 7
REMARK VINA RESULT:    -8.347      2.719      4.412
REMARK INTER + INTRA:         -14.166
REMARK INTER:                 -13.456
REMARK INTRA:                  -0.710
REMARK UNBOUND:                -0.695
REMARK SMILES CCOCC[n+]1ccc(CC=C(O)[C@@H]2Cc3cc(OC)c(OC)cc3S2)cc1
REMARK SMILES IDX 9 1 8 2 7 3 6 4 28 5 27 6 10 7 11 8 12 9 13 10 14 12 15 13
REMARK SMILES IDX 26 14 16 15 25 16 17 17 24 18 18 19 21 20 19 21 20 22 22 23
REMARK SMILES IDX 23 24 5 25 4 26 3 27 2 28 1 29
REMARK H PARENT 13 11
ROOT
ATOM      1  C   UNL     1     -13.885 -44.121  26.140  1.00  0.00    -0.032 A 
ATOM      2  C   UNL     1     -13.685 -45.340  26.792  1.00  0.00     0.074 A 
ATOM      3  C   UNL     1     -12.753 -45.431  27.818  1.00  0.00     0.308 A 
ATOM      4  N   UNL     1     -12.038 -44.346  28.195  1.00  0.00    -0.203 N 
ATOM      5  C   UNL     1     -12.209 -43.156  27.575  1.00  0.00     0.308 A 
ATOM      6  C   UNL     1     -13.130 -43.020  26.540  1.00  0.00     0.074 A 
ENDROOT
BRANCH   1   7
ATOM      7  C   UNL     1     -14.870 -44.028  24.997  1.00  0.00     0.067 C 
BRANCH   7   8
ATOM      8  C   UNL     1     -15.440 -42.644  24.864  1.00  0.00     0.020 C 
BRANCH   8   9
ATOM      9  C   UNL     1     -15.710 -42.036  23.698  1.00  0.00     0.102 C 
BRANCH   9  10
ATOM     10  O   UNL     1     -14.723 -41.287  23.073  1.00  0.00    -0.511 OA
ATOM     11  H   UNL     1     -13.887 -41.792  23.131  1.00  0.00     0.293 HD
ENDBRANCH   9  10
BRANCH   9  12
ATOM     12  C   UNL     1     -17.068 -42.093  23.030  1.00  0.00     0.121 C 
ATOM     13  C   UNL     1     -17.342 -40.899  22.093  1.00  0.00     0.059 C 
ATOM     14  S   UNL     1     -18.392 -42.078  24.295  1.00  0.00    -0.114 SA
ATOM     15  C   UNL     1     -18.822 -40.643  22.128  1.00  0.00    -0.029 A 
ATOM     16  C   UNL     1     -19.481 -41.173  23.236  1.00  0.00     0.015 A 
ATOM     17  C   UNL     1     -19.520 -39.881  21.194  1.00  0.00     0.055 A 
ATOM     18  C   UNL     1     -20.839 -40.974  23.434  1.00  0.00     0.065 A 
ATOM     19  C   UNL     1     -20.893 -39.671  21.371  1.00  0.00     0.161 A 
ATOM     20  C   UNL     1     -21.557 -40.225  22.494  1.00  0.00     0.161 A 
BRANCH  19  21
ATOM     21  O   UNL     1     -21.681 -38.942  20.514  1.00  0.00    -0.493 OA
ATOM     22  C   UNL     1     -21.042 -38.250  19.452  1.00  0.00     0.278 C 
ENDBRANCH  19  21
BRANCH  20  23
ATOM     23  O   UNL     1     -22.902 -39.961  22.584  1.00  0.00    -0.493 OA
ATOM     24  C   UNL     1     -23.802 -41.054  22.465  1.00  0.00     0.278 C 
ENDBRANCH  20  23
ENDBRANCH   9  12
ENDBRANCH   8   9
ENDBRANCH   7   8
ENDBRANCH   1   7
BRANCH   4  25
ATOM     25  C   UNL     1     -11.047 -44.471  29.287  1.00  0.00     0.385 C 
BRANCH  25  26
ATOM     26  C   UNL     1     -11.539 -45.476  30.325  1.00  0.00     0.233 C 
BRANCH  26  27
ATOM     27  O   UNL     1     -11.958 -44.810  31.512  1.00  0.00    -0.375 OA
BRANCH  27  28
ATOM     28  C   UNL     1     -13.375 -44.770  31.679  1.00  0.00     0.157 C 
ATOM     29  C   UNL     1     -13.721 -43.549  32.510  1.00  0.00     0.035 C 
ENDBRANCH  27  28
ENDBRANCH  26  27
ENDBRANCH  25  26
ENDBRANCH   4  25
TORSDOF 11
ENDMDL
MODEL 8
REMARK VINA RESULT:    -8.283      2.372      3.893
REMARK INTER + INTRA:         -14.063
REMARK INTER:                 -13.649
REMARK INTRA:                  -0.414
REMARK UNBOUND:                -0.695
REMARK SMILES CCOCC[n+]1ccc(CC=C(O)[C@@H]2Cc3cc(OC)c(OC)cc3S2)cc1
REMARK SMILES IDX 9 1 8 2 7 3 6 4 28 5 27 6 10 7 11 8 12 9 13 10 14 12 15 13
REMARK SMILES IDX 26 14 16 15 25 16 17 17 24 18 18 19 21 20 19 21 20 22 22 23
REMARK SMILES IDX 23 24 5 25 4 26 3 27 2 28 1 29
REMARK H PARENT 13 11
ROOT
ATOM      1  C   UNL     1     -13.711 -44.217  26.484  1.00  0.00    -0.032 A 
ATOM      2  C   UNL     1     -13.391 -45.382  27.184  1.00  0.00     0.074 A 
ATOM      3  C   UNL     1     -12.335 -45.381  28.085  1.00  0.00     0.308 A 
ATOM      4  N   UNL     1     -11.612 -44.256  28.295  1.00  0.00    -0.203 N 
ATOM      5  C   UNL     1     -11.898 -43.117  27.623  1.00  0.00     0.308 A 
ATOM      6  C   UNL     1     -12.946 -43.074  26.710  1.00  0.00     0.074 A 
ENDROOT
BRANCH   1   7
ATOM      7  C   UNL     1     -14.836 -44.226  25.474  1.00  0.00     0.067 C 
BRANCH   7   8
ATOM      8  C   UNL     1     -14.539 -43.335  24.302  1.00  0.00     0.020 C 
BRANCH   8   9
ATOM      9  C   UNL     1     -15.405 -42.459  23.766  1.00  0.00     0.102 C 
BRANCH   9  10
ATOM     10  O   UNL     1     -14.927 -41.291  23.191  1.00  0.00    -0.511 OA
ATOM     11  H   UNL     1     -14.812 -40.634  23.907  1.00  0.00     0.293 HD
ENDBRANCH   9  10
BRANCH   9  12
ATOM     12  C   UNL     1     -16.906 -42.662  23.787  1.00  0.00     0.121 C 
ATOM     13  C   UNL     1     -17.673 -41.658  22.905  1.00  0.00     0.059 C 
ATOM     14  S   UNL     1     -17.545 -42.456  25.491  1.00  0.00    -0.114 SA
ATOM     15  C   UNL     1     -19.009 -41.431  23.554  1.00  0.00    -0.029 A 
ATOM     16  C   UNL     1     -19.068 -41.774  24.904  1.00  0.00     0.015 A 
ATOM     17  C   UNL     1     -20.113 -40.860  22.926  1.00  0.00     0.055 A 
ATOM     18  C   UNL     1     -20.218 -41.573  25.652  1.00  0.00     0.065 A 
ATOM     19  C   UNL     1     -21.287 -40.653  23.660  1.00  0.00     0.161 A 
ATOM     20  C   UNL     1     -21.341 -41.016  25.030  1.00  0.00     0.161 A 
BRANCH  19  21
ATOM     21  O   UNL     1     -22.435 -40.103  23.144  1.00  0.00    -0.493 OA
ATOM     22  C   UNL     1     -22.303 -39.135  22.115  1.00  0.00     0.278 C 
ENDBRANCH  19  21
BRANCH  20  23
ATOM     23  O   UNL     1     -22.533 -40.771  25.666  1.00  0.00    -0.493 OA
ATOM     24  C   UNL     1     -22.491 -40.418  27.042  1.00  0.00     0.278 C 
ENDBRANCH  20  23
ENDBRANCH   9  12
ENDBRANCH   8   9
ENDBRANCH   7   8
ENDBRANCH   1   7
BRANCH   4  25
ATOM     25  C   UNL     1     -10.486 -44.282  29.256  1.00  0.00     0.385 C 
BRANCH  25  26
ATOM     26  C   UNL     1     -10.623 -43.132  30.249  1.00  0.00     0.233 C 
BRANCH  26  27
ATOM     27  O   UNL     1     -11.884 -43.183  30.908  1.00  0.00    -0.375 OA
BRANCH  27  28
ATOM     28  C   UNL     1     -11.959 -44.174  31.933  1.00  0.00     0.157 C 
ATOM     29  C   UNL     1     -13.231 -44.973  31.729  1.00  0.00     0.035 C 
ENDBRANCH  27  28
ENDBRANCH  26  27
ENDBRANCH  25  26
ENDBRANCH   4  25
TORSDOF 11
ENDMDL
MODEL 9
REMARK VINA RESULT:    -8.224      2.773     10.554
REMARK INTER + INTRA:         -13.967
REMARK INTER:                 -13.232
REMARK INTRA:                  -0.735
REMARK UNBOUND:                -0.695
REMARK SMILES CCOCC[n+]1ccc(CC=C(O)[C@@H]2Cc3cc(OC)c(OC)cc3S2)cc1
REMARK SMILES IDX 9 1 8 2 7 3 6 4 28 5 27 6 10 7 11 8 12 9 13 10 14 12 15 13
REMARK SMILES IDX 26 14 16 15 25 16 17 17 24 18 18 19 21 20 19 21 20 22 22 23
REMARK SMILES IDX 23 24 5 25 4 26 3 27 2 28 1 29
REMARK H PARENT 13 11
ROOT
ATOM      1  C   UNL     1     -14.803 -43.323  25.791  1.00  0.00    -0.032 A 
ATOM      2  C   UNL     1     -14.946 -43.376  24.403  1.00  0.00     0.074 A 
ATOM      3  C   UNL     1     -16.137 -42.973  23.814  1.00  0.00     0.308 A 
ATOM      4  N   UNL     1     -17.162 -42.524  24.575  1.00  0.00    -0.203 N 
ATOM      5  C   UNL     1     -17.050 -42.469  25.922  1.00  0.00     0.308 A 
ATOM      6  C   UNL     1     -15.876 -42.865  26.554  1.00  0.00     0.074 A 
ENDROOT
BRANCH   1   7
ATOM      7  C   UNL     1     -13.521 -43.797  26.438  1.00  0.00     0.067 C 
BRANCH   7   8
ATOM      8  C   UNL     1     -13.773 -44.894  27.433  1.00  0.00     0.020 C 
BRANCH   8   9
ATOM      9  C   UNL     1     -12.874 -45.827  27.788  1.00  0.00     0.102 C 
BRANCH   9  10
ATOM     10  O   UNL     1     -12.604 -46.879  26.926  1.00  0.00    -0.511 OA
ATOM     11  H   UNL     1     -12.098 -47.550  27.427  1.00  0.00     0.293 HD
ENDBRANCH   9  10
BRANCH   9  12
ATOM     12  C   UNL     1     -12.151 -45.814  29.119  1.00  0.00     0.121 C 
ATOM     13  C   UNL     1     -12.573 -44.648  30.036  1.00  0.00     0.059 C 
ATOM     14  S   UNL     1     -10.348 -45.644  28.854  1.00  0.00    -0.114 SA
ATOM     15  C   UNL     1     -11.373 -44.282  30.863  1.00  0.00    -0.029 A 
ATOM     16  C   UNL     1     -10.153 -44.711  30.344  1.00  0.00     0.015 A 
ATOM     17  C   UNL     1     -11.412 -43.514  32.024  1.00  0.00     0.055 A 
ATOM     18  C   UNL     1      -8.954 -44.403  30.967  1.00  0.00     0.065 A 
ATOM     19  C   UNL     1     -10.213 -43.196  32.674  1.00  0.00     0.161 A 
ATOM     20  C   UNL     1      -8.978 -43.647  32.145  1.00  0.00     0.161 A 
BRANCH  19  21
ATOM     21  O   UNL     1     -10.132 -42.451  33.825  1.00  0.00    -0.493 OA
ATOM     22  C   UNL     1     -11.328 -41.882  34.334  1.00  0.00     0.278 C 
ENDBRANCH  19  21
BRANCH  20  23
ATOM     23  O   UNL     1      -7.857 -43.281  32.850  1.00  0.00    -0.493 OA
ATOM     24  C   UNL     1      -6.745 -44.165  32.834  1.00  0.00     0.278 C 
ENDBRANCH  20  23
ENDBRANCH   9  12
ENDBRANCH   8   9
ENDBRANCH   7   8
ENDBRANCH   1   7
BRANCH   4  25
ATOM     25  C   UNL     1     -18.424 -42.106  23.923  1.00  0.00     0.385 C 
BRANCH  25  26
ATOM     26  C   UNL     1     -19.470 -41.769  24.981  1.00  0.00     0.233 C 
BRANCH  26  27
ATOM     27  O   UNL     1     -20.467 -40.904  24.447  1.00  0.00    -0.375 OA
BRANCH  27  28
ATOM     28  C   UNL     1     -20.395 -40.748  23.030  1.00  0.00     0.157 C 
ATOM     29  C   UNL     1     -21.744 -40.265  22.536  1.00  0.00     0.035 C 
ENDBRANCH  27  28
ENDBRANCH  26  27
ENDBRANCH  25  26
ENDBRANCH   4  25
TORSDOF 11
ENDMDL
