MODEL 1
REMARK VINA RESULT:   -12.537      0.000      0.000
REMARK INTER + INTRA:         -16.832
REMARK INTER:                 -16.201
REMARK INTRA:                  -0.631
REMARK UNBOUND:                -0.631
REMARK SMILES O=c1[nH]c2ccccc2c(=O)n1CC[C@H]1CC[N@H+](Cc2ccccc2)CC1
REMARK SMILES IDX 14 1 15 2 17 3 18 4 16 5 26 6 27 7 19 9 20 10 21 11 25 12
REMARK SMILES IDX 22 13 24 14 23 15 13 16 12 17 10 18 2 19 9 20 3 21 8 22 4 23
REMARK SMILES IDX 7 24 5 25 6 26 11 27 1 28
REMARK H PARENT 18 8 3 29
ROOT
ATOM      1  C   UNL     1     -13.843 -45.191  26.540  1.00  0.00     0.026 C 
ENDROOT
BRANCH   1   2
ATOM      2  C   UNL     1     -13.186 -45.792  27.796  1.00  0.00     0.002 C 
ATOM      3  C   UNL     1     -11.036 -46.415  28.955  1.00  0.00     0.262 C 
ATOM      4  N   UNL     1     -11.479 -45.636  30.171  1.00  0.00    -0.331 N 
ATOM      5  C   UNL     1     -11.654 -45.799  27.708  1.00  0.00     0.065 C 
ATOM      6  C   UNL     1     -12.982 -45.604  30.312  1.00  0.00     0.262 C 
ATOM      7  C   UNL     1     -13.609 -45.017  29.052  1.00  0.00     0.065 C 
ATOM      8  H   UNL     1     -11.168 -44.664  30.049  1.00  0.00     0.348 HD
BRANCH   4   9
ATOM      9  C   UNL     1     -10.787 -46.141  31.421  1.00  0.00     0.299 C 
BRANCH   9  10
ATOM     10  C   UNL     1      -9.515 -45.399  31.731  1.00  0.00     0.006 A 
ATOM     11  C   UNL     1      -9.560 -44.105  32.275  1.00  0.00     0.009 A 
ATOM     12  C   UNL     1      -8.266 -45.996  31.499  1.00  0.00     0.009 A 
ATOM     13  C   UNL     1      -8.380 -43.429  32.586  1.00  0.00     0.001 A 
ATOM     14  C   UNL     1      -7.089 -45.315  31.812  1.00  0.00     0.001 A 
ATOM     15  C   UNL     1      -7.147 -44.034  32.357  1.00  0.00     0.000 A 
ENDBRANCH   9  10
ENDBRANCH   4   9
ENDBRANCH   1   2
BRANCH   1  16
ATOM     16  C   UNL     1     -13.986 -43.659  26.549  1.00  0.00     0.131 C 
BRANCH  16  17
ATOM     17  N   UNL     1     -15.277 -43.193  26.051  1.00  0.00    -0.260 N 
ATOM     18  C   UNL     1     -16.247 -42.794  26.971  1.00  0.00     0.264 A 
ATOM     19  C   UNL     1     -15.443 -43.121  24.674  1.00  0.00     0.328 A 
ATOM     20  C   UNL     1     -17.570 -42.427  26.429  1.00  0.00     0.064 A 
ATOM     21  N   UNL     1     -16.669 -42.731  24.220  1.00  0.00    -0.307 N 
ATOM     22  C   UNL     1     -18.634 -42.098  27.275  1.00  0.00     0.016 A 
ATOM     23  C   UNL     1     -17.739 -42.407  25.050  1.00  0.00     0.055 A 
ATOM     24  C   UNL     1     -19.868 -41.749  26.725  1.00  0.00     0.001 A 
ATOM     25  C   UNL     1     -18.969 -42.054  24.497  1.00  0.00     0.027 A 
ATOM     26  C   UNL     1     -20.034 -41.726  25.339  1.00  0.00     0.002 A 
ATOM     27  O   UNL     1     -16.044 -42.694  28.181  1.00  0.00    -0.268 OA
ATOM     28  O   UNL     1     -14.551 -43.372  23.866  1.00  0.00    -0.248 OA
ATOM     29  H   UNL     1     -16.774 -42.713  23.213  1.00  0.00     0.171 HD
ENDBRANCH  16  17
ENDBRANCH   1  16
TORSDOF 5
ENDMDL
MODEL 2
REMARK VINA RESULT:   -11.999      0.786      1.985
REMARK INTER + INTRA:         -16.137
REMARK INTER:                 -15.679
REMARK INTRA:                  -0.458
REMARK UNBOUND:                -0.631
REMARK SMILES O=c1[nH]c2ccccc2c(=O)n1CC[C@H]1CC[N@H+](Cc2ccccc2)CC1
REMARK SMILES IDX 14 1 15 2 17 3 18 4 16 5 26 6 27 7 19 9 20 10 21 11 25 12
REMARK SMILES IDX 22 13 24 14 23 15 13 16 12 17 10 18 2 19 9 20 3 21 8 22 4 23
REMARK SMILES IDX 7 24 5 25 6 26 11 27 1 28
REMARK H PARENT 18 8 3 29
ROOT
ATOM      1  C   UNL     1     -13.839 -45.046  26.516  1.00  0.00     0.026 C 
ENDROOT
BRANCH   1   2
ATOM      2  C   UNL     1     -13.194 -45.684  27.760  1.00  0.00     0.002 C 
ATOM      3  C   UNL     1     -11.055 -46.374  28.903  1.00  0.00     0.262 C 
ATOM      4  N   UNL     1     -11.478 -45.606  30.133  1.00  0.00    -0.331 N 
ATOM      5  C   UNL     1     -11.662 -45.723  27.668  1.00  0.00     0.065 C 
ATOM      6  C   UNL     1     -12.980 -45.544  30.279  1.00  0.00     0.262 C 
ATOM      7  C   UNL     1     -13.597 -44.921  29.030  1.00  0.00     0.065 C 
ATOM      8  H   UNL     1     -11.146 -44.640  30.027  1.00  0.00     0.348 HD
BRANCH   4   9
ATOM      9  C   UNL     1     -10.795 -46.148  31.373  1.00  0.00     0.299 C 
BRANCH   9  10
ATOM     10  C   UNL     1      -9.522 -45.420  31.709  1.00  0.00     0.006 A 
ATOM     11  C   UNL     1      -9.565 -44.143  32.291  1.00  0.00     0.009 A 
ATOM     12  C   UNL     1      -8.274 -46.014  31.465  1.00  0.00     0.009 A 
ATOM     13  C   UNL     1      -8.384 -43.480  32.627  1.00  0.00     0.001 A 
ATOM     14  C   UNL     1      -7.096 -45.346  31.802  1.00  0.00     0.001 A 
ATOM     15  C   UNL     1      -7.152 -44.082  32.385  1.00  0.00     0.000 A 
ENDBRANCH   9  10
ENDBRANCH   4   9
ENDBRANCH   1   2
BRANCH   1  16
ATOM     16  C   UNL     1     -14.079 -43.529  26.610  1.00  0.00     0.131 C 
BRANCH  16  17
ATOM     17  N   UNL     1     -15.417 -43.124  26.190  1.00  0.00    -0.260 N 
ATOM     18  C   UNL     1     -15.716 -43.109  24.828  1.00  0.00     0.264 A 
ATOM     19  C   UNL     1     -16.339 -42.831  27.187  1.00  0.00     0.328 A 
ATOM     20  C   UNL     1     -17.046 -42.597  24.443  1.00  0.00     0.064 A 
ATOM     21  N   UNL     1     -17.570 -42.407  26.782  1.00  0.00    -0.307 N 
ATOM     22  C   UNL     1     -17.408 -42.458  23.099  1.00  0.00     0.016 A 
ATOM     23  C   UNL     1     -17.943 -42.259  25.449  1.00  0.00     0.055 A 
ATOM     24  C   UNL     1     -18.678 -41.978  22.775  1.00  0.00     0.001 A 
ATOM     25  C   UNL     1     -19.213 -41.783  25.128  1.00  0.00     0.027 A 
ATOM     26  C   UNL     1     -19.578 -41.643  23.787  1.00  0.00     0.002 A 
ATOM     27  O   UNL     1     -14.958 -43.530  23.955  1.00  0.00    -0.268 OA
ATOM     28  O   UNL     1     -16.104 -42.949  28.388  1.00  0.00    -0.248 OA
ATOM     29  H   UNL     1     -18.216 -42.173  27.527  1.00  0.00     0.171 HD
ENDBRANCH  16  17
ENDBRANCH   1  16
TORSDOF 5
ENDMDL
MODEL 3
REMARK VINA RESULT:   -11.805      0.912      1.462
REMARK INTER + INTRA:         -15.886
REMARK INTER:                 -15.346
REMARK INTRA:                  -0.540
REMARK UNBOUND:                -0.631
REMARK SMILES O=c1[nH]c2ccccc2c(=O)n1CC[C@H]1CC[N@H+](Cc2ccccc2)CC1
REMARK SMILES IDX 14 1 15 2 17 3 18 4 16 5 26 6 27 7 19 9 20 10 21 11 25 12
REMARK SMILES IDX 22 13 24 14 23 15 13 16 12 17 10 18 2 19 9 20 3 21 8 22 4 23
REMARK SMILES IDX 7 24 5 25 6 26 11 27 1 28
REMARK H PARENT 18 8 3 29
ROOT
ATOM      1  C   UNL     1     -13.995 -44.769  26.870  1.00  0.00     0.026 C 
ENDROOT
BRANCH   1   2
ATOM      2  C   UNL     1     -12.614 -45.081  27.476  1.00  0.00     0.002 C 
ATOM      3  C   UNL     1     -10.562 -44.167  28.619  1.00  0.00     0.262 C 
ATOM      4  N   UNL     1     -10.715 -45.208  29.702  1.00  0.00    -0.331 N 
ATOM      5  C   UNL     1     -11.930 -43.830  28.046  1.00  0.00     0.065 C 
ATOM      6  C   UNL     1     -11.376 -46.468  29.194  1.00  0.00     0.262 C 
ATOM      7  C   UNL     1     -12.735 -46.132  28.589  1.00  0.00     0.065 C 
ATOM      8  H   UNL     1     -11.330 -44.817  30.426  1.00  0.00     0.348 HD
BRANCH   4   9
ATOM      9  C   UNL     1      -9.389 -45.481  30.385  1.00  0.00     0.299 C 
BRANCH   9  10
ATOM     10  C   UNL     1      -9.111 -44.541  31.527  1.00  0.00     0.006 A 
ATOM     11  C   UNL     1      -7.789 -44.223  31.881  1.00  0.00     0.009 A 
ATOM     12  C   UNL     1     -10.166 -43.954  32.241  1.00  0.00     0.009 A 
ATOM     13  C   UNL     1      -7.533 -43.332  32.923  1.00  0.00     0.001 A 
ATOM     14  C   UNL     1      -9.904 -43.063  33.283  1.00  0.00     0.001 A 
ATOM     15  C   UNL     1      -8.589 -42.751  33.621  1.00  0.00     0.000 A 
ENDBRANCH   9  10
ENDBRANCH   4   9
ENDBRANCH   1   2
BRANCH   1  16
ATOM     16  C   UNL     1     -14.108 -43.401  26.176  1.00  0.00     0.131 C 
BRANCH  16  17
ATOM     17  N   UNL     1     -15.476 -43.048  25.806  1.00  0.00    -0.260 N 
ATOM     18  C   UNL     1     -16.357 -42.638  26.807  1.00  0.00     0.264 A 
ATOM     19  C   UNL     1     -15.804 -43.089  24.457  1.00  0.00     0.328 A 
ATOM     20  C   UNL     1     -17.755 -42.389  26.404  1.00  0.00     0.064 A 
ATOM     21  N   UNL     1     -17.097 -42.805  24.129  1.00  0.00    -0.307 N 
ATOM     22  C   UNL     1     -18.734 -42.059  27.347  1.00  0.00     0.016 A 
ATOM     23  C   UNL     1     -18.083 -42.481  25.056  1.00  0.00     0.055 A 
ATOM     24  C   UNL     1     -20.043 -41.824  26.927  1.00  0.00     0.001 A 
ATOM     25  C   UNL     1     -19.389 -42.242  24.633  1.00  0.00     0.027 A 
ATOM     26  C   UNL     1     -20.369 -41.914  25.573  1.00  0.00     0.002 A 
ATOM     27  O   UNL     1     -16.023 -42.437  27.974  1.00  0.00    -0.268 OA
ATOM     28  O   UNL     1     -14.997 -43.347  23.567  1.00  0.00    -0.248 OA
ATOM     29  H   UNL     1     -17.319 -42.867  23.142  1.00  0.00     0.171 HD
ENDBRANCH  16  17
ENDBRANCH   1  16
TORSDOF 5
ENDMDL
MODEL 4
REMARK VINA RESULT:   -11.362      2.284      8.884
REMARK INTER + INTRA:         -15.315
REMARK INTER:                 -14.774
REMARK INTRA:                  -0.541
REMARK UNBOUND:                -0.631
REMARK SMILES O=c1[nH]c2ccccc2c(=O)n1CC[C@H]1CC[N@H+](Cc2ccccc2)CC1
REMARK SMILES IDX 14 1 15 2 17 3 18 4 16 5 26 6 27 7 19 9 20 10 21 11 25 12
REMARK SMILES IDX 22 13 24 14 23 15 13 16 12 17 10 18 2 19 9 20 3 21 8 22 4 23
REMARK SMILES IDX 7 24 5 25 6 26 11 27 1 28
REMARK H PARENT 18 8 3 29
ROOT
ATOM      1  C   UNL     1     -11.173 -46.060  28.962  1.00  0.00     0.026 C 
ENDROOT
BRANCH   1   2
ATOM      2  C   UNL     1     -11.912 -45.273  27.864  1.00  0.00     0.002 C 
ATOM      3  C   UNL     1     -14.115 -44.800  26.733  1.00  0.00     0.262 C 
ATOM      4  N   UNL     1     -13.893 -43.322  26.943  1.00  0.00    -0.331 N 
ATOM      5  C   UNL     1     -13.416 -45.578  27.838  1.00  0.00     0.065 C 
ATOM      6  C   UNL     1     -12.426 -42.961  26.968  1.00  0.00     0.262 C 
ATOM      7  C   UNL     1     -11.715 -43.762  28.054  1.00  0.00     0.065 C 
ATOM      8  H   UNL     1     -14.278 -43.077  27.864  1.00  0.00     0.348 HD
BRANCH   4   9
ATOM      9  C   UNL     1     -14.676 -42.506  25.934  1.00  0.00     0.299 C 
BRANCH   9  10
ATOM     10  C   UNL     1     -16.153 -42.471  26.222  1.00  0.00     0.006 A 
ATOM     11  C   UNL     1     -17.084 -42.504  25.172  1.00  0.00     0.009 A 
ATOM     12  C   UNL     1     -16.620 -42.426  27.545  1.00  0.00     0.009 A 
ATOM     13  C   UNL     1     -18.453 -42.498  25.442  1.00  0.00     0.001 A 
ATOM     14  C   UNL     1     -17.990 -42.421  27.809  1.00  0.00     0.001 A 
ATOM     15  C   UNL     1     -18.905 -42.460  26.759  1.00  0.00     0.000 A 
ENDBRANCH   9  10
ENDBRANCH   4   9
ENDBRANCH   1   2
BRANCH   1  16
ATOM     16  C   UNL     1     -11.924 -46.173  30.301  1.00  0.00     0.131 C 
BRANCH  16  17
ATOM     17  N   UNL     1     -11.670 -45.056  31.206  1.00  0.00    -0.260 N 
ATOM     18  C   UNL     1     -10.360 -44.814  31.622  1.00  0.00     0.264 A 
ATOM     19  C   UNL     1     -12.752 -44.259  31.557  1.00  0.00     0.328 A 
ATOM     20  C   UNL     1     -10.164 -43.740  32.614  1.00  0.00     0.064 A 
ATOM     21  N   UNL     1     -12.511 -43.248  32.441  1.00  0.00    -0.307 N 
ATOM     22  C   UNL     1      -8.902 -43.478  33.160  1.00  0.00     0.016 A 
ATOM     23  C   UNL     1     -11.263 -42.980  32.996  1.00  0.00     0.055 A 
ATOM     24  C   UNL     1      -8.755 -42.449  34.090  1.00  0.00     0.001 A 
ATOM     25  C   UNL     1     -11.118 -41.948  33.922  1.00  0.00     0.027 A 
ATOM     26  C   UNL     1      -9.860 -41.686  34.469  1.00  0.00     0.002 A 
ATOM     27  O   UNL     1      -9.379 -45.411  31.179  1.00  0.00    -0.268 OA
ATOM     28  O   UNL     1     -13.885 -44.409  31.105  1.00  0.00    -0.248 OA
ATOM     29  H   UNL     1     -13.320 -42.698  32.703  1.00  0.00     0.171 HD
ENDBRANCH  16  17
ENDBRANCH   1  16
TORSDOF 5
ENDMDL
MODEL 5
REMARK VINA RESULT:   -10.847      1.767      2.980
REMARK INTER + INTRA:         -14.649
REMARK INTER:                 -14.000
REMARK INTRA:                  -0.649
REMARK UNBOUND:                -0.631
REMARK SMILES O=c1[nH]c2ccccc2c(=O)n1CC[C@H]1CC[N@H+](Cc2ccccc2)CC1
REMARK SMILES IDX 14 1 15 2 17 3 18 4 16 5 26 6 27 7 19 9 20 10 21 11 25 12
REMARK SMILES IDX 22 13 24 14 23 15 13 16 12 17 10 18 2 19 9 20 3 21 8 22 4 23
REMARK SMILES IDX 7 24 5 25 6 26 11 27 1 28
REMARK H PARENT 18 8 3 29
ROOT
ATOM      1  C   UNL     1     -12.800 -42.993  26.565  1.00  0.00     0.026 C 
ENDROOT
BRANCH   1   2
ATOM      2  C   UNL     1     -11.656 -43.449  27.489  1.00  0.00     0.002 C 
ATOM      3  C   UNL     1      -9.857 -42.754  29.113  1.00  0.00     0.262 C 
ATOM      4  N   UNL     1     -10.392 -43.750  30.114  1.00  0.00    -0.331 N 
ATOM      5  C   UNL     1     -10.994 -42.274  28.223  1.00  0.00     0.065 C 
ATOM      6  C   UNL     1     -11.048 -44.935  29.446  1.00  0.00     0.262 C 
ATOM      7  C   UNL     1     -12.168 -44.458  28.528  1.00  0.00     0.065 C 
ATOM      8  H   UNL     1     -11.117 -43.277  30.668  1.00  0.00     0.348 HD
BRANCH   4   9
ATOM      9  C   UNL     1      -9.316 -44.159  31.101  1.00  0.00     0.299 C 
BRANCH   9  10
ATOM     10  C   UNL     1      -9.407 -43.423  32.410  1.00  0.00     0.006 A 
ATOM     11  C   UNL     1      -8.245 -43.124  33.141  1.00  0.00     0.009 A 
ATOM     12  C   UNL     1     -10.651 -43.008  32.910  1.00  0.00     0.009 A 
ATOM     13  C   UNL     1      -8.329 -42.419  34.342  1.00  0.00     0.001 A 
ATOM     14  C   UNL     1     -10.728 -42.302  34.112  1.00  0.00     0.001 A 
ATOM     15  C   UNL     1      -9.569 -42.006  34.825  1.00  0.00     0.000 A 
ENDBRANCH   9  10
ENDBRANCH   4   9
ENDBRANCH   1   2
BRANCH   1  16
ATOM     16  C   UNL     1     -13.853 -44.071  26.251  1.00  0.00     0.131 C 
BRANCH  16  17
ATOM     17  N   UNL     1     -15.172 -43.524  25.947  1.00  0.00    -0.260 N 
ATOM     18  C   UNL     1     -15.580 -43.455  24.615  1.00  0.00     0.264 A 
ATOM     19  C   UNL     1     -15.973 -43.153  27.020  1.00  0.00     0.328 A 
ATOM     20  C   UNL     1     -16.876 -42.803  24.347  1.00  0.00     0.064 A 
ATOM     21  N   UNL     1     -17.183 -42.598  26.723  1.00  0.00    -0.307 N 
ATOM     22  C   UNL     1     -17.332 -42.606  23.039  1.00  0.00     0.016 A 
ATOM     23  C   UNL     1     -17.647 -42.391  25.428  1.00  0.00     0.055 A 
ATOM     24  C   UNL     1     -18.567 -41.993  22.826  1.00  0.00     0.001 A 
ATOM     25  C   UNL     1     -18.883 -41.781  25.218  1.00  0.00     0.027 A 
ATOM     26  C   UNL     1     -19.341 -41.583  23.913  1.00  0.00     0.002 A 
ATOM     27  O   UNL     1     -14.945 -43.938  23.678  1.00  0.00    -0.268 OA
ATOM     28  O   UNL     1     -15.654 -43.314  28.196  1.00  0.00    -0.248 OA
ATOM     29  H   UNL     1     -17.737 -42.311  27.521  1.00  0.00     0.171 HD
ENDBRANCH  16  17
ENDBRANCH   1  16
TORSDOF 5
ENDMDL
MODEL 6
REMARK VINA RESULT:   -10.384      2.031      9.338
REMARK INTER + INTRA:         -14.050
REMARK INTER:                 -14.086
REMARK INTRA:                   0.037
REMARK UNBOUND:                -0.631
REMARK SMILES O=c1[nH]c2ccccc2c(=O)n1CC[C@H]1CC[N@H+](Cc2ccccc2)CC1
REMARK SMILES IDX 14 1 15 2 17 3 18 4 16 5 26 6 27 7 19 9 20 10 21 11 25 12
REMARK SMILES IDX 22 13 24 14 23 15 13 16 12 17 10 18 2 19 9 20 3 21 8 22 4 23
REMARK SMILES IDX 7 24 5 25 6 26 11 27 1 28
REMARK H PARENT 18 8 3 29
ROOT
ATOM      1  C   UNL     1     -12.660 -46.122  28.181  1.00  0.00     0.026 C 
ENDROOT
BRANCH   1   2
ATOM      2  C   UNL     1     -13.494 -45.075  27.420  1.00  0.00     0.002 C 
ATOM      3  C   UNL     1     -13.666 -42.686  26.635  1.00  0.00     0.262 C 
ATOM      4  N   UNL     1     -13.923 -43.178  25.230  1.00  0.00    -0.331 N 
ATOM      5  C   UNL     1     -12.810 -43.702  27.377  1.00  0.00     0.065 C 
ATOM      6  C   UNL     1     -14.604 -44.526  25.212  1.00  0.00     0.262 C 
ATOM      7  C   UNL     1     -13.766 -45.541  25.982  1.00  0.00     0.065 C 
ATOM      8  H   UNL     1     -13.012 -43.296  24.770  1.00  0.00     0.348 HD
BRANCH   4   9
ATOM      9  C   UNL     1     -14.668 -42.138  24.418  1.00  0.00     0.299 C 
BRANCH   9  10
ATOM     10  C   UNL     1     -16.161 -42.324  24.449  1.00  0.00     0.006 A 
ATOM     11  C   UNL     1     -16.897 -42.378  23.254  1.00  0.00     0.009 A 
ATOM     12  C   UNL     1     -16.837 -42.466  25.671  1.00  0.00     0.009 A 
ATOM     13  C   UNL     1     -18.277 -42.577  23.284  1.00  0.00     0.001 A 
ATOM     14  C   UNL     1     -18.217 -42.665  25.694  1.00  0.00     0.001 A 
ATOM     15  C   UNL     1     -18.936 -42.723  24.502  1.00  0.00     0.000 A 
ENDBRANCH   9  10
ENDBRANCH   4   9
ENDBRANCH   1   2
BRANCH   1  16
ATOM     16  C   UNL     1     -12.905 -46.173  29.699  1.00  0.00     0.131 C 
BRANCH  16  17
ATOM     17  N   UNL     1     -11.955 -45.375  30.469  1.00  0.00    -0.260 N 
ATOM     18  C   UNL     1     -10.601 -45.705  30.411  1.00  0.00     0.264 A 
ATOM     19  C   UNL     1     -12.456 -44.289  31.176  1.00  0.00     0.328 A 
ATOM     20  C   UNL     1      -9.690 -44.938  31.283  1.00  0.00     0.064 A 
ATOM     21  N   UNL     1     -11.567 -43.581  31.930  1.00  0.00    -0.307 N 
ATOM     22  C   UNL     1      -8.329 -45.250  31.363  1.00  0.00     0.016 A 
ATOM     23  C   UNL     1     -10.212 -43.884  32.024  1.00  0.00     0.055 A 
ATOM     24  C   UNL     1      -7.497 -44.496  32.192  1.00  0.00     0.001 A 
ATOM     25  C   UNL     1      -9.383 -43.127  32.850  1.00  0.00     0.027 A 
ATOM     26  C   UNL     1      -8.024 -43.437  32.933  1.00  0.00     0.002 A 
ATOM     27  O   UNL     1     -10.135 -46.556  29.655  1.00  0.00    -0.268 OA
ATOM     28  O   UNL     1     -13.633 -43.937  31.139  1.00  0.00    -0.248 OA
ATOM     29  H   UNL     1     -11.961 -42.811  32.457  1.00  0.00     0.171 HD
ENDBRANCH  16  17
ENDBRANCH   1  16
TORSDOF 5
ENDMDL
MODEL 7
REMARK VINA RESULT:   -10.377      1.254      2.026
REMARK INTER + INTRA:         -14.041
REMARK INTER:                 -13.996
REMARK INTRA:                  -0.045
REMARK UNBOUND:                -0.631
REMARK SMILES O=c1[nH]c2ccccc2c(=O)n1CC[C@H]1CC[N@H+](Cc2ccccc2)CC1
REMARK SMILES IDX 14 1 15 2 17 3 18 4 16 5 26 6 27 7 19 9 20 10 21 11 25 12
REMARK SMILES IDX 22 13 24 14 23 15 13 16 12 17 10 18 2 19 9 20 3 21 8 22 4 23
REMARK SMILES IDX 7 24 5 25 6 26 11 27 1 28
REMARK H PARENT 18 8 3 29
ROOT
ATOM      1  C   UNL     1     -14.172 -42.720  26.136  1.00  0.00     0.026 C 
ENDROOT
BRANCH   1   2
ATOM      2  C   UNL     1     -13.471 -43.443  27.301  1.00  0.00     0.002 C 
ATOM      3  C   UNL     1     -13.036 -45.639  28.460  1.00  0.00     0.262 C 
ATOM      4  N   UNL     1     -11.552 -45.367  28.395  1.00  0.00    -0.331 N 
ATOM      5  C   UNL     1     -13.727 -44.957  27.288  1.00  0.00     0.065 C 
ATOM      6  C   UNL     1     -11.241 -43.889  28.413  1.00  0.00     0.262 C 
ATOM      7  C   UNL     1     -11.956 -43.195  27.259  1.00  0.00     0.065 C 
ATOM      8  H   UNL     1     -11.207 -45.736  27.500  1.00  0.00     0.348 HD
BRANCH   4   9
ATOM      9  C   UNL     1     -10.812 -46.132  29.474  1.00  0.00     0.299 C 
BRANCH   9  10
ATOM     10  C   UNL     1     -10.249 -45.241  30.547  1.00  0.00     0.006 A 
ATOM     11  C   UNL     1      -8.882 -44.920  30.562  1.00  0.00     0.009 A 
ATOM     12  C   UNL     1     -11.085 -44.701  31.538  1.00  0.00     0.009 A 
ATOM     13  C   UNL     1      -8.367 -44.072  31.543  1.00  0.00     0.001 A 
ATOM     14  C   UNL     1     -10.564 -43.854  32.516  1.00  0.00     0.001 A 
ATOM     15  C   UNL     1      -9.208 -43.537  32.517  1.00  0.00     0.000 A 
ENDBRANCH   9  10
ENDBRANCH   4   9
ENDBRANCH   1   2
BRANCH   1  16
ATOM     16  C   UNL     1     -15.173 -43.580  25.344  1.00  0.00     0.131 C 
BRANCH  16  17
ATOM     17  N   UNL     1     -16.463 -42.928  25.136  1.00  0.00    -0.260 N 
ATOM     18  C   UNL     1     -17.247 -42.624  26.248  1.00  0.00     0.264 A 
ATOM     19  C   UNL     1     -16.808 -42.597  23.832  1.00  0.00     0.328 A 
ATOM     20  C   UNL     1     -18.585 -42.058  25.986  1.00  0.00     0.064 A 
ATOM     21  N   UNL     1     -18.036 -42.033  23.645  1.00  0.00    -0.307 N 
ATOM     22  C   UNL     1     -19.481 -41.801  27.029  1.00  0.00     0.016 A 
ATOM     23  C   UNL     1     -18.940 -41.776  24.672  1.00  0.00     0.055 A 
ATOM     24  C   UNL     1     -20.734 -41.259  26.742  1.00  0.00     0.001 A 
ATOM     25  C   UNL     1     -20.189 -41.231  24.382  1.00  0.00     0.027 A 
ATOM     26  C   UNL     1     -21.086 -40.974  25.422  1.00  0.00     0.002 A 
ATOM     27  O   UNL     1     -16.870 -42.761  27.411  1.00  0.00    -0.268 OA
ATOM     28  O   UNL     1     -16.068 -42.769  22.866  1.00  0.00    -0.248 OA
ATOM     29  H   UNL     1     -18.277 -41.824  22.683  1.00  0.00     0.171 HD
ENDBRANCH  16  17
ENDBRANCH   1  16
TORSDOF 5
ENDMDL
MODEL 8
REMARK VINA RESULT:   -10.229      2.241      3.687
REMARK INTER + INTRA:         -13.850
REMARK INTER:                 -13.235
REMARK INTRA:                  -0.616
REMARK UNBOUND:                -0.631
REMARK SMILES O=c1[nH]c2ccccc2c(=O)n1CC[C@H]1CC[N@H+](Cc2ccccc2)CC1
REMARK SMILES IDX 14 1 15 2 17 3 18 4 16 5 26 6 27 7 19 9 20 10 21 11 25 12
REMARK SMILES IDX 22 13 24 14 23 15 13 16 12 17 10 18 2 19 9 20 3 21 8 22 4 23
REMARK SMILES IDX 7 24 5 25 6 26 11 27 1 28
REMARK H PARENT 18 8 3 29
ROOT
ATOM      1  C   UNL     1     -15.177 -42.444  24.832  1.00  0.00     0.026 C 
ENDROOT
BRANCH   1   2
ATOM      2  C   UNL     1     -15.116 -43.408  26.032  1.00  0.00     0.002 C 
ATOM      3  C   UNL     1     -13.683 -44.933  27.437  1.00  0.00     0.262 C 
ATOM      4  N   UNL     1     -14.158 -44.215  28.678  1.00  0.00    -0.331 N 
ATOM      5  C   UNL     1     -13.706 -43.971  26.259  1.00  0.00     0.065 C 
ATOM      6  C   UNL     1     -15.548 -43.647  28.514  1.00  0.00     0.262 C 
ATOM      7  C   UNL     1     -15.585 -42.707  27.315  1.00  0.00     0.065 C 
ATOM      8  H   UNL     1     -13.526 -43.422  28.840  1.00  0.00     0.348 HD
BRANCH   4   9
ATOM      9  C   UNL     1     -14.032 -45.104  29.900  1.00  0.00     0.299 C 
BRANCH   9  10
ATOM     10  C   UNL     1     -12.674 -45.030  30.545  1.00  0.00     0.006 A 
ATOM     11  C   UNL     1     -11.820 -46.145  30.536  1.00  0.00     0.009 A 
ATOM     12  C   UNL     1     -12.233 -43.841  31.146  1.00  0.00     0.009 A 
ATOM     13  C   UNL     1     -10.551 -46.067  31.111  1.00  0.00     0.001 A 
ATOM     14  C   UNL     1     -10.963 -43.770  31.720  1.00  0.00     0.001 A 
ATOM     15  C   UNL     1     -10.123 -44.880  31.699  1.00  0.00     0.000 A 
ENDBRANCH   9  10
ENDBRANCH   4   9
ENDBRANCH   1   2
BRANCH   1  16
ATOM     16  C   UNL     1     -15.970 -42.961  23.619  1.00  0.00     0.131 C 
BRANCH  16  17
ATOM     17  N   UNL     1     -17.023 -42.050  23.181  1.00  0.00    -0.260 N 
ATOM     18  C   UNL     1     -18.245 -42.065  23.853  1.00  0.00     0.264 A 
ATOM     19  C   UNL     1     -16.721 -41.174  22.146  1.00  0.00     0.328 A 
ATOM     20  C   UNL     1     -19.313 -41.201  23.314  1.00  0.00     0.064 A 
ATOM     21  N   UNL     1     -17.727 -40.362  21.714  1.00  0.00    -0.307 N 
ATOM     22  C   UNL     1     -20.600 -41.211  23.863  1.00  0.00     0.016 A 
ATOM     23  C   UNL     1     -19.013 -40.364  22.246  1.00  0.00     0.055 A 
ATOM     24  C   UNL     1     -21.582 -40.374  23.330  1.00  0.00     0.001 A 
ATOM     25  C   UNL     1     -19.991 -39.524  21.714  1.00  0.00     0.027 A 
ATOM     26  C   UNL     1     -21.277 -39.532  22.260  1.00  0.00     0.002 A 
ATOM     27  O   UNL     1     -18.457 -42.717  24.875  1.00  0.00    -0.268 OA
ATOM     28  O   UNL     1     -15.610 -41.089  21.628  1.00  0.00    -0.248 OA
ATOM     29  H   UNL     1     -17.491 -39.751  20.941  1.00  0.00     0.171 HD
ENDBRANCH  16  17
ENDBRANCH   1  16
TORSDOF 5
ENDMDL
MODEL 9
REMARK VINA RESULT:    -9.768      2.290      9.790
REMARK INTER + INTRA:         -13.254
REMARK INTER:                 -13.140
REMARK INTRA:                  -0.114
REMARK UNBOUND:                -0.631
REMARK SMILES O=c1[nH]c2ccccc2c(=O)n1CC[C@H]1CC[N@H+](Cc2ccccc2)CC1
REMARK SMILES IDX 14 1 15 2 17 3 18 4 16 5 26 6 27 7 19 9 20 10 21 11 25 12
REMARK SMILES IDX 22 13 24 14 23 15 13 16 12 17 10 18 2 19 9 20 3 21 8 22 4 23
REMARK SMILES IDX 7 24 5 25 6 26 11 27 1 28
REMARK H PARENT 18 8 3 29
ROOT
ATOM      1  C   UNL     1     -13.565 -43.860  27.182  1.00  0.00     0.026 C 
ENDROOT
BRANCH   1   2
ATOM      2  C   UNL     1     -14.709 -43.060  26.531  1.00  0.00     0.002 C 
ATOM      3  C   UNL     1     -16.151 -42.730  24.489  1.00  0.00     0.262 C 
ATOM      4  N   UNL     1     -17.382 -42.822  25.359  1.00  0.00    -0.331 N 
ATOM      5  C   UNL     1     -15.031 -43.551  25.112  1.00  0.00     0.065 C 
ATOM      6  C   UNL     1     -17.124 -42.342  26.767  1.00  0.00     0.262 C 
ATOM      7  C   UNL     1     -15.981 -43.140  27.386  1.00  0.00     0.065 C 
ATOM      8  H   UNL     1     -17.646 -43.813  25.422  1.00  0.00     0.348 HD
BRANCH   4   9
ATOM      9  C   UNL     1     -18.558 -42.120  24.710  1.00  0.00     0.299 C 
BRANCH   9  10
ATOM     10  C   UNL     1     -19.847 -42.312  25.462  1.00  0.00     0.006 A 
ATOM     11  C   UNL     1     -20.503 -41.213  26.042  1.00  0.00     0.009 A 
ATOM     12  C   UNL     1     -20.422 -43.586  25.579  1.00  0.00     0.009 A 
ATOM     13  C   UNL     1     -21.711 -41.389  26.718  1.00  0.00     0.001 A 
ATOM     14  C   UNL     1     -21.631 -43.756  26.255  1.00  0.00     0.001 A 
ATOM     15  C   UNL     1     -22.275 -42.658  26.821  1.00  0.00     0.000 A 
ENDBRANCH   9  10
ENDBRANCH   4   9
ENDBRANCH   1   2
BRANCH   1  16
ATOM     16  C   UNL     1     -12.154 -43.298  26.936  1.00  0.00     0.131 C 
BRANCH  16  17
ATOM     17  N   UNL     1     -11.210 -43.608  28.006  1.00  0.00    -0.260 N 
ATOM     18  C   UNL     1     -11.074 -44.934  28.417  1.00  0.00     0.264 A 
ATOM     19  C   UNL     1     -10.455 -42.560  28.516  1.00  0.00     0.328 A 
ATOM     20  C   UNL     1     -10.185 -45.187  29.568  1.00  0.00     0.064 A 
ATOM     21  N   UNL     1      -9.613 -42.852  29.548  1.00  0.00    -0.307 N 
ATOM     22  C   UNL     1     -10.050 -46.469  30.111  1.00  0.00     0.016 A 
ATOM     23  C   UNL     1      -9.472 -44.121  30.102  1.00  0.00     0.055 A 
ATOM     24  C   UNL     1      -9.194 -46.671  31.194  1.00  0.00     0.001 A 
ATOM     25  C   UNL     1      -8.613 -44.320  31.182  1.00  0.00     0.027 A 
ATOM     26  C   UNL     1      -8.477 -45.599  31.727  1.00  0.00     0.002 A 
ATOM     27  O   UNL     1     -11.614 -45.885  27.853  1.00  0.00    -0.268 OA
ATOM     28  O   UNL     1     -10.500 -41.412  28.078  1.00  0.00    -0.248 OA
ATOM     29  H   UNL     1      -9.093 -42.067  29.921  1.00  0.00     0.171 HD
ENDBRANCH  16  17
ENDBRANCH   1  16
TORSDOF 5
ENDMDL
