MODEL 1
REMARK VINA RESULT:   -13.121      0.000      0.000
REMARK INTER + INTRA:         -19.373
REMARK INTER:                 -18.491
REMARK INTRA:                  -0.883
REMARK UNBOUND:                -0.883
REMARK SMILES O=C1C(=NCCCNc2c3c(nc4cc(Cl)ccc24)CCCC3)C=C(O)c2c(O)cccc21
REMARK SMILES IDX 5 1 4 2 3 3 25 4 24 5 27 6 28 7 33 8 2 9 30 10 32 11 31 12
REMARK SMILES IDX 1 13 26 14 29 16 6 18 7 19 8 20 9 22 10 23 19 24 11 25 23 26
REMARK SMILES IDX 18 27 13 28 12 29 20 30 22 31 17 32 14 33 21 34 15 35 16 36
REMARK H PARENT 26 15 29 17 8 21
ROOT
ATOM      1  C   UNL     1     -12.626 -44.584  28.040  1.00  0.00     0.145 C 
ENDROOT
BRANCH   1   2
ATOM      2  N   UNL     1     -14.030 -44.232  28.200  1.00  0.00    -0.281 NA
BRANCH   2   3
ATOM      3  C   UNL     1     -14.719 -43.829  27.189  1.00  0.00     0.109 C 
ATOM      4  C   UNL     1     -15.201 -43.610  24.783  1.00  0.00     0.129 C 
ATOM      5  C   UNL     1     -14.370 -43.986  25.758  1.00  0.00     0.079 C 
ATOM      6  C   UNL     1     -16.528 -43.011  25.038  1.00  0.00     0.069 A 
ATOM      7  C   UNL     1     -17.432 -42.655  24.016  1.00  0.00     0.127 A 
ATOM      8  C   UNL     1     -16.930 -42.769  26.360  1.00  0.00     0.039 A 
ATOM      9  C   UNL     1     -16.035 -43.110  27.484  1.00  0.00     0.211 C 
ATOM     10  C   UNL     1     -18.677 -42.085  24.297  1.00  0.00     0.047 A 
ATOM     11  C   UNL     1     -18.179 -42.194  26.648  1.00  0.00     0.013 A 
ATOM     12  C   UNL     1     -19.050 -41.854  25.617  1.00  0.00     0.005 A 
ATOM     13  O   UNL     1     -16.343 -42.820  28.633  1.00  0.00    -0.287 OA
BRANCH   4  14
ATOM     14  O   UNL     1     -14.798 -43.799  23.473  1.00  0.00    -0.507 OA
ATOM     15  H   UNL     1     -13.819 -43.848  23.465  1.00  0.00     0.293 HD
ENDBRANCH   4  14
BRANCH   7  16
ATOM     16  O   UNL     1     -17.084 -42.870  22.704  1.00  0.00    -0.507 OA
ATOM     17  H   UNL     1     -17.105 -42.015  22.233  1.00  0.00     0.293 HD
ENDBRANCH   7  16
ENDBRANCH   2   3
ENDBRANCH   1   2
BRANCH   1  18
ATOM     18  C   UNL     1     -12.431 -46.009  28.556  1.00  0.00     0.045 C 
BRANCH  18  19
ATOM     19  C   UNL     1     -11.157 -46.123  29.388  1.00  0.00     0.115 C 
BRANCH  19  20
ATOM     20  N   UNL     1     -11.512 -46.325  30.799  1.00  0.00    -0.384 N 
ATOM     21  H   UNL     1     -12.492 -46.588  30.887  1.00  0.00     0.160 HD
BRANCH  20  22
ATOM     22  C   UNL     1     -11.242 -45.169  31.583  1.00  0.00     0.049 A 
ATOM     23  C   UNL     1      -9.911 -44.853  31.885  1.00  0.00    -0.003 A 
ATOM     24  C   UNL     1     -12.276 -44.276  31.985  1.00  0.00     0.024 A 
ATOM     25  C   UNL     1      -9.660 -43.690  32.610  1.00  0.00     0.046 A 
ATOM     26  C   UNL     1      -8.733 -45.735  31.562  1.00  0.00     0.039 C 
ATOM     27  C   UNL     1     -13.653 -44.470  31.706  1.00  0.00     0.014 A 
ATOM     28  C   UNL     1     -11.895 -43.122  32.710  1.00  0.00     0.074 A 
ATOM     29  N   UNL     1     -10.623 -42.837  33.018  1.00  0.00    -0.252 NA
ATOM     30  C   UNL     1      -8.237 -43.378  32.992  1.00  0.00     0.056 C 
ATOM     31  C   UNL     1      -7.543 -44.915  31.054  1.00  0.00     0.005 C 
ATOM     32  C   UNL     1     -14.614 -43.557  32.136  1.00  0.00     0.021 A 
ATOM     33  C   UNL     1     -12.867 -42.227  33.129  1.00  0.00     0.049 A 
ATOM     34  C   UNL     1      -7.301 -43.599  31.806  1.00  0.00     0.007 C 
ATOM     35  C   UNL     1     -14.214 -42.437  32.847  1.00  0.00     0.043 A 
ATOM     36  Cl  UNL     1     -15.390 -41.300  33.383  1.00  0.00    -0.084 Cl
ENDBRANCH  20  22
ENDBRANCH  19  20
ENDBRANCH  18  19
ENDBRANCH   1  18
TORSDOF 8
ENDMDL
MODEL 2
REMARK VINA RESULT:   -12.190      1.750      3.590
REMARK INTER + INTRA:         -18.062
REMARK INTER:                 -17.364
REMARK INTRA:                  -0.698
REMARK UNBOUND:                -0.883
REMARK SMILES O=C1C(=NCCCNc2c3c(nc4cc(Cl)ccc24)CCCC3)C=C(O)c2c(O)cccc21
REMARK SMILES IDX 5 1 4 2 3 3 25 4 24 5 27 6 28 7 33 8 2 9 30 10 32 11 31 12
REMARK SMILES IDX 1 13 26 14 29 16 6 18 7 19 8 20 9 22 10 23 19 24 11 25 23 26
REMARK SMILES IDX 18 27 13 28 12 29 20 30 22 31 17 32 14 33 21 34 15 35 16 36
REMARK H PARENT 26 15 29 17 8 21
ROOT
ATOM      1  C   UNL     1     -12.430 -44.511  28.050  1.00  0.00     0.145 C 
ENDROOT
BRANCH   1   2
ATOM      2  N   UNL     1     -13.828 -44.142  28.234  1.00  0.00    -0.281 NA
BRANCH   2   3
ATOM      3  C   UNL     1     -14.544 -43.784  27.225  1.00  0.00     0.109 C 
ATOM      4  C   UNL     1     -15.074 -43.640  24.824  1.00  0.00     0.129 C 
ATOM      5  C   UNL     1     -14.216 -43.969  25.793  1.00  0.00     0.079 C 
ATOM      6  C   UNL     1     -16.412 -43.069  25.087  1.00  0.00     0.069 A 
ATOM      7  C   UNL     1     -17.342 -42.762  24.074  1.00  0.00     0.127 A 
ATOM      8  C   UNL     1     -16.796 -42.803  26.409  1.00  0.00     0.039 A 
ATOM      9  C   UNL     1     -15.873 -43.091  27.526  1.00  0.00     0.211 C 
ATOM     10  C   UNL     1     -18.596 -42.217  24.362  1.00  0.00     0.047 A 
ATOM     11  C   UNL     1     -18.054 -42.251  26.705  1.00  0.00     0.013 A 
ATOM     12  C   UNL     1     -18.951 -41.961  25.682  1.00  0.00     0.005 A 
ATOM     13  O   UNL     1     -16.168 -42.779  28.673  1.00  0.00    -0.287 OA
BRANCH   4  14
ATOM     14  O   UNL     1     -14.689 -43.853  23.512  1.00  0.00    -0.507 OA
ATOM     15  H   UNL     1     -15.303 -43.352  22.935  1.00  0.00     0.293 HD
ENDBRANCH   4  14
BRANCH   7  16
ATOM     16  O   UNL     1     -17.012 -43.002  22.761  1.00  0.00    -0.507 OA
ATOM     17  H   UNL     1     -17.554 -42.423  22.193  1.00  0.00     0.293 HD
ENDBRANCH   7  16
ENDBRANCH   2   3
ENDBRANCH   1   2
BRANCH   1  18
ATOM     18  C   UNL     1     -12.262 -45.968  28.478  1.00  0.00     0.045 C 
BRANCH  18  19
ATOM     19  C   UNL     1     -11.002 -46.151  29.319  1.00  0.00     0.115 C 
BRANCH  19  20
ATOM     20  N   UNL     1     -11.377 -46.291  30.733  1.00  0.00    -0.384 N 
ATOM     21  H   UNL     1     -12.351 -46.575  30.819  1.00  0.00     0.160 HD
BRANCH  20  22
ATOM     22  C   UNL     1     -11.148 -45.091  31.462  1.00  0.00     0.049 A 
ATOM     23  C   UNL     1     -12.251 -44.348  31.903  1.00  0.00    -0.003 A 
ATOM     24  C   UNL     1      -9.838 -44.677  31.834  1.00  0.00     0.024 A 
ATOM     25  C   UNL     1     -12.011 -43.203  32.659  1.00  0.00     0.046 A 
ATOM     26  C   UNL     1     -13.681 -44.649  31.538  1.00  0.00     0.039 C 
ATOM     27  C   UNL     1      -8.651 -45.366  31.479  1.00  0.00     0.014 A 
ATOM     28  C   UNL     1      -9.723 -43.500  32.612  1.00  0.00     0.074 A 
ATOM     29  N   UNL     1     -10.779 -42.779  33.011  1.00  0.00    -0.252 NA
ATOM     30  C   UNL     1     -13.189 -42.365  33.084  1.00  0.00     0.056 C 
ATOM     31  C   UNL     1     -14.615 -44.476  32.740  1.00  0.00     0.005 C 
ATOM     32  C   UNL     1      -7.397 -44.901  31.874  1.00  0.00     0.021 A 
ATOM     33  C   UNL     1      -8.467 -43.054  32.993  1.00  0.00     0.049 A 
ATOM     34  C   UNL     1     -14.314 -43.250  33.615  1.00  0.00     0.007 C 
ATOM     35  C   UNL     1      -7.313 -43.743  32.631  1.00  0.00     0.043 A 
ATOM     36  Cl  UNL     1      -5.772 -43.158  33.128  1.00  0.00    -0.084 Cl
ENDBRANCH  20  22
ENDBRANCH  19  20
ENDBRANCH  18  19
ENDBRANCH   1  18
TORSDOF 8
ENDMDL
MODEL 3
REMARK VINA RESULT:   -11.605      1.106      2.051
REMARK INTER + INTRA:         -17.237
REMARK INTER:                 -16.615
REMARK INTRA:                  -0.622
REMARK UNBOUND:                -0.883
REMARK SMILES O=C1C(=NCCCNc2c3c(nc4cc(Cl)ccc24)CCCC3)C=C(O)c2c(O)cccc21
REMARK SMILES IDX 5 1 4 2 3 3 25 4 24 5 27 6 28 7 33 8 2 9 30 10 32 11 31 12
REMARK SMILES IDX 1 13 26 14 29 16 6 18 7 19 8 20 9 22 10 23 19 24 11 25 23 26
REMARK SMILES IDX 18 27 13 28 12 29 20 30 22 31 17 32 14 33 21 34 15 35 16 36
REMARK H PARENT 26 15 29 17 8 21
ROOT
ATOM      1  C   UNL     1     -14.077 -44.740  28.611  1.00  0.00     0.145 C 
ENDROOT
BRANCH   1   2
ATOM      2  N   UNL     1     -14.113 -43.758  27.535  1.00  0.00    -0.281 NA
BRANCH   2   3
ATOM      3  C   UNL     1     -15.238 -43.404  27.016  1.00  0.00     0.109 C 
ATOM      4  C   UNL     1     -17.516 -42.469  27.092  1.00  0.00     0.129 C 
ATOM      5  C   UNL     1     -16.427 -42.894  27.737  1.00  0.00     0.079 C 
ATOM      6  C   UNL     1     -17.633 -42.467  25.618  1.00  0.00     0.069 A 
ATOM      7  C   UNL     1     -18.759 -41.976  24.927  1.00  0.00     0.127 A 
ATOM      8  C   UNL     1     -16.582 -42.982  24.845  1.00  0.00     0.039 A 
ATOM      9  C   UNL     1     -15.371 -43.520  25.498  1.00  0.00     0.211 C 
ATOM     10  C   UNL     1     -18.836 -41.997  23.531  1.00  0.00     0.047 A 
ATOM     11  C   UNL     1     -16.655 -43.008  23.442  1.00  0.00     0.013 A 
ATOM     12  C   UNL     1     -17.780 -42.515  22.789  1.00  0.00     0.005 A 
ATOM     13  O   UNL     1     -14.491 -44.051  24.833  1.00  0.00    -0.287 OA
BRANCH   4  14
ATOM     14  O   UNL     1     -18.579 -42.002  27.844  1.00  0.00    -0.507 OA
ATOM     15  H   UNL     1     -18.929 -42.754  28.366  1.00  0.00     0.293 HD
ENDBRANCH   4  14
BRANCH   7  16
ATOM     16  O   UNL     1     -19.817 -41.463  25.639  1.00  0.00    -0.507 OA
ATOM     17  H   UNL     1     -19.669 -40.508  25.773  1.00  0.00     0.293 HD
ENDBRANCH   7  16
ENDBRANCH   2   3
ENDBRANCH   1   2
BRANCH   1  18
ATOM     18  C   UNL     1     -12.942 -45.721  28.322  1.00  0.00     0.045 C 
BRANCH  18  19
ATOM     19  C   UNL     1     -11.693 -45.368  29.123  1.00  0.00     0.115 C 
BRANCH  19  20
ATOM     20  N   UNL     1     -11.844 -45.854  30.502  1.00  0.00    -0.384 N 
ATOM     21  H   UNL     1     -12.798 -46.169  30.667  1.00  0.00     0.160 HD
BRANCH  20  22
ATOM     22  C   UNL     1     -11.482 -44.861  31.454  1.00  0.00     0.049 A 
ATOM     23  C   UNL     1     -10.126 -44.672  31.751  1.00  0.00    -0.003 A 
ATOM     24  C   UNL     1     -12.449 -43.995  32.040  1.00  0.00     0.024 A 
ATOM     25  C   UNL     1      -9.785 -43.661  32.648  1.00  0.00     0.046 A 
ATOM     26  C   UNL     1      -9.013 -45.548  31.239  1.00  0.00     0.039 C 
ATOM     27  C   UNL     1     -13.843 -44.066  31.788  1.00  0.00     0.014 A 
ATOM     28  C   UNL     1     -11.979 -43.001  32.930  1.00  0.00     0.074 A 
ATOM     29  N   UNL     1     -10.683 -42.839  33.230  1.00  0.00    -0.252 NA
ATOM     30  C   UNL     1      -8.335 -43.493  33.019  1.00  0.00     0.056 C 
ATOM     31  C   UNL     1      -7.792 -44.718  30.826  1.00  0.00     0.005 C 
ATOM     32  C   UNL     1     -14.735 -43.189  32.402  1.00  0.00     0.021 A 
ATOM     33  C   UNL     1     -12.883 -42.138  33.530  1.00  0.00     0.049 A 
ATOM     34  C   UNL     1      -7.451 -43.561  31.776  1.00  0.00     0.007 C 
ATOM     35  C   UNL     1     -14.248 -42.227  33.272  1.00  0.00     0.043 A 
ATOM     36  Cl  UNL     1     -15.338 -41.135  34.035  1.00  0.00    -0.084 Cl
ENDBRANCH  20  22
ENDBRANCH  19  20
ENDBRANCH  18  19
ENDBRANCH   1  18
TORSDOF 8
ENDMDL
MODEL 4
REMARK VINA RESULT:   -10.957      1.832      2.986
REMARK INTER + INTRA:         -16.324
REMARK INTER:                 -15.892
REMARK INTRA:                  -0.433
REMARK UNBOUND:                -0.883
REMARK SMILES O=C1C(=NCCCNc2c3c(nc4cc(Cl)ccc24)CCCC3)C=C(O)c2c(O)cccc21
REMARK SMILES IDX 5 1 4 2 3 3 25 4 24 5 27 6 28 7 33 8 2 9 30 10 32 11 31 12
REMARK SMILES IDX 1 13 26 14 29 16 6 18 7 19 8 20 9 22 10 23 19 24 11 25 23 26
REMARK SMILES IDX 18 27 13 28 12 29 20 30 22 31 17 32 14 33 21 34 15 35 16 36
REMARK H PARENT 26 15 29 17 8 21
ROOT
ATOM      1  C   UNL     1     -14.885 -42.703  26.516  1.00  0.00     0.145 C 
ENDROOT
BRANCH   1   2
ATOM      2  N   UNL     1     -15.496 -43.327  25.349  1.00  0.00    -0.281 NA
BRANCH   2   3
ATOM      3  C   UNL     1     -16.188 -42.622  24.523  1.00  0.00     0.109 C 
ATOM      4  C   UNL     1     -16.529 -41.347  22.442  1.00  0.00     0.129 C 
ATOM      5  C   UNL     1     -15.704 -41.985  23.277  1.00  0.00     0.079 C 
ATOM      6  C   UNL     1     -17.982 -41.221  22.682  1.00  0.00     0.069 A 
ATOM      7  C   UNL     1     -18.868 -40.592  21.784  1.00  0.00     0.127 A 
ATOM      8  C   UNL     1     -18.531 -41.743  23.862  1.00  0.00     0.039 A 
ATOM      9  C   UNL     1     -17.666 -42.411  24.854  1.00  0.00     0.211 C 
ATOM     10  C   UNL     1     -20.236 -40.486  22.048  1.00  0.00     0.047 A 
ATOM     11  C   UNL     1     -19.905 -41.637  24.135  1.00  0.00     0.013 A 
ATOM     12  C   UNL     1     -20.755 -41.011  23.227  1.00  0.00     0.005 A 
ATOM     13  O   UNL     1     -18.124 -42.789  25.925  1.00  0.00    -0.287 OA
BRANCH   4  14
ATOM     14  O   UNL     1     -15.993 -40.786  21.297  1.00  0.00    -0.507 OA
ATOM     15  H   UNL     1     -16.024 -41.463  20.589  1.00  0.00     0.293 HD
ENDBRANCH   4  14
BRANCH   7  16
ATOM     16  O   UNL     1     -18.378 -40.062  20.613  1.00  0.00    -0.507 OA
ATOM     17  H   UNL     1     -18.485 -39.093  20.642  1.00  0.00     0.293 HD
ENDBRANCH   7  16
ENDBRANCH   2   3
ENDBRANCH   1   2
BRANCH   1  18
ATOM     18  C   UNL     1     -15.235 -43.544  27.743  1.00  0.00     0.045 C 
BRANCH  18  19
ATOM     19  C   UNL     1     -14.032 -44.356  28.213  1.00  0.00     0.115 C 
BRANCH  19  20
ATOM     20  N   UNL     1     -14.370 -45.050  29.463  1.00  0.00    -0.384 N 
ATOM     21  H   UNL     1     -15.308 -44.797  29.770  1.00  0.00     0.160 HD
BRANCH  20  22
ATOM     22  C   UNL     1     -13.426 -44.778  30.491  1.00  0.00     0.049 A 
ATOM     23  C   UNL     1     -12.158 -45.370  30.419  1.00  0.00    -0.003 A 
ATOM     24  C   UNL     1     -13.701 -43.850  31.536  1.00  0.00     0.024 A 
ATOM     25  C   UNL     1     -11.228 -45.052  31.407  1.00  0.00     0.046 A 
ATOM     26  C   UNL     1     -11.758 -46.402  29.397  1.00  0.00     0.039 C 
ATOM     27  C   UNL     1     -14.931 -43.162  31.691  1.00  0.00     0.014 A 
ATOM     28  C   UNL     1     -12.672 -43.603  32.475  1.00  0.00     0.074 A 
ATOM     29  N   UNL     1     -11.469 -44.190  32.416  1.00  0.00    -0.252 NA
ATOM     30  C   UNL     1      -9.884 -45.733  31.370  1.00  0.00     0.056 C 
ATOM     31  C   UNL     1     -10.339 -46.153  28.876  1.00  0.00     0.005 C 
ATOM     32  C   UNL     1     -15.135 -42.270  32.742  1.00  0.00     0.021 A 
ATOM     33  C   UNL     1     -12.895 -42.712  33.514  1.00  0.00     0.049 A 
ATOM     34  C   UNL     1      -9.323 -45.738  29.950  1.00  0.00     0.007 C 
ATOM     35  C   UNL     1     -14.111 -42.050  33.651  1.00  0.00     0.043 A 
ATOM     36  Cl  UNL     1     -14.348 -40.949  34.953  1.00  0.00    -0.084 Cl
ENDBRANCH  20  22
ENDBRANCH  19  20
ENDBRANCH  18  19
ENDBRANCH   1  18
TORSDOF 8
ENDMDL
MODEL 5
REMARK VINA RESULT:   -10.866      4.406     10.444
REMARK INTER + INTRA:         -16.195
REMARK INTER:                 -15.660
REMARK INTRA:                  -0.535
REMARK UNBOUND:                -0.883
REMARK SMILES O=C1C(=NCCCNc2c3c(nc4cc(Cl)ccc24)CCCC3)C=C(O)c2c(O)cccc21
REMARK SMILES IDX 5 1 4 2 3 3 25 4 24 5 27 6 28 7 33 8 2 9 30 10 32 11 31 12
REMARK SMILES IDX 1 13 26 14 29 16 6 18 7 19 8 20 9 22 10 23 19 24 11 25 23 26
REMARK SMILES IDX 18 27 13 28 12 29 20 30 22 31 17 32 14 33 21 34 15 35 16 36
REMARK H PARENT 26 15 29 17 8 21
ROOT
ATOM      1  C   UNL     1     -15.099 -42.933  25.525  1.00  0.00     0.145 C 
ENDROOT
BRANCH   1   2
ATOM      2  N   UNL     1     -14.425 -44.133  26.005  1.00  0.00    -0.281 NA
BRANCH   2   3
ATOM      3  C   UNL     1     -13.336 -44.039  26.686  1.00  0.00     0.109 C 
ATOM      4  C   UNL     1     -11.488 -42.805  27.750  1.00  0.00     0.129 C 
ATOM      5  C   UNL     1     -12.560 -42.806  26.953  1.00  0.00     0.079 C 
ATOM      6  C   UNL     1     -10.985 -44.017  28.430  1.00  0.00     0.069 A 
ATOM      7  C   UNL     1      -9.884 -44.017  29.309  1.00  0.00     0.127 A 
ATOM      8  C   UNL     1     -11.618 -45.247  28.197  1.00  0.00     0.039 A 
ATOM      9  C   UNL     1     -12.775 -45.329  27.283  1.00  0.00     0.211 C 
ATOM     10  C   UNL     1      -9.433 -45.186  29.929  1.00  0.00     0.047 A 
ATOM     11  C   UNL     1     -11.167 -46.426  28.815  1.00  0.00     0.013 A 
ATOM     12  C   UNL     1     -10.078 -46.393  29.680  1.00  0.00     0.005 A 
ATOM     13  O   UNL     1     -13.274 -46.412  27.008  1.00  0.00    -0.287 OA
BRANCH   4  14
ATOM     14  O   UNL     1     -10.826 -41.607  27.951  1.00  0.00    -0.507 OA
ATOM     15  H   UNL     1     -10.172 -41.743  28.668  1.00  0.00     0.293 HD
ENDBRANCH   4  14
BRANCH   7  16
ATOM     16  O   UNL     1      -9.228 -42.837  29.568  1.00  0.00    -0.507 OA
ATOM     17  H   UNL     1      -9.449 -42.550  30.474  1.00  0.00     0.293 HD
ENDBRANCH   7  16
ENDBRANCH   2   3
ENDBRANCH   1   2
BRANCH   1  18
ATOM     18  C   UNL     1     -15.442 -43.137  24.050  1.00  0.00     0.045 C 
BRANCH  18  19
ATOM     19  C   UNL     1     -16.300 -41.992  23.522  1.00  0.00     0.115 C 
BRANCH  19  20
ATOM     20  N   UNL     1     -17.494 -42.541  22.864  1.00  0.00    -0.384 N 
ATOM     21  H   UNL     1     -17.374 -42.546  21.852  1.00  0.00     0.160 HD
BRANCH  20  22
ATOM     22  C   UNL     1     -18.669 -41.821  23.215  1.00  0.00     0.049 A 
ATOM     23  C   UNL     1     -19.202 -41.982  24.501  1.00  0.00    -0.003 A 
ATOM     24  C   UNL     1     -19.261 -40.873  22.332  1.00  0.00     0.024 A 
ATOM     25  C   UNL     1     -20.323 -41.230  24.846  1.00  0.00     0.046 A 
ATOM     26  C   UNL     1     -18.702 -42.983  25.509  1.00  0.00     0.039 C 
ATOM     27  C   UNL     1     -18.790 -40.597  21.023  1.00  0.00     0.014 A 
ATOM     28  C   UNL     1     -20.393 -40.164  22.800  1.00  0.00     0.074 A 
ATOM     29  N   UNL     1     -20.913 -40.340  24.022  1.00  0.00    -0.252 NA
ATOM     30  C   UNL     1     -20.938 -41.445  26.205  1.00  0.00     0.056 C 
ATOM     31  C   UNL     1     -18.654 -42.383  26.918  1.00  0.00     0.005 C 
ATOM     32  C   UNL     1     -19.422 -39.659  20.209  1.00  0.00     0.021 A 
ATOM     33  C   UNL     1     -21.007 -39.236  21.974  1.00  0.00     0.049 A 
ATOM     34  C   UNL     1     -19.857 -41.500  27.281  1.00  0.00     0.007 C 
ATOM     35  C   UNL     1     -20.531 -38.982  20.691  1.00  0.00     0.043 A 
ATOM     36  Cl  UNL     1     -21.321 -37.820  19.697  1.00  0.00    -0.084 Cl
ENDBRANCH  20  22
ENDBRANCH  19  20
ENDBRANCH  18  19
ENDBRANCH   1  18
TORSDOF 8
ENDMDL
MODEL 6
REMARK VINA RESULT:   -10.396      4.131     10.131
REMARK INTER + INTRA:         -15.532
REMARK INTER:                 -14.917
REMARK INTRA:                  -0.615
REMARK UNBOUND:                -0.883
REMARK SMILES O=C1C(=NCCCNc2c3c(nc4cc(Cl)ccc24)CCCC3)C=C(O)c2c(O)cccc21
REMARK SMILES IDX 5 1 4 2 3 3 25 4 24 5 27 6 28 7 33 8 2 9 30 10 32 11 31 12
REMARK SMILES IDX 1 13 26 14 29 16 6 18 7 19 8 20 9 22 10 23 19 24 11 25 23 26
REMARK SMILES IDX 18 27 13 28 12 29 20 30 22 31 17 32 14 33 21 34 15 35 16 36
REMARK H PARENT 26 15 29 17 8 21
ROOT
ATOM      1  C   UNL     1     -14.698 -42.874  25.590  1.00  0.00     0.145 C 
ENDROOT
BRANCH   1   2
ATOM      2  N   UNL     1     -15.026 -44.143  26.229  1.00  0.00    -0.281 NA
BRANCH   2   3
ATOM      3  C   UNL     1     -14.249 -44.637  27.129  1.00  0.00     0.109 C 
ATOM      4  C   UNL     1     -12.275 -45.889  27.908  1.00  0.00     0.129 C 
ATOM      5  C   UNL     1     -13.068 -45.503  26.905  1.00  0.00     0.079 C 
ATOM      6  C   UNL     1     -12.499 -45.493  29.314  1.00  0.00     0.069 A 
ATOM      7  C   UNL     1     -11.642 -45.856  30.372  1.00  0.00     0.127 A 
ATOM      8  C   UNL     1     -13.623 -44.719  29.639  1.00  0.00     0.039 A 
ATOM      9  C   UNL     1     -14.571 -44.304  28.586  1.00  0.00     0.211 C 
ATOM     10  C   UNL     1     -11.890 -45.468  31.691  1.00  0.00     0.047 A 
ATOM     11  C   UNL     1     -13.880 -44.328  30.964  1.00  0.00     0.013 A 
ATOM     12  C   UNL     1     -13.013 -44.701  31.986  1.00  0.00     0.005 A 
ATOM     13  O   UNL     1     -15.599 -43.705  28.876  1.00  0.00    -0.287 OA
BRANCH   4  14
ATOM     14  O   UNL     1     -11.190 -46.692  27.608  1.00  0.00    -0.507 OA
ATOM     15  H   UNL     1     -11.345 -47.570  28.015  1.00  0.00     0.293 HD
ENDBRANCH   4  14
BRANCH   7  16
ATOM     16  O   UNL     1     -10.528 -46.617  30.106  1.00  0.00    -0.507 OA
ATOM     17  H   UNL     1     -10.011 -46.711  30.928  1.00  0.00     0.293 HD
ENDBRANCH   7  16
ENDBRANCH   2   3
ENDBRANCH   1   2
BRANCH   1  18
ATOM     18  C   UNL     1     -15.113 -42.960  24.122  1.00  0.00     0.045 C 
BRANCH  18  19
ATOM     19  C   UNL     1     -16.073 -41.831  23.756  1.00  0.00     0.115 C 
BRANCH  19  20
ATOM     20  N   UNL     1     -17.190 -42.376  22.972  1.00  0.00    -0.384 N 
ATOM     21  H   UNL     1     -17.010 -42.274  21.975  1.00  0.00     0.160 HD
BRANCH  20  22
ATOM     22  C   UNL     1     -18.425 -41.761  23.315  1.00  0.00     0.049 A 
ATOM     23  C   UNL     1     -18.961 -41.984  24.590  1.00  0.00    -0.003 A 
ATOM     24  C   UNL     1     -19.082 -40.854  22.435  1.00  0.00     0.024 A 
ATOM     25  C   UNL     1     -20.146 -41.333  24.928  1.00  0.00     0.046 A 
ATOM     26  C   UNL     1     -18.395 -42.955  25.593  1.00  0.00     0.039 C 
ATOM     27  C   UNL     1     -18.616 -40.520  21.138  1.00  0.00     0.014 A 
ATOM     28  C   UNL     1     -20.275 -40.247  22.895  1.00  0.00     0.074 A 
ATOM     29  N   UNL     1     -20.796 -40.483  24.107  1.00  0.00    -0.252 NA
ATOM     30  C   UNL     1     -20.761 -41.618  26.274  1.00  0.00     0.056 C 
ATOM     31  C   UNL     1     -18.417 -42.374  27.010  1.00  0.00     0.005 C 
ATOM     32  C   UNL     1     -19.312 -39.626  20.326  1.00  0.00     0.021 A 
ATOM     33  C   UNL     1     -20.952 -39.361  22.072  1.00  0.00     0.049 A 
ATOM     34  C   UNL     1     -19.694 -41.598  27.366  1.00  0.00     0.007 C 
ATOM     35  C   UNL     1     -20.480 -39.050  20.800  1.00  0.00     0.043 A 
ATOM     36  Cl  UNL     1     -21.349 -37.943  19.809  1.00  0.00    -0.084 Cl
ENDBRANCH  20  22
ENDBRANCH  19  20
ENDBRANCH  18  19
ENDBRANCH   1  18
TORSDOF 8
ENDMDL
