MODEL 1
REMARK VINA RESULT:   -11.841      0.000      0.000
REMARK INTER + INTRA:         -16.744
REMARK INTER:                 -15.994
REMARK INTRA:                  -0.750
REMARK UNBOUND:                -0.750
REMARK SMILES O=C1c2cccc([N+](=O)[O-])c2C(=O)N1CC[C@H]1CC[N@@H+](Cc2ccccc2)CC1
REMARK SMILES IDX 16 1 17 2 19 3 20 4 18 5 28 6 29 7 21 9 22 10 23 11 27 12
REMARK SMILES IDX 24 13 26 14 25 15 15 16 14 17 12 18 2 19 11 20 3 21 7 22
REMARK SMILES IDX 4 23 6 24 5 25 13 26 1 27 8 28 9 29 10 30
REMARK H PARENT 20 8
ROOT
ATOM      1  C   UNL     1     -14.170 -44.374  27.079  1.00  0.00     0.026 C 
ENDROOT
BRANCH   1   2
ATOM      2  C   UNL     1     -12.745 -44.898  27.377  1.00  0.00     0.002 C 
ATOM      3  C   UNL     1     -12.609 -46.180  29.624  1.00  0.00     0.262 C 
ATOM      4  N   UNL     1     -11.470 -45.267  30.010  1.00  0.00    -0.331 N 
ATOM      5  C   UNL     1     -12.707 -46.249  28.106  1.00  0.00     0.065 C 
ATOM      6  C   UNL     1     -11.687 -43.870  29.510  1.00  0.00     0.262 C 
ATOM      7  C   UNL     1     -11.789 -43.864  27.990  1.00  0.00     0.065 C 
ATOM      8  H   UNL     1     -10.620 -45.644  29.571  1.00  0.00     0.348 HD
BRANCH   4   9
ATOM      9  C   UNL     1     -11.207 -45.289  31.505  1.00  0.00     0.299 C 
BRANCH   9  10
ATOM     10  C   UNL     1      -9.830 -44.803  31.867  1.00  0.00     0.006 A 
ATOM     11  C   UNL     1      -9.660 -43.597  32.563  1.00  0.00     0.009 A 
ATOM     12  C   UNL     1      -8.697 -45.561  31.531  1.00  0.00     0.009 A 
ATOM     13  C   UNL     1      -8.383 -43.163  32.922  1.00  0.00     0.001 A 
ATOM     14  C   UNL     1      -7.422 -45.122  31.891  1.00  0.00     0.001 A 
ATOM     15  C   UNL     1      -7.266 -43.926  32.587  1.00  0.00     0.000 A 
ENDBRANCH   9  10
ENDBRANCH   4   9
ENDBRANCH   1   2
BRANCH   1  16
ATOM     16  C   UNL     1     -14.329 -42.927  26.604  1.00  0.00     0.129 C 
BRANCH  16  17
ATOM     17  N   UNL     1     -15.618 -42.699  25.979  1.00  0.00    -0.274 N 
ATOM     18  C   UNL     1     -16.792 -42.596  26.670  1.00  0.00     0.268 C 
ATOM     19  C   UNL     1     -15.828 -42.719  24.626  1.00  0.00     0.261 C 
ATOM     20  C   UNL     1     -17.851 -42.433  25.681  1.00  0.00     0.130 A 
ATOM     21  C   UNL     1     -17.267 -42.530  24.429  1.00  0.00     0.060 A 
ATOM     22  C   UNL     1     -19.210 -42.251  25.799  1.00  0.00     0.282 A 
ATOM     23  C   UNL     1     -18.007 -42.463  23.262  1.00  0.00     0.015 A 
ATOM     24  C   UNL     1     -20.002 -42.184  24.646  1.00  0.00     0.086 A 
ATOM     25  C   UNL     1     -19.394 -42.291  23.380  1.00  0.00     0.008 A 
ATOM     26  O   UNL     1     -16.958 -42.681  27.871  1.00  0.00    -0.268 OA
ATOM     27  O   UNL     1     -15.022 -42.881  23.733  1.00  0.00    -0.269 OA
BRANCH  22  28
ATOM     28  N   UNL     1     -19.810 -42.108  27.098  1.00  0.00     0.063 N 
ATOM     29  O   UNL     1     -20.042 -40.955  27.482  1.00  0.00    -0.258 OA
ATOM     30  O   UNL     1     -20.062 -43.150  27.714  1.00  0.00    -0.258 OA
ENDBRANCH  22  28
ENDBRANCH  16  17
ENDBRANCH   1  16
TORSDOF 6
ENDMDL
MODEL 2
REMARK VINA RESULT:   -11.667      1.465      2.451
REMARK INTER + INTRA:         -16.509
REMARK INTER:                 -15.636
REMARK INTRA:                  -0.873
REMARK UNBOUND:                -0.750
REMARK SMILES O=C1c2cccc([N+](=O)[O-])c2C(=O)N1CC[C@H]1CC[N@@H+](Cc2ccccc2)CC1
REMARK SMILES IDX 16 1 17 2 19 3 20 4 18 5 28 6 29 7 21 9 22 10 23 11 27 12
REMARK SMILES IDX 24 13 26 14 25 15 15 16 14 17 12 18 2 19 11 20 3 21 7 22
REMARK SMILES IDX 4 23 6 24 5 25 13 26 1 27 8 28 9 29 10 30
REMARK H PARENT 20 8
ROOT
ATOM      1  C   UNL     1     -14.044 -44.741  26.995  1.00  0.00     0.026 C 
ENDROOT
BRANCH   1   2
ATOM      2  C   UNL     1     -12.627 -45.223  27.388  1.00  0.00     0.002 C 
ATOM      3  C   UNL     1     -12.530 -46.156  29.803  1.00  0.00     0.262 C 
ATOM      4  N   UNL     1     -11.389 -45.203  30.064  1.00  0.00    -0.331 N 
ATOM      5  C   UNL     1     -12.609 -46.451  28.311  1.00  0.00     0.065 C 
ATOM      6  C   UNL     1     -11.588 -43.895  29.358  1.00  0.00     0.262 C 
ATOM      7  C   UNL     1     -11.671 -44.115  27.853  1.00  0.00     0.065 C 
ATOM      8  H   UNL     1     -10.536 -45.646  29.698  1.00  0.00     0.348 HD
BRANCH   4   9
ATOM      9  C   UNL     1     -11.145 -45.004  31.549  1.00  0.00     0.299 C 
BRANCH   9  10
ATOM     10  C   UNL     1      -9.710 -44.686  31.872  1.00  0.00     0.006 A 
ATOM     11  C   UNL     1      -9.381 -43.522  32.581  1.00  0.00     0.009 A 
ATOM     12  C   UNL     1      -8.684 -45.563  31.486  1.00  0.00     0.009 A 
ATOM     13  C   UNL     1      -8.051 -43.244  32.903  1.00  0.00     0.001 A 
ATOM     14  C   UNL     1      -7.356 -45.280  31.810  1.00  0.00     0.001 A 
ATOM     15  C   UNL     1      -7.041 -44.123  32.519  1.00  0.00     0.000 A 
ENDBRANCH   9  10
ENDBRANCH   4   9
ENDBRANCH   1   2
BRANCH   1  16
ATOM     16  C   UNL     1     -14.232 -43.271  26.610  1.00  0.00     0.129 C 
BRANCH  16  17
ATOM     17  N   UNL     1     -15.629 -42.938  26.404  1.00  0.00    -0.274 N 
ATOM     18  C   UNL     1     -16.172 -42.652  25.184  1.00  0.00     0.268 C 
ATOM     19  C   UNL     1     -16.521 -42.716  27.418  1.00  0.00     0.261 C 
ATOM     20  C   UNL     1     -17.571 -42.312  25.414  1.00  0.00     0.130 A 
ATOM     21  C   UNL     1     -17.781 -42.329  26.781  1.00  0.00     0.060 A 
ATOM     22  C   UNL     1     -18.595 -41.977  24.559  1.00  0.00     0.282 A 
ATOM     23  C   UNL     1     -19.003 -42.004  27.344  1.00  0.00     0.015 A 
ATOM     24  C   UNL     1     -19.849 -41.634  25.082  1.00  0.00     0.086 A 
ATOM     25  C   UNL     1     -20.045 -41.650  26.476  1.00  0.00     0.008 A 
ATOM     26  O   UNL     1     -15.607 -42.621  24.107  1.00  0.00    -0.268 OA
ATOM     27  O   UNL     1     -16.344 -42.789  28.617  1.00  0.00    -0.269 OA
BRANCH  22  28
ATOM     28  N   UNL     1     -18.388 -42.000  23.136  1.00  0.00     0.063 N 
ATOM     29  O   UNL     1     -18.583 -43.078  22.562  1.00  0.00    -0.258 OA
ATOM     30  O   UNL     1     -18.050 -40.937  22.604  1.00  0.00    -0.258 OA
ENDBRANCH  22  28
ENDBRANCH  16  17
ENDBRANCH   1  16
TORSDOF 6
ENDMDL
MODEL 3
REMARK VINA RESULT:   -11.006      3.917     10.063
REMARK INTER + INTRA:         -15.616
REMARK INTER:                 -15.123
REMARK INTRA:                  -0.493
REMARK UNBOUND:                -0.750
REMARK SMILES O=C1c2cccc([N+](=O)[O-])c2C(=O)N1CC[C@H]1CC[N@@H+](Cc2ccccc2)CC1
REMARK SMILES IDX 16 1 17 2 19 3 20 4 18 5 28 6 29 7 21 9 22 10 23 11 27 12
REMARK SMILES IDX 24 13 26 14 25 15 15 16 14 17 12 18 2 19 11 20 3 21 7 22
REMARK SMILES IDX 4 23 6 24 5 25 13 26 1 27 8 28 9 29 10 30
REMARK H PARENT 20 8
ROOT
ATOM      1  C   UNL     1     -11.557 -45.612  28.624  1.00  0.00     0.026 C 
ENDROOT
BRANCH   1   2
ATOM      2  C   UNL     1     -12.585 -44.456  28.565  1.00  0.00     0.002 C 
ATOM      3  C   UNL     1     -14.224 -44.687  26.573  1.00  0.00     0.262 C 
ATOM      4  N   UNL     1     -13.846 -43.281  26.173  1.00  0.00    -0.331 N 
ATOM      5  C   UNL     1     -13.976 -44.870  28.064  1.00  0.00     0.065 C 
ATOM      6  C   UNL     1     -12.393 -43.006  26.423  1.00  0.00     0.262 C 
ATOM      7  C   UNL     1     -12.074 -43.168  27.904  1.00  0.00     0.065 C 
ATOM      8  H   UNL     1     -14.405 -42.642  26.753  1.00  0.00     0.348 HD
BRANCH   4   9
ATOM      9  C   UNL     1     -14.232 -42.976  24.737  1.00  0.00     0.299 C 
BRANCH   9  10
ATOM     10  C   UNL     1     -15.702 -42.707  24.566  1.00  0.00     0.006 A 
ATOM     11  C   UNL     1     -16.247 -42.513  23.289  1.00  0.00     0.009 A 
ATOM     12  C   UNL     1     -16.552 -42.670  25.683  1.00  0.00     0.009 A 
ATOM     13  C   UNL     1     -17.617 -42.291  23.132  1.00  0.00     0.001 A 
ATOM     14  C   UNL     1     -17.920 -42.448  25.521  1.00  0.00     0.001 A 
ATOM     15  C   UNL     1     -18.451 -42.261  24.247  1.00  0.00     0.000 A 
ENDBRANCH   9  10
ENDBRANCH   4   9
ENDBRANCH   1   2
BRANCH   1  16
ATOM     16  C   UNL     1     -11.219 -46.216  29.989  1.00  0.00     0.129 C 
BRANCH  16  17
ATOM     17  N   UNL     1     -10.840 -45.201  30.954  1.00  0.00    -0.274 N 
ATOM     18  C   UNL     1      -9.546 -44.873  31.246  1.00  0.00     0.268 C 
ATOM     19  C   UNL     1     -11.721 -44.571  31.790  1.00  0.00     0.261 C 
ATOM     20  C   UNL     1      -9.594 -43.865  32.298  1.00  0.00     0.130 A 
ATOM     21  C   UNL     1     -10.922 -43.694  32.648  1.00  0.00     0.060 A 
ATOM     22  C   UNL     1      -8.609 -43.159  32.950  1.00  0.00     0.282 A 
ATOM     23  C   UNL     1     -11.314 -42.833  33.657  1.00  0.00     0.015 A 
ATOM     24  C   UNL     1      -8.957 -42.279  33.984  1.00  0.00     0.086 A 
ATOM     25  C   UNL     1     -10.312 -42.122  34.332  1.00  0.00     0.008 A 
ATOM     26  O   UNL     1      -8.533 -45.356  30.779  1.00  0.00    -0.268 OA
ATOM     27  O   UNL     1     -12.927 -44.698  31.860  1.00  0.00    -0.269 OA
BRANCH  22  28
ATOM     28  N   UNL     1      -7.233 -43.305  32.558  1.00  0.00     0.063 N 
ATOM     29  O   UNL     1      -6.904 -42.799  31.478  1.00  0.00    -0.258 OA
ATOM     30  O   UNL     1      -6.491 -43.907  33.342  1.00  0.00    -0.258 OA
ENDBRANCH  22  28
ENDBRANCH  16  17
ENDBRANCH   1  16
TORSDOF 6
ENDMDL
MODEL 4
REMARK VINA RESULT:   -10.609      2.902      9.390
REMARK INTER + INTRA:         -15.079
REMARK INTER:                 -14.104
REMARK INTRA:                  -0.975
REMARK UNBOUND:                -0.750
REMARK SMILES O=C1c2cccc([N+](=O)[O-])c2C(=O)N1CC[C@H]1CC[N@@H+](Cc2ccccc2)CC1
REMARK SMILES IDX 16 1 17 2 19 3 20 4 18 5 28 6 29 7 21 9 22 10 23 11 27 12
REMARK SMILES IDX 24 13 26 14 25 15 15 16 14 17 12 18 2 19 11 20 3 21 7 22
REMARK SMILES IDX 4 23 6 24 5 25 13 26 1 27 8 28 9 29 10 30
REMARK H PARENT 20 8
ROOT
ATOM      1  C   UNL     1     -12.693 -44.940  27.427  1.00  0.00     0.026 C 
ENDROOT
BRANCH   1   2
ATOM      2  C   UNL     1     -14.134 -44.830  26.872  1.00  0.00     0.002 C 
ATOM      3  C   UNL     1     -14.188 -44.063  24.399  1.00  0.00     0.262 C 
ATOM      4  N   UNL     1     -15.141 -42.969  24.818  1.00  0.00    -0.331 N 
ATOM      5  C   UNL     1     -14.274 -45.214  25.392  1.00  0.00     0.065 C 
ATOM      6  C   UNL     1     -14.793 -42.422  26.171  1.00  0.00     0.262 C 
ATOM      7  C   UNL     1     -14.863 -43.524  27.219  1.00  0.00     0.065 C 
ATOM      8  H   UNL     1     -16.079 -43.388  24.866  1.00  0.00     0.348 HD
BRANCH   4   9
ATOM      9  C   UNL     1     -15.234 -41.868  23.778  1.00  0.00     0.299 C 
BRANCH   9  10
ATOM     10  C   UNL     1     -16.632 -41.664  23.260  1.00  0.00     0.006 A 
ATOM     11  C   UNL     1     -17.719 -42.305  23.873  1.00  0.00     0.009 A 
ATOM     12  C   UNL     1     -16.870 -40.812  22.170  1.00  0.00     0.009 A 
ATOM     13  C   UNL     1     -19.018 -42.092  23.408  1.00  0.00     0.001 A 
ATOM     14  C   UNL     1     -18.170 -40.604  21.709  1.00  0.00     0.001 A 
ATOM     15  C   UNL     1     -19.242 -41.242  22.328  1.00  0.00     0.000 A 
ENDBRANCH   9  10
ENDBRANCH   4   9
ENDBRANCH   1   2
BRANCH   1  16
ATOM     16  C   UNL     1     -12.434 -45.897  28.593  1.00  0.00     0.129 C 
BRANCH  16  17
ATOM     17  N   UNL     1     -12.029 -45.192  29.795  1.00  0.00    -0.274 N 
ATOM     18  C   UNL     1     -12.882 -44.465  30.576  1.00  0.00     0.268 C 
ATOM     19  C   UNL     1     -10.728 -45.044  30.194  1.00  0.00     0.261 C 
ATOM     20  C   UNL     1     -12.079 -43.872  31.638  1.00  0.00     0.130 A 
ATOM     21  C   UNL     1     -10.758 -44.205  31.394  1.00  0.00     0.060 A 
ATOM     22  C   UNL     1     -12.406 -43.080  32.715  1.00  0.00     0.282 A 
ATOM     23  C   UNL     1      -9.724 -43.758  32.197  1.00  0.00     0.015 A 
ATOM     24  C   UNL     1     -11.392 -42.598  33.553  1.00  0.00     0.086 A 
ATOM     25  C   UNL     1     -10.053 -42.942  33.288  1.00  0.00     0.008 A 
ATOM     26  O   UNL     1     -14.072 -44.283  30.407  1.00  0.00    -0.268 OA
ATOM     27  O   UNL     1      -9.719 -45.478  29.677  1.00  0.00    -0.269 OA
BRANCH  22  28
ATOM     28  N   UNL     1     -13.783 -42.769  32.992  1.00  0.00     0.063 N 
ATOM     29  O   UNL     1     -14.422 -43.601  33.648  1.00  0.00    -0.258 OA
ATOM     30  O   UNL     1     -14.206 -41.687  32.568  1.00  0.00    -0.258 OA
ENDBRANCH  22  28
ENDBRANCH  16  17
ENDBRANCH   1  16
TORSDOF 6
ENDMDL
MODEL 5
REMARK VINA RESULT:   -10.424      2.009      3.286
REMARK INTER + INTRA:         -14.830
REMARK INTER:                 -14.302
REMARK INTRA:                  -0.528
REMARK UNBOUND:                -0.750
REMARK SMILES O=C1c2cccc([N+](=O)[O-])c2C(=O)N1CC[C@H]1CC[N@@H+](Cc2ccccc2)CC1
REMARK SMILES IDX 16 1 17 2 19 3 20 4 18 5 28 6 29 7 21 9 22 10 23 11 27 12
REMARK SMILES IDX 24 13 26 14 25 15 15 16 14 17 12 18 2 19 11 20 3 21 7 22
REMARK SMILES IDX 4 23 6 24 5 25 13 26 1 27 8 28 9 29 10 30
REMARK H PARENT 20 8
ROOT
ATOM      1  C   UNL     1     -13.798 -44.652  26.897  1.00  0.00     0.026 C 
ENDROOT
BRANCH   1   2
ATOM      2  C   UNL     1     -12.364 -45.073  27.302  1.00  0.00     0.002 C 
ATOM      3  C   UNL     1     -12.287 -46.239  29.613  1.00  0.00     0.262 C 
ATOM      4  N   UNL     1     -11.229 -45.241  30.018  1.00  0.00    -0.331 N 
ATOM      5  C   UNL     1     -12.289 -46.384  28.097  1.00  0.00     0.065 C 
ATOM      6  C   UNL     1     -11.498 -43.884  29.437  1.00  0.00     0.262 C 
ATOM      7  C   UNL     1     -11.510 -43.954  27.916  1.00  0.00     0.065 C 
ATOM      8  H   UNL     1     -10.333 -45.583  29.647  1.00  0.00     0.348 HD
BRANCH   4   9
ATOM      9  C   UNL     1     -11.054 -45.178  31.524  1.00  0.00     0.299 C 
BRANCH   9  10
ATOM     10  C   UNL     1     -12.043 -44.263  32.193  1.00  0.00     0.006 A 
ATOM     11  C   UNL     1     -11.610 -43.093  32.835  1.00  0.00     0.009 A 
ATOM     12  C   UNL     1     -13.416 -44.555  32.164  1.00  0.00     0.009 A 
ATOM     13  C   UNL     1     -12.533 -42.231  33.431  1.00  0.00     0.001 A 
ATOM     14  C   UNL     1     -14.334 -43.691  32.761  1.00  0.00     0.001 A 
ATOM     15  C   UNL     1     -13.893 -42.530  33.392  1.00  0.00     0.000 A 
ENDBRANCH   9  10
ENDBRANCH   4   9
ENDBRANCH   1   2
BRANCH   1  16
ATOM     16  C   UNL     1     -14.067 -43.174  26.602  1.00  0.00     0.129 C 
BRANCH  16  17
ATOM     17  N   UNL     1     -15.479 -42.907  26.408  1.00  0.00    -0.274 N 
ATOM     18  C   UNL     1     -16.042 -42.627  25.195  1.00  0.00     0.268 C 
ATOM     19  C   UNL     1     -16.377 -42.750  27.429  1.00  0.00     0.261 C 
ATOM     20  C   UNL     1     -17.455 -42.362  25.437  1.00  0.00     0.130 A 
ATOM     21  C   UNL     1     -17.658 -42.415  26.805  1.00  0.00     0.060 A 
ATOM     22  C   UNL     1     -18.500 -42.063  24.593  1.00  0.00     0.282 A 
ATOM     23  C   UNL     1     -18.892 -42.161  27.378  1.00  0.00     0.015 A 
ATOM     24  C   UNL     1     -19.766 -41.793  25.127  1.00  0.00     0.086 A 
ATOM     25  C   UNL     1     -19.955 -41.844  26.521  1.00  0.00     0.008 A 
ATOM     26  O   UNL     1     -15.485 -42.549  24.117  1.00  0.00    -0.268 OA
ATOM     27  O   UNL     1     -16.190 -42.836  28.626  1.00  0.00    -0.269 OA
BRANCH  22  28
ATOM     28  N   UNL     1     -18.298 -42.050  23.168  1.00  0.00     0.063 N 
ATOM     29  O   UNL     1     -18.235 -40.941  22.624  1.00  0.00    -0.258 OA
ATOM     30  O   UNL     1     -18.186 -43.148  22.611  1.00  0.00    -0.258 OA
ENDBRANCH  22  28
ENDBRANCH  16  17
ENDBRANCH   1  16
TORSDOF 6
ENDMDL
MODEL 6
REMARK VINA RESULT:    -9.952      3.442      8.571
REMARK INTER + INTRA:         -14.192
REMARK INTER:                 -13.134
REMARK INTRA:                  -1.058
REMARK UNBOUND:                -0.750
REMARK SMILES O=C1c2cccc([N+](=O)[O-])c2C(=O)N1CC[C@H]1CC[N@@H+](Cc2ccccc2)CC1
REMARK SMILES IDX 16 1 17 2 19 3 20 4 18 5 28 6 29 7 21 9 22 10 23 11 27 12
REMARK SMILES IDX 24 13 26 14 25 15 15 16 14 17 12 18 2 19 11 20 3 21 7 22
REMARK SMILES IDX 4 23 6 24 5 25 13 26 1 27 8 28 9 29 10 30
REMARK H PARENT 20 8
ROOT
ATOM      1  C   UNL     1      -8.910 -44.559  29.967  1.00  0.00     0.026 C 
ENDROOT
BRANCH   1   2
ATOM      2  C   UNL     1      -9.574 -44.749  28.581  1.00  0.00     0.002 C 
ATOM      3  C   UNL     1     -11.798 -43.439  28.359  1.00  0.00     0.262 C 
ATOM      4  N   UNL     1     -12.452 -44.733  27.941  1.00  0.00    -0.331 N 
ATOM      5  C   UNL     1     -10.307 -43.506  28.054  1.00  0.00     0.065 C 
ATOM      6  C   UNL     1     -11.893 -45.905  28.693  1.00  0.00     0.262 C 
ATOM      7  C   UNL     1     -10.398 -46.035  28.429  1.00  0.00     0.065 C 
ATOM      8  H   UNL     1     -12.254 -44.863  26.940  1.00  0.00     0.348 HD
BRANCH   4   9
ATOM      9  C   UNL     1     -13.964 -44.668  28.056  1.00  0.00     0.299 C 
BRANCH   9  10
ATOM     10  C   UNL     1     -14.622 -44.078  26.838  1.00  0.00     0.006 A 
ATOM     11  C   UNL     1     -14.214 -44.462  25.552  1.00  0.00     0.009 A 
ATOM     12  C   UNL     1     -15.667 -43.151  26.973  1.00  0.00     0.009 A 
ATOM     13  C   UNL     1     -14.845 -43.933  24.424  1.00  0.00     0.001 A 
ATOM     14  C   UNL     1     -16.294 -42.625  25.842  1.00  0.00     0.001 A 
ATOM     15  C   UNL     1     -15.884 -43.018  24.570  1.00  0.00     0.000 A 
ENDBRANCH   9  10
ENDBRANCH   4   9
ENDBRANCH   1   2
BRANCH   1  16
ATOM     16  C   UNL     1      -9.502 -45.302  31.166  1.00  0.00     0.129 C 
BRANCH  16  17
ATOM     17  N   UNL     1     -10.244 -44.416  32.042  1.00  0.00    -0.274 N 
ATOM     18  C   UNL     1     -11.606 -44.304  32.036  1.00  0.00     0.268 C 
ATOM     19  C   UNL     1      -9.665 -43.482  32.858  1.00  0.00     0.261 C 
ATOM     20  C   UNL     1     -11.949 -43.275  33.010  1.00  0.00     0.130 A 
ATOM     21  C   UNL     1     -10.763 -42.755  33.498  1.00  0.00     0.060 A 
ATOM     22  C   UNL     1     -13.155 -42.773  33.442  1.00  0.00     0.282 A 
ATOM     23  C   UNL     1     -10.733 -41.718  34.414  1.00  0.00     0.015 A 
ATOM     24  C   UNL     1     -13.175 -41.719  34.365  1.00  0.00     0.086 A 
ATOM     25  C   UNL     1     -11.960 -41.197  34.847  1.00  0.00     0.008 A 
ATOM     26  O   UNL     1     -12.397 -44.893  31.326  1.00  0.00    -0.268 OA
ATOM     27  O   UNL     1      -8.486 -43.250  33.031  1.00  0.00    -0.269 OA
BRANCH  22  28
ATOM     28  N   UNL     1     -14.388 -43.342  32.967  1.00  0.00     0.063 N 
ATOM     29  O   UNL     1     -14.858 -44.279  33.622  1.00  0.00    -0.258 OA
ATOM     30  O   UNL     1     -14.883 -42.834  31.954  1.00  0.00    -0.258 OA
ENDBRANCH  22  28
ENDBRANCH  16  17
ENDBRANCH   1  16
TORSDOF 6
ENDMDL
MODEL 7
REMARK VINA RESULT:    -9.943      3.086      9.318
REMARK INTER + INTRA:         -14.181
REMARK INTER:                 -13.450
REMARK INTRA:                  -0.730
REMARK UNBOUND:                -0.750
REMARK SMILES O=C1c2cccc([N+](=O)[O-])c2C(=O)N1CC[C@H]1CC[N@@H+](Cc2ccccc2)CC1
REMARK SMILES IDX 16 1 17 2 19 3 20 4 18 5 28 6 29 7 21 9 22 10 23 11 27 12
REMARK SMILES IDX 24 13 26 14 25 15 15 16 14 17 12 18 2 19 11 20 3 21 7 22
REMARK SMILES IDX 4 23 6 24 5 25 13 26 1 27 8 28 9 29 10 30
REMARK H PARENT 20 8
ROOT
ATOM      1  C   UNL     1     -11.284 -43.873  28.312  1.00  0.00     0.026 C 
ENDROOT
BRANCH   1   2
ATOM      2  C   UNL     1     -12.347 -44.327  27.282  1.00  0.00     0.002 C 
ATOM      3  C   UNL     1     -14.031 -42.447  26.701  1.00  0.00     0.262 C 
ATOM      4  N   UNL     1     -15.140 -43.411  27.047  1.00  0.00    -0.331 N 
ATOM      5  C   UNL     1     -12.788 -43.230  26.302  1.00  0.00     0.065 C 
ATOM      6  C   UNL     1     -14.769 -44.287  28.207  1.00  0.00     0.262 C 
ATOM      7  C   UNL     1     -13.530 -45.107  27.874  1.00  0.00     0.065 C 
ATOM      8  H   UNL     1     -15.290 -44.007  26.222  1.00  0.00     0.348 HD
BRANCH   4   9
ATOM      9  C   UNL     1     -16.459 -42.699  27.285  1.00  0.00     0.299 C 
BRANCH   9  10
ATOM     10  C   UNL     1     -17.277 -42.541  26.033  1.00  0.00     0.006 A 
ATOM     11  C   UNL     1     -16.704 -42.774  24.774  1.00  0.00     0.009 A 
ATOM     12  C   UNL     1     -18.631 -42.179  26.108  1.00  0.00     0.009 A 
ATOM     13  C   UNL     1     -17.473 -42.654  23.615  1.00  0.00     0.001 A 
ATOM     14  C   UNL     1     -19.395 -42.059  24.947  1.00  0.00     0.001 A 
ATOM     15  C   UNL     1     -18.817 -42.298  23.702  1.00  0.00     0.000 A 
ENDBRANCH   9  10
ENDBRANCH   4   9
ENDBRANCH   1   2
BRANCH   1  16
ATOM     16  C   UNL     1     -10.904 -44.837  29.439  1.00  0.00     0.129 C 
BRANCH  16  17
ATOM     17  N   UNL     1     -10.865 -44.176  30.729  1.00  0.00    -0.274 N 
ATOM     18  C   UNL     1     -11.967 -43.674  31.362  1.00  0.00     0.268 C 
ATOM     19  C   UNL     1      -9.711 -43.839  31.383  1.00  0.00     0.261 C 
ATOM     20  C   UNL     1     -11.498 -43.042  32.589  1.00  0.00     0.130 A 
ATOM     21  C   UNL     1     -10.116 -43.122  32.594  1.00  0.00     0.060 A 
ATOM     22  C   UNL     1     -12.160 -42.412  33.618  1.00  0.00     0.282 A 
ATOM     23  C   UNL     1      -9.349 -42.572  33.605  1.00  0.00     0.015 A 
ATOM     24  C   UNL     1     -11.425 -41.834  34.662  1.00  0.00     0.086 A 
ATOM     25  C   UNL     1     -10.020 -41.918  34.648  1.00  0.00     0.008 A 
ATOM     26  O   UNL     1     -13.118 -43.686  30.971  1.00  0.00    -0.268 OA
ATOM     27  O   UNL     1      -8.561 -44.049  31.055  1.00  0.00    -0.269 OA
BRANCH  22  28
ATOM     28  N   UNL     1     -13.597 -42.366  33.634  1.00  0.00     0.063 N 
ATOM     29  O   UNL     1     -14.183 -43.381  34.028  1.00  0.00    -0.258 OA
ATOM     30  O   UNL     1     -14.126 -41.309  33.270  1.00  0.00    -0.258 OA
ENDBRANCH  22  28
ENDBRANCH  16  17
ENDBRANCH   1  16
TORSDOF 6
ENDMDL
MODEL 8
REMARK VINA RESULT:    -9.914      2.184      3.350
REMARK INTER + INTRA:         -14.141
REMARK INTER:                 -13.971
REMARK INTRA:                  -0.170
REMARK UNBOUND:                -0.750
REMARK SMILES O=C1c2cccc([N+](=O)[O-])c2C(=O)N1CC[C@H]1CC[N@@H+](Cc2ccccc2)CC1
REMARK SMILES IDX 16 1 17 2 19 3 20 4 18 5 28 6 29 7 21 9 22 10 23 11 27 12
REMARK SMILES IDX 24 13 26 14 25 15 15 16 14 17 12 18 2 19 11 20 3 21 7 22
REMARK SMILES IDX 4 23 6 24 5 25 13 26 1 27 8 28 9 29 10 30
REMARK H PARENT 20 8
ROOT
ATOM      1  C   UNL     1     -12.275 -43.403  27.829  1.00  0.00     0.026 C 
ENDROOT
BRANCH   1   2
ATOM      2  C   UNL     1     -10.794 -43.850  27.797  1.00  0.00     0.002 C 
ATOM      3  C   UNL     1     -10.149 -45.296  29.847  1.00  0.00     0.262 C 
ATOM      4  N   UNL     1      -9.005 -44.341  30.089  1.00  0.00    -0.331 N 
ATOM      5  C   UNL     1     -10.541 -45.249  28.377  1.00  0.00     0.065 C 
ATOM      6  C   UNL     1      -9.389 -42.926  29.772  1.00  0.00     0.262 C 
ATOM      7  C   UNL     1      -9.791 -42.805  28.308  1.00  0.00     0.065 C 
ATOM      8  H   UNL     1      -8.240 -44.621  29.462  1.00  0.00     0.348 HD
BRANCH   4   9
ATOM      9  C   UNL     1      -8.450 -44.466  31.497  1.00  0.00     0.299 C 
BRANCH   9  10
ATOM     10  C   UNL     1      -9.149 -43.573  32.485  1.00  0.00     0.006 A 
ATOM     11  C   UNL     1     -10.545 -43.443  32.464  1.00  0.00     0.009 A 
ATOM     12  C   UNL     1      -8.414 -42.875  33.456  1.00  0.00     0.009 A 
ATOM     13  C   UNL     1     -11.193 -42.635  33.401  1.00  0.00     0.001 A 
ATOM     14  C   UNL     1      -9.066 -42.068  34.389  1.00  0.00     0.001 A 
ATOM     15  C   UNL     1     -10.454 -41.950  34.363  1.00  0.00     0.000 A 
ENDBRANCH   9  10
ENDBRANCH   4   9
ENDBRANCH   1   2
BRANCH   1  16
ATOM     16  C   UNL     1     -13.361 -44.470  27.673  1.00  0.00     0.129 C 
BRANCH  16  17
ATOM     17  N   UNL     1     -14.621 -43.903  27.232  1.00  0.00    -0.274 N 
ATOM     18  C   UNL     1     -14.892 -43.565  25.936  1.00  0.00     0.268 C 
ATOM     19  C   UNL     1     -15.617 -43.496  28.078  1.00  0.00     0.261 C 
ATOM     20  C   UNL     1     -16.226 -42.977  25.923  1.00  0.00     0.130 A 
ATOM     21  C   UNL     1     -16.663 -42.914  27.235  1.00  0.00     0.060 A 
ATOM     22  C   UNL     1     -17.016 -42.494  24.905  1.00  0.00     0.282 A 
ATOM     23  C   UNL     1     -17.884 -42.362  27.580  1.00  0.00     0.015 A 
ATOM     24  C   UNL     1     -18.258 -41.920  25.206  1.00  0.00     0.086 A 
ATOM     25  C   UNL     1     -18.686 -41.858  26.546  1.00  0.00     0.008 A 
ATOM     26  O   UNL     1     -14.158 -43.667  24.972  1.00  0.00    -0.268 OA
ATOM     27  O   UNL     1     -15.660 -43.562  29.290  1.00  0.00    -0.269 OA
BRANCH  22  28
ATOM     28  N   UNL     1     -16.580 -42.599  23.539  1.00  0.00     0.063 N 
ATOM     29  O   UNL     1     -16.135 -41.570  23.016  1.00  0.00    -0.258 OA
ATOM     30  O   UNL     1     -16.668 -43.712  23.008  1.00  0.00    -0.258 OA
ENDBRANCH  22  28
ENDBRANCH  16  17
ENDBRANCH   1  16
TORSDOF 6
ENDMDL
MODEL 9
REMARK VINA RESULT:    -9.826      2.820      4.507
REMARK INTER + INTRA:         -14.023
REMARK INTER:                 -13.328
REMARK INTRA:                  -0.695
REMARK UNBOUND:                -0.750
REMARK SMILES O=C1c2cccc([N+](=O)[O-])c2C(=O)N1CC[C@H]1CC[N@@H+](Cc2ccccc2)CC1
REMARK SMILES IDX 16 1 17 2 19 3 20 4 18 5 28 6 29 7 21 9 22 10 23 11 27 12
REMARK SMILES IDX 24 13 26 14 25 15 15 16 14 17 12 18 2 19 11 20 3 21 7 22
REMARK SMILES IDX 4 23 6 24 5 25 13 26 1 27 8 28 9 29 10 30
REMARK H PARENT 20 8
ROOT
ATOM      1  C   UNL     1     -17.072 -42.750  24.843  1.00  0.00     0.026 C 
ENDROOT
BRANCH   1   2
ATOM      2  C   UNL     1     -15.597 -42.543  25.264  1.00  0.00     0.002 C 
ATOM      3  C   UNL     1     -14.205 -44.722  25.104  1.00  0.00     0.262 C 
ATOM      4  N   UNL     1     -13.791 -44.495  26.538  1.00  0.00    -0.331 N 
ATOM      5  C   UNL     1     -14.588 -43.390  24.474  1.00  0.00     0.065 C 
ATOM      6  C   UNL     1     -14.912 -43.919  27.353  1.00  0.00     0.262 C 
ATOM      7  C   UNL     1     -15.345 -42.577  26.778  1.00  0.00     0.065 C 
ATOM      8  H   UNL     1     -13.015 -43.820  26.526  1.00  0.00     0.348 HD
BRANCH   4   9
ATOM      9  C   UNL     1     -13.231 -45.755  27.173  1.00  0.00     0.299 C 
BRANCH   9  10
ATOM     10  C   UNL     1     -11.986 -45.504  27.979  1.00  0.00     0.006 A 
ATOM     11  C   UNL     1     -11.161 -46.570  28.367  1.00  0.00     0.009 A 
ATOM     12  C   UNL     1     -11.622 -44.196  28.336  1.00  0.00     0.009 A 
ATOM     13  C   UNL     1      -9.991 -46.330  29.091  1.00  0.00     0.001 A 
ATOM     14  C   UNL     1     -10.452 -43.962  29.060  1.00  0.00     0.001 A 
ATOM     15  C   UNL     1      -9.638 -45.028  29.435  1.00  0.00     0.000 A 
ENDBRANCH   9  10
ENDBRANCH   4   9
ENDBRANCH   1   2
BRANCH   1  16
ATOM     16  C   UNL     1     -17.400 -42.823  23.350  1.00  0.00     0.129 C 
BRANCH  16  17
ATOM     17  N   UNL     1     -18.409 -41.853  22.967  1.00  0.00    -0.274 N 
ATOM     18  C   UNL     1     -19.726 -41.946  23.318  1.00  0.00     0.268 C 
ATOM     19  C   UNL     1     -18.192 -40.829  22.086  1.00  0.00     0.261 C 
ATOM     20  C   UNL     1     -20.410 -40.822  22.690  1.00  0.00     0.130 A 
ATOM     21  C   UNL     1     -19.478 -40.150  21.918  1.00  0.00     0.060 A 
ATOM     22  C   UNL     1     -21.719 -40.398  22.722  1.00  0.00     0.282 A 
ATOM     23  C   UNL     1     -19.814 -39.051  21.147  1.00  0.00     0.015 A 
ATOM     24  C   UNL     1     -22.107 -39.293  21.954  1.00  0.00     0.086 A 
ATOM     25  C   UNL     1     -21.149 -38.624  21.168  1.00  0.00     0.008 A 
ATOM     26  O   UNL     1     -20.261 -42.818  23.975  1.00  0.00    -0.268 OA
ATOM     27  O   UNL     1     -17.166 -40.521  21.514  1.00  0.00    -0.269 OA
BRANCH  22  28
ATOM     28  N   UNL     1     -22.677 -41.071  23.558  1.00  0.00     0.063 N 
ATOM     29  O   UNL     1     -22.759 -40.688  24.731  1.00  0.00    -0.258 OA
ATOM     30  O   UNL     1     -23.350 -41.962  23.028  1.00  0.00    -0.258 OA
ENDBRANCH  22  28
ENDBRANCH  16  17
ENDBRANCH   1  16
TORSDOF 6
ENDMDL
