MODEL 1
REMARK VINA RESULT:    -9.649      0.000      0.000
REMARK INTER + INTRA:         -14.690
REMARK INTER:                 -13.315
REMARK INTRA:                  -1.374
REMARK UNBOUND:                -1.374
REMARK SMILES COc1ccc([C@@H]2C=C(c3cc(F)ccc3F)NN2c2ccc(S(N)(=O)=O)cc2)cc1OC
REMARK SMILES IDX 20 1 21 2 22 3 23 4 28 5 29 6 19 7 18 8 9 9 8 10 7 11 10 13
REMARK SMILES IDX 11 14 16 15 12 16 15 17 14 18 17 19 13 20 6 21 5 22 30 23
REMARK SMILES IDX 4 24 31 25 3 26 32 27 33 28 2 29 1 30 24 31 26 32 27 33
REMARK SMILES IDX 25 34
REMARK H PARENT 18 12 25 35 25 36
ROOT
ATOM      1  C   UNL     1     -18.621 -42.045  25.915  1.00  0.00     0.058 A 
ATOM      2  C   UNL     1     -18.104 -42.185  27.217  1.00  0.00     0.029 A 
ATOM      3  C   UNL     1     -16.813 -42.671  27.452  1.00  0.00     0.024 A 
ATOM      4  C   UNL     1     -16.010 -43.027  26.370  1.00  0.00     0.082 A 
ATOM      5  C   UNL     1     -16.478 -42.877  25.066  1.00  0.00     0.024 A 
ATOM      6  C   UNL     1     -17.772 -42.389  24.849  1.00  0.00     0.029 A 
ENDROOT
BRANCH   1   7
ATOM      7  N   UNL     1     -19.915 -41.533  25.714  1.00  0.00    -0.276 N 
ATOM      8  N   UNL     1     -20.707 -41.069  26.762  1.00  0.00    -0.297 N 
ATOM      9  C   UNL     1     -22.053 -41.188  26.444  1.00  0.00     0.063 C 
ATOM     10  C   UNL     1     -22.185 -41.820  25.268  1.00  0.00     0.033 C 
ATOM     11  C   UNL     1     -20.821 -42.130  24.680  1.00  0.00     0.161 C 
ATOM     12  H   UNL     1     -20.467 -40.139  27.109  1.00  0.00     0.188 HD
BRANCH   9  13
ATOM     13  C   UNL     1     -23.106 -40.668  27.324  1.00  0.00     0.038 A 
ATOM     14  C   UNL     1     -23.240 -39.283  27.508  1.00  0.00     0.052 A 
ATOM     15  C   UNL     1     -24.011 -41.509  27.990  1.00  0.00     0.132 A 
ATOM     16  C   UNL     1     -24.242 -38.777  28.334  1.00  0.00     0.124 A 
ATOM     17  C   UNL     1     -25.015 -40.997  28.815  1.00  0.00     0.043 A 
ATOM     18  C   UNL     1     -25.131 -39.620  28.988  1.00  0.00     0.042 A 
ATOM     19  F   UNL     1     -23.946 -42.841  27.843  1.00  0.00    -0.206 F 
ATOM     20  F   UNL     1     -24.350 -37.452  28.498  1.00  0.00    -0.207 F 
ENDBRANCH   9  13
BRANCH  11  21
ATOM     21  C   UNL     1     -20.657 -41.510  23.303  1.00  0.00    -0.016 A 
ATOM     22  C   UNL     1     -20.338 -40.149  23.192  1.00  0.00     0.010 A 
ATOM     23  C   UNL     1     -20.776 -42.267  22.124  1.00  0.00     0.056 A 
ATOM     24  C   UNL     1     -20.161 -39.554  21.939  1.00  0.00     0.051 A 
ATOM     25  C   UNL     1     -20.608 -41.679  20.863  1.00  0.00     0.161 A 
ATOM     26  C   UNL     1     -20.296 -40.310  20.771  1.00  0.00     0.160 A 
BRANCH  25  27
ATOM     27  O   UNL     1     -20.719 -42.355  19.673  1.00  0.00    -0.493 OA
ATOM     28  C   UNL     1     -21.200 -43.691  19.717  1.00  0.00     0.278 C 
ENDBRANCH  25  27
BRANCH  26  29
ATOM     29  O   UNL     1     -20.144 -39.809  19.501  1.00  0.00    -0.493 OA
ATOM     30  C   UNL     1     -21.037 -38.787  19.082  1.00  0.00     0.278 C 
ENDBRANCH  26  29
ENDBRANCH  11  21
ENDBRANCH   1   7
BRANCH   4  31
ATOM     31  S   UNL     1     -14.375 -43.641  26.667  1.00  0.00     0.238 S 
ATOM     32  O   UNL     1     -14.163 -44.806  25.840  1.00  0.00    -0.207 OA
ATOM     33  O   UNL     1     -13.464 -42.522  26.687  1.00  0.00    -0.207 OA
BRANCH  31  34
ATOM     34  N   UNL     1     -14.517 -44.227  28.240  1.00  0.00    -0.225 NA
ATOM     35  H   UNL     1     -14.252 -43.545  28.949  1.00  0.00     0.137 HD
ATOM     36  H   UNL     1     -15.469 -44.571  28.378  1.00  0.00     0.137 HD
ENDBRANCH  31  34
ENDBRANCH   4  31
TORSDOF 7
ENDMDL
MODEL 2
REMARK VINA RESULT:    -9.410      3.527      6.169
REMARK INTER + INTRA:         -14.360
REMARK INTER:                 -13.350
REMARK INTRA:                  -1.010
REMARK UNBOUND:                -1.374
REMARK SMILES COc1ccc([C@@H]2C=C(c3cc(F)ccc3F)NN2c2ccc(S(N)(=O)=O)cc2)cc1OC
REMARK SMILES IDX 20 1 21 2 22 3 23 4 28 5 29 6 19 7 18 8 9 9 8 10 7 11 10 13
REMARK SMILES IDX 11 14 16 15 12 16 15 17 14 18 17 19 13 20 6 21 5 22 30 23
REMARK SMILES IDX 4 24 31 25 3 26 32 27 33 28 2 29 1 30 24 31 26 32 27 33
REMARK SMILES IDX 25 34
REMARK H PARENT 18 12 25 35 25 36
ROOT
ATOM      1  C   UNL     1     -17.694 -42.538  25.203  1.00  0.00     0.058 A 
ATOM      2  C   UNL     1     -16.655 -43.093  24.432  1.00  0.00     0.029 A 
ATOM      3  C   UNL     1     -15.458 -43.529  25.011  1.00  0.00     0.024 A 
ATOM      4  C   UNL     1     -15.283 -43.413  26.388  1.00  0.00     0.082 A 
ATOM      5  C   UNL     1     -16.300 -42.893  27.186  1.00  0.00     0.024 A 
ATOM      6  C   UNL     1     -17.492 -42.462  26.592  1.00  0.00     0.029 A 
ENDROOT
BRANCH   1   7
ATOM      7  N   UNL     1     -18.894 -42.130  24.591  1.00  0.00    -0.276 N 
ATOM      8  N   UNL     1     -18.923 -41.491  23.355  1.00  0.00    -0.297 N 
ATOM      9  C   UNL     1     -20.051 -40.689  23.247  1.00  0.00     0.063 C 
ATOM     10  C   UNL     1     -20.714 -40.685  24.414  1.00  0.00     0.033 C 
ATOM     11  C   UNL     1     -20.028 -41.597  25.414  1.00  0.00     0.161 C 
ATOM     12  H   UNL     1     -18.799 -42.103  22.546  1.00  0.00     0.188 HD
BRANCH   9  13
ATOM     13  C   UNL     1     -20.390 -39.990  22.003  1.00  0.00     0.038 A 
ATOM     14  C   UNL     1     -21.647 -39.379  21.866  1.00  0.00     0.052 A 
ATOM     15  C   UNL     1     -19.493 -39.891  20.928  1.00  0.00     0.132 A 
ATOM     16  C   UNL     1     -21.977 -38.704  20.693  1.00  0.00     0.124 A 
ATOM     17  C   UNL     1     -19.828 -39.212  19.755  1.00  0.00     0.043 A 
ATOM     18  C   UNL     1     -21.079 -38.614  19.636  1.00  0.00     0.042 A 
ATOM     19  F   UNL     1     -18.271 -40.440  21.001  1.00  0.00    -0.206 F 
ATOM     20  F   UNL     1     -23.182 -38.131  20.582  1.00  0.00    -0.207 F 
ENDBRANCH   9  13
BRANCH  11  21
ATOM     21  C   UNL     1     -20.970 -42.677  25.917  1.00  0.00    -0.016 A 
ATOM     22  C   UNL     1     -20.856 -43.981  25.413  1.00  0.00     0.010 A 
ATOM     23  C   UNL     1     -21.935 -42.425  26.908  1.00  0.00     0.056 A 
ATOM     24  C   UNL     1     -21.695 -45.001  25.870  1.00  0.00     0.051 A 
ATOM     25  C   UNL     1     -22.786 -43.438  27.368  1.00  0.00     0.161 A 
ATOM     26  C   UNL     1     -22.663 -44.739  26.844  1.00  0.00     0.160 A 
BRANCH  25  27
ATOM     27  O   UNL     1     -23.755 -43.261  28.324  1.00  0.00    -0.493 OA
ATOM     28  C   UNL     1     -24.542 -42.081  28.252  1.00  0.00     0.278 C 
ENDBRANCH  25  27
BRANCH  26  29
ATOM     29  O   UNL     1     -23.530 -45.678  27.349  1.00  0.00    -0.493 OA
ATOM     30  C   UNL     1     -24.510 -46.211  26.471  1.00  0.00     0.278 C 
ENDBRANCH  26  29
ENDBRANCH  11  21
ENDBRANCH   1   7
BRANCH   4  31
ATOM     31  S   UNL     1     -13.768 -43.965  27.121  1.00  0.00     0.238 S 
ATOM     32  O   UNL     1     -13.436 -45.261  26.574  1.00  0.00    -0.207 OA
ATOM     33  O   UNL     1     -12.837 -42.862  27.131  1.00  0.00    -0.207 OA
BRANCH  31  34
ATOM     34  N   UNL     1     -14.249 -44.258  28.708  1.00  0.00    -0.225 NA
ATOM     35  H   UNL     1     -14.650 -45.184  28.843  1.00  0.00     0.137 HD
ATOM     36  H   UNL     1     -13.454 -44.090  29.328  1.00  0.00     0.137 HD
ENDBRANCH  31  34
ENDBRANCH   4  31
TORSDOF 7
ENDMDL
MODEL 3
REMARK VINA RESULT:    -8.996      3.271      6.631
REMARK INTER + INTRA:         -13.789
REMARK INTER:                 -12.398
REMARK INTRA:                  -1.390
REMARK UNBOUND:                -1.374
REMARK SMILES COc1ccc([C@@H]2C=C(c3cc(F)ccc3F)NN2c2ccc(S(N)(=O)=O)cc2)cc1OC
REMARK SMILES IDX 20 1 21 2 22 3 23 4 28 5 29 6 19 7 18 8 9 9 8 10 7 11 10 13
REMARK SMILES IDX 11 14 16 15 12 16 15 17 14 18 17 19 13 20 6 21 5 22 30 23
REMARK SMILES IDX 4 24 31 25 3 26 32 27 33 28 2 29 1 30 24 31 26 32 27 33
REMARK SMILES IDX 25 34
REMARK H PARENT 18 12 25 35 25 36
ROOT
ATOM      1  C   UNL     1     -20.923 -41.625  23.692  1.00  0.00     0.058 A 
ATOM      2  C   UNL     1     -20.906 -42.339  22.478  1.00  0.00     0.029 A 
ATOM      3  C   UNL     1     -20.815 -41.691  21.241  1.00  0.00     0.024 A 
ATOM      4  C   UNL     1     -20.738 -40.301  21.202  1.00  0.00     0.082 A 
ATOM      5  C   UNL     1     -20.725 -39.563  22.384  1.00  0.00     0.024 A 
ATOM      6  C   UNL     1     -20.816 -40.226  23.614  1.00  0.00     0.029 A 
ENDROOT
BRANCH   1   7
ATOM      7  N   UNL     1     -20.993 -42.309  24.919  1.00  0.00    -0.276 N 
ATOM      8  N   UNL     1     -22.099 -43.071  25.287  1.00  0.00    -0.297 N 
ATOM      9  C   UNL     1     -22.209 -43.133  26.670  1.00  0.00     0.063 C 
ATOM     10  C   UNL     1     -21.280 -42.343  27.232  1.00  0.00     0.033 C 
ATOM     11  C   UNL     1     -20.410 -41.710  26.162  1.00  0.00     0.161 C 
ATOM     12  H   UNL     1     -22.158 -43.992  24.849  1.00  0.00     0.188 HD
BRANCH   9  13
ATOM     13  C   UNL     1     -23.219 -43.966  27.331  1.00  0.00     0.038 A 
ATOM     14  C   UNL     1     -24.583 -43.717  27.108  1.00  0.00     0.052 A 
ATOM     15  C   UNL     1     -22.878 -45.029  28.182  1.00  0.00     0.132 A 
ATOM     16  C   UNL     1     -25.552 -44.507  27.723  1.00  0.00     0.124 A 
ATOM     17  C   UNL     1     -23.853 -45.819  28.795  1.00  0.00     0.043 A 
ATOM     18  C   UNL     1     -25.200 -45.556  28.564  1.00  0.00     0.042 A 
ATOM     19  F   UNL     1     -21.592 -45.328  28.424  1.00  0.00    -0.206 F 
ATOM     20  F   UNL     1     -26.847 -44.251  27.499  1.00  0.00    -0.207 F 
ENDBRANCH   9  13
BRANCH  11  21
ATOM     21  C   UNL     1     -18.943 -42.051  26.367  1.00  0.00    -0.016 A 
ATOM     22  C   UNL     1     -18.429 -42.132  27.670  1.00  0.00     0.010 A 
ATOM     23  C   UNL     1     -18.083 -42.330  25.290  1.00  0.00     0.056 A 
ATOM     24  C   UNL     1     -17.089 -42.463  27.891  1.00  0.00     0.051 A 
ATOM     25  C   UNL     1     -16.737 -42.655  25.500  1.00  0.00     0.161 A 
ATOM     26  C   UNL     1     -16.237 -42.724  26.815  1.00  0.00     0.160 A 
BRANCH  25  27
ATOM     27  O   UNL     1     -15.841 -42.929  24.498  1.00  0.00    -0.493 OA
ATOM     28  C   UNL     1     -16.297 -42.813  23.157  1.00  0.00     0.278 C 
ENDBRANCH  25  27
BRANCH  26  29
ATOM     29  O   UNL     1     -14.908 -43.052  26.938  1.00  0.00    -0.493 OA
ATOM     30  C   UNL     1     -14.587 -44.266  27.602  1.00  0.00     0.278 C 
ENDBRANCH  26  29
ENDBRANCH  11  21
ENDBRANCH   1   7
BRANCH   4  31
ATOM     31  S   UNL     1     -20.622 -39.481  19.637  1.00  0.00     0.238 S 
ATOM     32  O   UNL     1     -19.232 -39.430  19.243  1.00  0.00    -0.207 OA
ATOM     33  O   UNL     1     -21.658 -39.995  18.774  1.00  0.00    -0.207 OA
BRANCH  31  34
ATOM     34  N   UNL     1     -21.028 -37.900  20.054  1.00  0.00    -0.225 NA
ATOM     35  H   UNL     1     -21.036 -37.264  19.259  1.00  0.00     0.137 HD
ATOM     36  H   UNL     1     -21.923 -37.910  20.546  1.00  0.00     0.137 HD
ENDBRANCH  31  34
ENDBRANCH   4  31
TORSDOF 7
ENDMDL
MODEL 4
REMARK VINA RESULT:    -8.958      4.409      8.494
REMARK INTER + INTRA:         -13.736
REMARK INTER:                 -12.379
REMARK INTRA:                  -1.358
REMARK UNBOUND:                -1.374
REMARK SMILES COc1ccc([C@@H]2C=C(c3cc(F)ccc3F)NN2c2ccc(S(N)(=O)=O)cc2)cc1OC
REMARK SMILES IDX 20 1 21 2 22 3 23 4 28 5 29 6 19 7 18 8 9 9 8 10 7 11 10 13
REMARK SMILES IDX 11 14 16 15 12 16 15 17 14 18 17 19 13 20 6 21 5 22 30 23
REMARK SMILES IDX 4 24 31 25 3 26 32 27 33 28 2 29 1 30 24 31 26 32 27 33
REMARK SMILES IDX 25 34
REMARK H PARENT 18 12 25 35 25 36
ROOT
ATOM      1  C   UNL     1     -20.854 -40.355  22.773  1.00  0.00     0.058 A 
ATOM      2  C   UNL     1     -22.103 -40.739  22.248  1.00  0.00     0.029 A 
ATOM      3  C   UNL     1     -22.691 -40.066  21.172  1.00  0.00     0.024 A 
ATOM      4  C   UNL     1     -22.027 -38.985  20.597  1.00  0.00     0.082 A 
ATOM      5  C   UNL     1     -20.777 -38.593  21.072  1.00  0.00     0.024 A 
ATOM      6  C   UNL     1     -20.202 -39.277  22.150  1.00  0.00     0.029 A 
ENDROOT
BRANCH   1   7
ATOM      7  N   UNL     1     -20.282 -41.067  23.843  1.00  0.00    -0.276 N 
ATOM      8  N   UNL     1     -18.910 -41.278  23.952  1.00  0.00    -0.297 N 
ATOM      9  C   UNL     1     -18.651 -42.434  24.677  1.00  0.00     0.063 C 
ATOM     10  C   UNL     1     -19.806 -43.059  24.956  1.00  0.00     0.033 C 
ATOM     11  C   UNL     1     -20.981 -42.255  24.430  1.00  0.00     0.161 C 
ATOM     12  H   UNL     1     -18.372 -40.478  24.287  1.00  0.00     0.188 HD
BRANCH   9  13
ATOM     13  C   UNL     1     -17.287 -42.833  25.039  1.00  0.00     0.038 A 
ATOM     14  C   UNL     1     -16.440 -43.386  24.066  1.00  0.00     0.052 A 
ATOM     15  C   UNL     1     -16.776 -42.670  26.337  1.00  0.00     0.132 A 
ATOM     16  C   UNL     1     -15.139 -43.760  24.396  1.00  0.00     0.124 A 
ATOM     17  C   UNL     1     -15.471 -43.045  26.662  1.00  0.00     0.043 A 
ATOM     18  C   UNL     1     -14.646 -43.594  25.684  1.00  0.00     0.042 A 
ATOM     19  F   UNL     1     -17.529 -42.133  27.308  1.00  0.00    -0.206 F 
ATOM     20  F   UNL     1     -14.349 -44.290  23.453  1.00  0.00    -0.207 F 
ENDBRANCH   9  13
BRANCH  11  21
ATOM     21  C   UNL     1     -21.951 -41.898  25.543  1.00  0.00    -0.016 A 
ATOM     22  C   UNL     1     -22.549 -42.922  26.292  1.00  0.00     0.010 A 
ATOM     23  C   UNL     1     -22.244 -40.564  25.879  1.00  0.00     0.056 A 
ATOM     24  C   UNL     1     -23.431 -42.624  27.335  1.00  0.00     0.051 A 
ATOM     25  C   UNL     1     -23.131 -40.255  26.918  1.00  0.00     0.161 A 
ATOM     26  C   UNL     1     -23.729 -41.296  27.654  1.00  0.00     0.160 A 
BRANCH  25  27
ATOM     27  O   UNL     1     -23.470 -38.979  27.293  1.00  0.00    -0.493 OA
ATOM     28  C   UNL     1     -24.274 -38.221  26.400  1.00  0.00     0.278 C 
ENDBRANCH  25  27
BRANCH  26  29
ATOM     29  O   UNL     1     -24.584 -40.912  28.658  1.00  0.00    -0.493 OA
ATOM     30  C   UNL     1     -25.949 -41.288  28.543  1.00  0.00     0.278 C 
ENDBRANCH  26  29
ENDBRANCH  11  21
ENDBRANCH   1   7
BRANCH   4  31
ATOM     31  S   UNL     1     -22.770 -38.134  19.233  1.00  0.00     0.238 S 
ATOM     32  O   UNL     1     -22.160 -38.600  18.010  1.00  0.00    -0.207 OA
ATOM     33  O   UNL     1     -24.200 -38.113  19.433  1.00  0.00    -0.207 OA
BRANCH  31  34
ATOM     34  N   UNL     1     -22.189 -36.569  19.457  1.00  0.00    -0.225 NA
ATOM     35  H   UNL     1     -21.947 -36.102  18.585  1.00  0.00     0.137 HD
ATOM     36  H   UNL     1     -22.875 -36.039  19.998  1.00  0.00     0.137 HD
ENDBRANCH  31  34
ENDBRANCH   4  31
TORSDOF 7
ENDMDL
MODEL 5
REMARK VINA RESULT:    -8.877      5.828      7.923
REMARK INTER + INTRA:         -13.624
REMARK INTER:                 -12.062
REMARK INTRA:                  -1.562
REMARK UNBOUND:                -1.374
REMARK SMILES COc1ccc([C@@H]2C=C(c3cc(F)ccc3F)NN2c2ccc(S(N)(=O)=O)cc2)cc1OC
REMARK SMILES IDX 20 1 21 2 22 3 23 4 28 5 29 6 19 7 18 8 9 9 8 10 7 11 10 13
REMARK SMILES IDX 11 14 16 15 12 16 15 17 14 18 17 19 13 20 6 21 5 22 30 23
REMARK SMILES IDX 4 24 31 25 3 26 32 27 33 28 2 29 1 30 24 31 26 32 27 33
REMARK SMILES IDX 25 34
REMARK H PARENT 18 12 25 35 25 36
ROOT
ATOM      1  C   UNL     1     -21.412 -43.549  21.055  1.00  0.00     0.058 A 
ATOM      2  C   UNL     1     -22.276 -44.233  21.932  1.00  0.00     0.029 A 
ATOM      3  C   UNL     1     -23.183 -45.196  21.475  1.00  0.00     0.024 A 
ATOM      4  C   UNL     1     -23.236 -45.492  20.115  1.00  0.00     0.082 A 
ATOM      5  C   UNL     1     -22.378 -44.855  19.221  1.00  0.00     0.024 A 
ATOM      6  C   UNL     1     -21.476 -43.895  19.694  1.00  0.00     0.029 A 
ENDROOT
BRANCH   1   7
ATOM      7  N   UNL     1     -20.498 -42.602  21.551  1.00  0.00    -0.276 N 
ATOM      8  N   UNL     1     -19.260 -42.962  22.078  1.00  0.00    -0.297 N 
ATOM      9  C   UNL     1     -18.829 -42.017  22.999  1.00  0.00     0.063 C 
ATOM     10  C   UNL     1     -19.791 -41.099  23.186  1.00  0.00     0.033 C 
ATOM     11  C   UNL     1     -20.979 -41.390  22.289  1.00  0.00     0.161 C 
ATOM     12  H   UNL     1     -18.544 -43.191  21.387  1.00  0.00     0.188 HD
BRANCH   9  13
ATOM     13  C   UNL     1     -17.503 -42.089  23.622  1.00  0.00     0.038 A 
ATOM     14  C   UNL     1     -17.361 -42.666  24.894  1.00  0.00     0.052 A 
ATOM     15  C   UNL     1     -16.347 -41.612  22.986  1.00  0.00     0.132 A 
ATOM     16  C   UNL     1     -16.106 -42.750  25.492  1.00  0.00     0.124 A 
ATOM     17  C   UNL     1     -15.090 -41.700  23.589  1.00  0.00     0.043 A 
ATOM     18  C   UNL     1     -14.969 -42.272  24.852  1.00  0.00     0.042 A 
ATOM     19  F   UNL     1     -16.413 -41.064  21.763  1.00  0.00    -0.206 F 
ATOM     20  F   UNL     1     -15.993 -43.300  26.708  1.00  0.00    -0.207 F 
ENDBRANCH   9  13
BRANCH  11  21
ATOM     21  C   UNL     1     -21.289 -40.212  21.380  1.00  0.00    -0.016 A 
ATOM     22  C   UNL     1     -20.388 -39.873  20.360  1.00  0.00     0.010 A 
ATOM     23  C   UNL     1     -22.475 -39.468  21.500  1.00  0.00     0.056 A 
ATOM     24  C   UNL     1     -20.653 -38.807  19.495  1.00  0.00     0.051 A 
ATOM     25  C   UNL     1     -22.748 -38.393  20.643  1.00  0.00     0.161 A 
ATOM     26  C   UNL     1     -21.828 -38.061  19.630  1.00  0.00     0.160 A 
BRANCH  25  27
ATOM     27  O   UNL     1     -23.879 -37.619  20.709  1.00  0.00    -0.493 OA
ATOM     28  C   UNL     1     -25.113 -38.225  20.351  1.00  0.00     0.278 C 
ENDBRANCH  25  27
BRANCH  26  29
ATOM     29  O   UNL     1     -22.169 -36.998  18.829  1.00  0.00    -0.493 OA
ATOM     30  C   UNL     1     -22.667 -37.283  17.531  1.00  0.00     0.278 C 
ENDBRANCH  26  29
ENDBRANCH  11  21
ENDBRANCH   1   7
BRANCH   4  31
ATOM     31  S   UNL     1     -24.383 -46.712  19.536  1.00  0.00     0.238 S 
ATOM     32  O   UNL     1     -23.703 -47.984  19.455  1.00  0.00    -0.207 OA
ATOM     33  O   UNL     1     -25.630 -46.538  20.243  1.00  0.00    -0.207 OA
BRANCH  31  34
ATOM     34  N   UNL     1     -24.615 -46.225  17.940  1.00  0.00    -0.225 NA
ATOM     35  H   UNL     1     -24.479 -46.977  17.267  1.00  0.00     0.137 HD
ATOM     36  H   UNL     1     -25.540 -45.800  17.858  1.00  0.00     0.137 HD
ENDBRANCH  31  34
ENDBRANCH   4  31
TORSDOF 7
ENDMDL
MODEL 6
REMARK VINA RESULT:    -8.823      4.735      8.463
REMARK INTER + INTRA:         -13.550
REMARK INTER:                 -12.143
REMARK INTRA:                  -1.406
REMARK UNBOUND:                -1.374
REMARK SMILES COc1ccc([C@@H]2C=C(c3cc(F)ccc3F)NN2c2ccc(S(N)(=O)=O)cc2)cc1OC
REMARK SMILES IDX 20 1 21 2 22 3 23 4 28 5 29 6 19 7 18 8 9 9 8 10 7 11 10 13
REMARK SMILES IDX 11 14 16 15 12 16 15 17 14 18 17 19 13 20 6 21 5 22 30 23
REMARK SMILES IDX 4 24 31 25 3 26 32 27 33 28 2 29 1 30 24 31 26 32 27 33
REMARK SMILES IDX 25 34
REMARK H PARENT 18 12 25 35 25 36
ROOT
ATOM      1  C   UNL     1     -20.820 -40.445  22.688  1.00  0.00     0.058 A 
ATOM      2  C   UNL     1     -20.167 -39.382  22.036  1.00  0.00     0.029 A 
ATOM      3  C   UNL     1     -20.781 -38.657  21.008  1.00  0.00     0.024 A 
ATOM      4  C   UNL     1     -22.074 -38.991  20.614  1.00  0.00     0.082 A 
ATOM      5  C   UNL     1     -22.762 -40.020  21.254  1.00  0.00     0.024 A 
ATOM      6  C   UNL     1     -22.134 -40.735  22.282  1.00  0.00     0.029 A 
ENDROOT
BRANCH   1   7
ATOM      7  N   UNL     1     -20.182 -41.139  23.732  1.00  0.00    -0.276 N 
ATOM      8  N   UNL     1     -18.801 -41.301  23.787  1.00  0.00    -0.297 N 
ATOM      9  C   UNL     1     -18.473 -42.448  24.497  1.00  0.00     0.063 C 
ATOM     10  C   UNL     1     -19.593 -43.115  24.818  1.00  0.00     0.033 C 
ATOM     11  C   UNL     1     -20.815 -42.354  24.340  1.00  0.00     0.161 C 
ATOM     12  H   UNL     1     -18.279 -40.482  24.105  1.00  0.00     0.188 HD
BRANCH   9  13
ATOM     13  C   UNL     1     -17.082 -42.798  24.806  1.00  0.00     0.038 A 
ATOM     14  C   UNL     1     -16.647 -42.815  26.141  1.00  0.00     0.052 A 
ATOM     15  C   UNL     1     -16.153 -43.137  23.810  1.00  0.00     0.132 A 
ATOM     16  C   UNL     1     -15.331 -43.156  26.448  1.00  0.00     0.124 A 
ATOM     17  C   UNL     1     -14.836 -43.480  24.123  1.00  0.00     0.043 A 
ATOM     18  C   UNL     1     -14.422 -43.489  25.451  1.00  0.00     0.042 A 
ATOM     19  F   UNL     1     -16.510 -43.155  22.517  1.00  0.00    -0.206 F 
ATOM     20  F   UNL     1     -14.936 -43.163  27.727  1.00  0.00    -0.207 F 
ENDBRANCH   9  13
BRANCH  11  21
ATOM     21  C   UNL     1     -21.754 -42.034  25.491  1.00  0.00    -0.016 A 
ATOM     22  C   UNL     1     -21.562 -40.859  26.232  1.00  0.00     0.010 A 
ATOM     23  C   UNL     1     -22.843 -42.862  25.819  1.00  0.00     0.056 A 
ATOM     24  C   UNL     1     -22.420 -40.528  27.285  1.00  0.00     0.051 A 
ATOM     25  C   UNL     1     -23.705 -42.543  26.876  1.00  0.00     0.161 A 
ATOM     26  C   UNL     1     -23.492 -41.363  27.615  1.00  0.00     0.160 A 
BRANCH  25  27
ATOM     27  O   UNL     1     -24.779 -43.308  27.257  1.00  0.00    -0.493 OA
ATOM     28  C   UNL     1     -24.513 -44.601  27.781  1.00  0.00     0.278 C 
ENDBRANCH  25  27
BRANCH  26  29
ATOM     29  O   UNL     1     -24.382 -41.119  28.632  1.00  0.00    -0.493 OA
ATOM     30  C   UNL     1     -24.791 -39.775  28.843  1.00  0.00     0.278 C 
ENDBRANCH  26  29
ENDBRANCH  11  21
ENDBRANCH   1   7
BRANCH   4  31
ATOM     31  S   UNL     1     -22.851 -38.073  19.313  1.00  0.00     0.238 S 
ATOM     32  O   UNL     1     -22.449 -38.638  18.046  1.00  0.00    -0.207 OA
ATOM     33  O   UNL     1     -24.233 -37.859  19.668  1.00  0.00    -0.207 OA
BRANCH  31  34
ATOM     34  N   UNL     1     -22.049 -36.595  19.421  1.00  0.00    -0.225 NA
ATOM     35  H   UNL     1     -21.919 -36.142  18.517  1.00  0.00     0.137 HD
ATOM     36  H   UNL     1     -22.551 -35.997  20.080  1.00  0.00     0.137 HD
ENDBRANCH  31  34
ENDBRANCH   4  31
TORSDOF 7
ENDMDL
MODEL 7
REMARK VINA RESULT:    -8.735      3.407      6.004
REMARK INTER + INTRA:         -13.429
REMARK INTER:                 -11.938
REMARK INTRA:                  -1.491
REMARK UNBOUND:                -1.374
REMARK SMILES COc1ccc([C@@H]2C=C(c3cc(F)ccc3F)NN2c2ccc(S(N)(=O)=O)cc2)cc1OC
REMARK SMILES IDX 20 1 21 2 22 3 23 4 28 5 29 6 19 7 18 8 9 9 8 10 7 11 10 13
REMARK SMILES IDX 11 14 16 15 12 16 15 17 14 18 17 19 13 20 6 21 5 22 30 23
REMARK SMILES IDX 4 24 31 25 3 26 32 27 33 28 2 29 1 30 24 31 26 32 27 33
REMARK SMILES IDX 25 34
REMARK H PARENT 18 12 25 35 25 36
ROOT
ATOM      1  C   UNL     1     -18.075 -42.590  24.739  1.00  0.00     0.058 A 
ATOM      2  C   UNL     1     -17.905 -42.460  26.130  1.00  0.00     0.029 A 
ATOM      3  C   UNL     1     -16.699 -42.785  26.761  1.00  0.00     0.024 A 
ATOM      4  C   UNL     1     -15.632 -43.249  25.996  1.00  0.00     0.082 A 
ATOM      5  C   UNL     1     -15.754 -43.366  24.613  1.00  0.00     0.024 A 
ATOM      6  C   UNL     1     -16.968 -43.036  23.997  1.00  0.00     0.029 A 
ENDROOT
BRANCH   1   7
ATOM      7  N   UNL     1     -19.294 -42.234  24.135  1.00  0.00    -0.276 N 
ATOM      8  N   UNL     1     -19.360 -41.621  22.886  1.00  0.00    -0.297 N 
ATOM      9  C   UNL     1     -20.515 -40.859  22.777  1.00  0.00     0.063 C 
ATOM     10  C   UNL     1     -21.164 -40.854  23.952  1.00  0.00     0.033 C 
ATOM     11  C   UNL     1     -20.436 -41.723  24.961  1.00  0.00     0.161 C 
ATOM     12  H   UNL     1     -19.225 -42.244  22.088  1.00  0.00     0.188 HD
BRANCH   9  13
ATOM     13  C   UNL     1     -20.892 -40.197  21.524  1.00  0.00     0.038 A 
ATOM     14  C   UNL     1     -21.611 -40.906  20.549  1.00  0.00     0.052 A 
ATOM     15  C   UNL     1     -20.573 -38.856  21.257  1.00  0.00     0.132 A 
ATOM     16  C   UNL     1     -21.983 -40.284  19.358  1.00  0.00     0.124 A 
ATOM     17  C   UNL     1     -20.950 -38.237  20.063  1.00  0.00     0.043 A 
ATOM     18  C   UNL     1     -21.660 -38.957  19.106  1.00  0.00     0.042 A 
ATOM     19  F   UNL     1     -19.901 -38.119  22.155  1.00  0.00    -0.206 F 
ATOM     20  F   UNL     1     -22.666 -40.980  18.440  1.00  0.00    -0.207 F 
ENDBRANCH   9  13
BRANCH  11  21
ATOM     21  C   UNL     1     -21.335 -42.824  25.496  1.00  0.00    -0.016 A 
ATOM     22  C   UNL     1     -21.643 -42.859  26.864  1.00  0.00     0.010 A 
ATOM     23  C   UNL     1     -21.908 -43.795  24.657  1.00  0.00     0.056 A 
ATOM     24  C   UNL     1     -22.483 -43.848  27.384  1.00  0.00     0.051 A 
ATOM     25  C   UNL     1     -22.745 -44.795  25.168  1.00  0.00     0.161 A 
ATOM     26  C   UNL     1     -23.036 -44.820  26.546  1.00  0.00     0.160 A 
BRANCH  25  27
ATOM     27  O   UNL     1     -23.330 -45.779  24.410  1.00  0.00    -0.493 OA
ATOM     28  C   UNL     1     -22.770 -46.044  23.132  1.00  0.00     0.278 C 
ENDBRANCH  25  27
BRANCH  26  29
ATOM     29  O   UNL     1     -23.868 -45.828  26.970  1.00  0.00    -0.493 OA
ATOM     30  C   UNL     1     -24.335 -45.779  28.309  1.00  0.00     0.278 C 
ENDBRANCH  26  29
ENDBRANCH  11  21
ENDBRANCH   1   7
BRANCH   4  31
ATOM     31  S   UNL     1     -14.105 -43.660  26.794  1.00  0.00     0.238 S 
ATOM     32  O   UNL     1     -13.659 -44.945  26.307  1.00  0.00    -0.207 OA
ATOM     33  O   UNL     1     -13.260 -42.490  26.793  1.00  0.00    -0.207 OA
BRANCH  31  34
ATOM     34  N   UNL     1     -14.615 -43.933  28.377  1.00  0.00    -0.225 NA
ATOM     35  H   UNL     1     -15.493 -44.447  28.433  1.00  0.00     0.137 HD
ATOM     36  H   UNL     1     -13.865 -44.400  28.887  1.00  0.00     0.137 HD
ENDBRANCH  31  34
ENDBRANCH   4  31
TORSDOF 7
ENDMDL
MODEL 8
REMARK VINA RESULT:    -8.399      4.265      7.353
REMARK INTER + INTRA:         -12.966
REMARK INTER:                 -11.782
REMARK INTRA:                  -1.183
REMARK UNBOUND:                -1.374
REMARK SMILES COc1ccc([C@@H]2C=C(c3cc(F)ccc3F)NN2c2ccc(S(N)(=O)=O)cc2)cc1OC
REMARK SMILES IDX 20 1 21 2 22 3 23 4 28 5 29 6 19 7 18 8 9 9 8 10 7 11 10 13
REMARK SMILES IDX 11 14 16 15 12 16 15 17 14 18 17 19 13 20 6 21 5 22 30 23
REMARK SMILES IDX 4 24 31 25 3 26 32 27 33 28 2 29 1 30 24 31 26 32 27 33
REMARK SMILES IDX 25 34
REMARK H PARENT 18 12 25 35 25 36
ROOT
ATOM      1  C   UNL     1     -21.481 -40.906  25.226  1.00  0.00     0.058 A 
ATOM      2  C   UNL     1     -21.544 -40.879  26.632  1.00  0.00     0.029 A 
ATOM      3  C   UNL     1     -22.573 -40.220  27.313  1.00  0.00     0.024 A 
ATOM      4  C   UNL     1     -23.567 -39.570  26.585  1.00  0.00     0.082 A 
ATOM      5  C   UNL     1     -23.552 -39.598  25.192  1.00  0.00     0.024 A 
ATOM      6  C   UNL     1     -22.516 -40.263  24.526  1.00  0.00     0.029 A 
ENDROOT
BRANCH   1   7
ATOM      7  N   UNL     1     -20.444 -41.597  24.573  1.00  0.00    -0.276 N 
ATOM      8  N   UNL     1     -19.336 -42.097  25.251  1.00  0.00    -0.297 N 
ATOM      9  C   UNL     1     -18.240 -42.179  24.402  1.00  0.00     0.063 C 
ATOM     10  C   UNL     1     -18.552 -41.642  23.212  1.00  0.00     0.033 C 
ATOM     11  C   UNL     1     -20.000 -41.189  23.200  1.00  0.00     0.161 C 
ATOM     12  H   UNL     1     -19.497 -42.965  25.766  1.00  0.00     0.188 HD
BRANCH   9  13
ATOM     13  C   UNL     1     -16.972 -42.779  24.828  1.00  0.00     0.038 A 
ATOM     14  C   UNL     1     -16.154 -43.422  23.886  1.00  0.00     0.052 A 
ATOM     15  C   UNL     1     -16.524 -42.727  26.157  1.00  0.00     0.132 A 
ATOM     16  C   UNL     1     -14.942 -43.988  24.276  1.00  0.00     0.124 A 
ATOM     17  C   UNL     1     -15.308 -43.294  26.543  1.00  0.00     0.043 A 
ATOM     18  C   UNL     1     -14.510 -43.930  25.595  1.00  0.00     0.042 A 
ATOM     19  F   UNL     1     -17.252 -42.113  27.103  1.00  0.00    -0.206 F 
ATOM     20  F   UNL     1     -14.178 -44.600  23.361  1.00  0.00    -0.207 F 
ENDBRANCH   9  13
BRANCH  11  21
ATOM     21  C   UNL     1     -20.783 -41.864  22.087  1.00  0.00    -0.016 A 
ATOM     22  C   UNL     1     -20.884 -41.236  20.837  1.00  0.00     0.010 A 
ATOM     23  C   UNL     1     -21.383 -43.125  22.253  1.00  0.00     0.056 A 
ATOM     24  C   UNL     1     -21.581 -41.840  19.786  1.00  0.00     0.051 A 
ATOM     25  C   UNL     1     -22.090 -43.736  21.209  1.00  0.00     0.161 A 
ATOM     26  C   UNL     1     -22.188 -43.087  19.963  1.00  0.00     0.160 A 
BRANCH  25  27
ATOM     27  O   UNL     1     -22.707 -44.958  21.304  1.00  0.00    -0.493 OA
ATOM     28  C   UNL     1     -23.832 -45.062  22.165  1.00  0.00     0.278 C 
ENDBRANCH  25  27
BRANCH  26  29
ATOM     29  O   UNL     1     -22.894 -43.752  18.990  1.00  0.00    -0.493 OA
ATOM     30  C   UNL     1     -24.167 -43.238  18.630  1.00  0.00     0.278 C 
ENDBRANCH  26  29
ENDBRANCH  11  21
ENDBRANCH   1   7
BRANCH   4  31
ATOM     31  S   UNL     1     -24.870 -38.736  27.448  1.00  0.00     0.238 S 
ATOM     32  O   UNL     1     -24.527 -37.338  27.563  1.00  0.00    -0.207 OA
ATOM     33  O   UNL     1     -26.133 -39.188  26.914  1.00  0.00    -0.207 OA
BRANCH  31  34
ATOM     34  N   UNL     1     -24.704 -39.368  29.001  1.00  0.00    -0.225 NA
ATOM     35  H   UNL     1     -25.279 -40.193  29.163  1.00  0.00     0.137 HD
ATOM     36  H   UNL     1     -23.714 -39.551  29.176  1.00  0.00     0.137 HD
ENDBRANCH  31  34
ENDBRANCH   4  31
TORSDOF 7
ENDMDL
MODEL 9
REMARK VINA RESULT:    -8.297      3.366      5.991
REMARK INTER + INTRA:         -12.824
REMARK INTER:                 -11.443
REMARK INTRA:                  -1.381
REMARK UNBOUND:                -1.374
REMARK SMILES COc1ccc([C@@H]2C=C(c3cc(F)ccc3F)NN2c2ccc(S(N)(=O)=O)cc2)cc1OC
REMARK SMILES IDX 20 1 21 2 22 3 23 4 28 5 29 6 19 7 18 8 9 9 8 10 7 11 10 13
REMARK SMILES IDX 11 14 16 15 12 16 15 17 14 18 17 19 13 20 6 21 5 22 30 23
REMARK SMILES IDX 4 24 31 25 3 26 32 27 33 28 2 29 1 30 24 31 26 32 27 33
REMARK SMILES IDX 25 34
REMARK H PARENT 18 12 25 35 25 36
ROOT
ATOM      1  C   UNL     1     -18.776 -42.072  24.734  1.00  0.00     0.058 A 
ATOM      2  C   UNL     1     -18.648 -42.090  26.136  1.00  0.00     0.029 A 
ATOM      3  C   UNL     1     -17.454 -42.462  26.764  1.00  0.00     0.024 A 
ATOM      4  C   UNL     1     -16.358 -42.826  25.986  1.00  0.00     0.082 A 
ATOM      5  C   UNL     1     -16.439 -42.795  24.596  1.00  0.00     0.024 A 
ATOM      6  C   UNL     1     -17.640 -42.419  23.982  1.00  0.00     0.029 A 
ENDROOT
BRANCH   1   7
ATOM      7  N   UNL     1     -19.984 -41.672  24.135  1.00  0.00    -0.276 N 
ATOM      8  N   UNL     1     -20.071 -41.319  22.790  1.00  0.00    -0.297 N 
ATOM      9  C   UNL     1     -21.123 -40.436  22.586  1.00  0.00     0.063 C 
ATOM     10  C   UNL     1     -21.666 -40.100  23.766  1.00  0.00     0.033 C 
ATOM     11  C   UNL     1     -20.976 -40.845  24.895  1.00  0.00     0.161 C 
ATOM     12  H   UNL     1     -20.086 -42.103  22.136  1.00  0.00     0.188 HD
BRANCH   9  13
ATOM     13  C   UNL     1     -21.512 -39.991  21.243  1.00  0.00     0.038 A 
ATOM     14  C   UNL     1     -21.287 -38.661  20.857  1.00  0.00     0.052 A 
ATOM     15  C   UNL     1     -22.097 -40.856  20.305  1.00  0.00     0.132 A 
ATOM     16  C   UNL     1     -21.643 -38.228  19.581  1.00  0.00     0.124 A 
ATOM     17  C   UNL     1     -22.451 -40.418  19.027  1.00  0.00     0.043 A 
ATOM     18  C   UNL     1     -22.222 -39.095  18.662  1.00  0.00     0.042 A 
ATOM     19  F   UNL     1     -22.324 -42.143  20.607  1.00  0.00    -0.206 F 
ATOM     20  F   UNL     1     -21.422 -36.954  19.234  1.00  0.00    -0.207 F 
ENDBRANCH   9  13
BRANCH  11  21
ATOM     21  C   UNL     1     -21.965 -41.673  25.698  1.00  0.00    -0.016 A 
ATOM     22  C   UNL     1     -22.610 -41.098  26.802  1.00  0.00     0.010 A 
ATOM     23  C   UNL     1     -22.289 -42.996  25.348  1.00  0.00     0.056 A 
ATOM     24  C   UNL     1     -23.538 -41.828  27.549  1.00  0.00     0.051 A 
ATOM     25  C   UNL     1     -23.213 -43.739  26.094  1.00  0.00     0.161 A 
ATOM     26  C   UNL     1     -23.845 -43.148  27.205  1.00  0.00     0.160 A 
BRANCH  25  27
ATOM     27  O   UNL     1     -23.569 -45.035  25.816  1.00  0.00    -0.493 OA
ATOM     28  C   UNL     1     -22.572 -45.890  25.273  1.00  0.00     0.278 C 
ENDBRANCH  25  27
BRANCH  26  29
ATOM     29  O   UNL     1     -24.740 -43.939  27.882  1.00  0.00    -0.493 OA
ATOM     30  C   UNL     1     -26.100 -43.530  27.902  1.00  0.00     0.278 C 
ENDBRANCH  26  29
ENDBRANCH  11  21
ENDBRANCH   1   7
BRANCH   4  31
ATOM     31  S   UNL     1     -14.847 -43.296  26.782  1.00  0.00     0.238 S 
ATOM     32  O   UNL     1     -13.885 -42.231  26.614  1.00  0.00    -0.207 OA
ATOM     33  O   UNL     1     -15.166 -43.862  28.071  1.00  0.00    -0.207 OA
BRANCH  31  34
ATOM     34  N   UNL     1     -14.314 -44.543  25.782  1.00  0.00    -0.225 NA
ATOM     35  H   UNL     1     -13.495 -45.028  26.145  1.00  0.00     0.137 HD
ATOM     36  H   UNL     1     -15.093 -45.182  25.612  1.00  0.00     0.137 HD
ENDBRANCH  31  34
ENDBRANCH   4  31
TORSDOF 7
ENDMDL
