MODEL 1
REMARK VINA RESULT:   -10.357      0.000      0.000
REMARK INTER + INTRA:         -16.608
REMARK INTER:                 -15.806
REMARK INTRA:                  -0.801
REMARK UNBOUND:                -0.801
REMARK SMILES O=C(COc1ccc(Cl)cc1[N+](=O)[O-])NCC[N@H+]1CC[N@H+](Cc2ccccc2)CC1
REMARK SMILES IDX 15 1 2 2 1 3 16 5 17 6 18 7 29 8 21 9 30 10 20 11 19 12
REMARK SMILES IDX 22 15 23 16 24 17 28 18 25 19 27 20 26 21 3 22 4 23 5 24
REMARK SMILES IDX 6 25 11 26 7 27 10 28 8 29 9 30 12 31 13 32 14 33
REMARK H PARENT 15 4 21 13 18 14
ROOT
ATOM      1  N   UNL     1     -14.578 -42.568  25.290  1.00  0.00    -0.347 N 
ATOM      2  C   UNL     1     -15.057 -42.957  24.052  1.00  0.00     0.258 C 
ATOM      3  O   UNL     1     -14.859 -44.083  23.606  1.00  0.00    -0.271 OA
ATOM      4  H   UNL     1     -14.633 -41.579  25.525  1.00  0.00     0.163 HD
ENDROOT
BRANCH   1   5
ATOM      5  C   UNL     1     -13.746 -43.425  26.130  1.00  0.00     0.177 C 
BRANCH   5   6
ATOM      6  C   UNL     1     -14.556 -44.106  27.257  1.00  0.00     0.284 C 
BRANCH   6   7
ATOM      7  N   UNL     1     -13.774 -45.066  28.193  1.00  0.00    -0.324 N 
ATOM      8  C   UNL     1     -11.397 -45.862  28.772  1.00  0.00     0.324 C 
ATOM      9  N   UNL     1     -11.656 -45.538  30.230  1.00  0.00    -0.322 N 
ATOM     10  C   UNL     1     -12.283 -45.010  27.834  1.00  0.00     0.324 C 
ATOM     11  C   UNL     1     -13.120 -45.733  30.586  1.00  0.00     0.324 C 
ATOM     12  C   UNL     1     -14.032 -44.872  29.683  1.00  0.00     0.324 C 
ATOM     13  H   UNL     1     -11.426 -44.537  30.402  1.00  0.00     0.348 HD
ATOM     14  H   UNL     1     -14.130 -46.005  27.958  1.00  0.00     0.348 HD
BRANCH   9  15
ATOM     15  C   UNL     1     -10.716 -46.305  31.151  1.00  0.00     0.299 C 
BRANCH  15  16
ATOM     16  C   UNL     1      -9.538 -45.489  31.602  1.00  0.00     0.006 A 
ATOM     17  C   UNL     1      -8.232 -45.989  31.471  1.00  0.00     0.009 A 
ATOM     18  C   UNL     1      -9.723 -44.207  32.142  1.00  0.00     0.009 A 
ATOM     19  C   UNL     1      -7.138 -45.216  31.860  1.00  0.00     0.001 A 
ATOM     20  C   UNL     1      -8.624 -43.438  32.529  1.00  0.00     0.001 A 
ATOM     21  C   UNL     1      -7.333 -43.942  32.384  1.00  0.00     0.000 A 
ENDBRANCH  15  16
ENDBRANCH   9  15
ENDBRANCH   6   7
ENDBRANCH   5   6
ENDBRANCH   1   5
BRANCH   2  22
ATOM     22  C   UNL     1     -16.028 -41.972  23.415  1.00  0.00     0.329 C 
BRANCH  22  23
ATOM     23  O   UNL     1     -17.238 -42.750  23.415  1.00  0.00    -0.477 OA
BRANCH  23  24
ATOM     24  C   UNL     1     -18.202 -42.366  24.298  1.00  0.00     0.197 A 
ATOM     25  C   UNL     1     -18.092 -42.530  25.675  1.00  0.00     0.055 A 
ATOM     26  C   UNL     1     -19.323 -41.696  23.787  1.00  0.00     0.312 A 
ATOM     27  C   UNL     1     -19.107 -42.045  26.512  1.00  0.00     0.025 A 
ATOM     28  C   UNL     1     -20.345 -41.208  24.600  1.00  0.00     0.110 A 
ATOM     29  C   UNL     1     -20.222 -41.391  25.973  1.00  0.00     0.048 A 
ATOM     30  Cl  UNL     1     -21.453 -40.805  27.018  1.00  0.00    -0.084 Cl
BRANCH  26  31
ATOM     31  N   UNL     1     -19.449 -41.579  22.355  1.00  0.00     0.066 N 
ATOM     32  O   UNL     1     -20.147 -42.411  21.746  1.00  0.00    -0.258 OA
ATOM     33  O   UNL     1     -18.932 -40.591  21.814  1.00  0.00    -0.258 OA
ENDBRANCH  26  31
ENDBRANCH  23  24
ENDBRANCH  22  23
ENDBRANCH   2  22
TORSDOF 9
ENDMDL
MODEL 2
REMARK VINA RESULT:   -10.233      1.953      2.632
REMARK INTER + INTRA:         -16.418
REMARK INTER:                 -15.604
REMARK INTRA:                  -0.814
REMARK UNBOUND:                -0.801
REMARK SMILES O=C(COc1ccc(Cl)cc1[N+](=O)[O-])NCC[N@H+]1CC[N@H+](Cc2ccccc2)CC1
REMARK SMILES IDX 15 1 2 2 1 3 16 5 17 6 18 7 29 8 21 9 30 10 20 11 19 12
REMARK SMILES IDX 22 15 23 16 24 17 28 18 25 19 27 20 26 21 3 22 4 23 5 24
REMARK SMILES IDX 6 25 11 26 7 27 10 28 8 29 9 30 12 31 13 32 14 33
REMARK H PARENT 15 4 21 13 18 14
ROOT
ATOM      1  N   UNL     1     -15.774 -43.061  26.327  1.00  0.00    -0.347 N 
ATOM      2  C   UNL     1     -16.758 -42.636  27.202  1.00  0.00     0.258 C 
ATOM      3  O   UNL     1     -16.514 -42.386  28.378  1.00  0.00    -0.271 OA
ATOM      4  H   UNL     1     -16.072 -43.408  25.418  1.00  0.00     0.163 HD
ENDROOT
BRANCH   1   5
ATOM      5  C   UNL     1     -14.395 -43.315  26.738  1.00  0.00     0.177 C 
BRANCH   5   6
ATOM      6  C   UNL     1     -13.993 -44.797  26.556  1.00  0.00     0.284 C 
BRANCH   6   7
ATOM      7  N   UNL     1     -13.452 -45.529  27.813  1.00  0.00    -0.324 N 
ATOM      8  C   UNL     1     -11.282 -46.382  28.900  1.00  0.00     0.324 C 
ATOM      9  N   UNL     1     -11.633 -45.628  30.167  1.00  0.00    -0.322 N 
ATOM     10  C   UNL     1     -11.940 -45.742  27.656  1.00  0.00     0.324 C 
ATOM     11  C   UNL     1     -13.138 -45.552  30.363  1.00  0.00     0.324 C 
ATOM     12  C   UNL     1     -13.824 -44.890  29.146  1.00  0.00     0.324 C 
ATOM     13  H   UNL     1     -11.281 -44.651  30.091  1.00  0.00     0.348 HD
ATOM     14  H   UNL     1     -13.914 -46.451  27.796  1.00  0.00     0.348 HD
BRANCH   9  15
ATOM     15  C   UNL     1     -10.908 -46.198  31.380  1.00  0.00     0.299 C 
BRANCH  15  16
ATOM     16  C   UNL     1      -9.620 -45.486  31.683  1.00  0.00     0.006 A 
ATOM     17  C   UNL     1      -8.386 -46.103  31.425  1.00  0.00     0.009 A 
ATOM     18  C   UNL     1      -9.631 -44.186  32.211  1.00  0.00     0.009 A 
ATOM     19  C   UNL     1      -7.191 -45.428  31.676  1.00  0.00     0.001 A 
ATOM     20  C   UNL     1      -8.433 -43.514  32.460  1.00  0.00     0.001 A 
ATOM     21  C   UNL     1      -7.216 -44.134  32.189  1.00  0.00     0.000 A 
ENDBRANCH  15  16
ENDBRANCH   9  15
ENDBRANCH   6   7
ENDBRANCH   5   6
ENDBRANCH   1   5
BRANCH   2  22
ATOM     22  C   UNL     1     -18.082 -42.286  26.537  1.00  0.00     0.329 C 
BRANCH  22  23
ATOM     23  O   UNL     1     -17.845 -42.761  25.201  1.00  0.00    -0.477 OA
BRANCH  23  24
ATOM     24  C   UNL     1     -18.384 -42.018  24.192  1.00  0.00     0.197 A 
ATOM     25  C   UNL     1     -19.686 -41.528  24.212  1.00  0.00     0.055 A 
ATOM     26  C   UNL     1     -17.548 -41.667  23.123  1.00  0.00     0.312 A 
ATOM     27  C   UNL     1     -20.134 -40.718  23.158  1.00  0.00     0.025 A 
ATOM     28  C   UNL     1     -17.973 -40.867  22.064  1.00  0.00     0.110 A 
ATOM     29  C   UNL     1     -19.280 -40.394  22.096  1.00  0.00     0.048 A 
ATOM     30  Cl  UNL     1     -19.852 -39.400  20.818  1.00  0.00    -0.084 Cl
BRANCH  26  31
ATOM     31  N   UNL     1     -16.218 -42.226  23.090  1.00  0.00     0.066 N 
ATOM     32  O   UNL     1     -16.084 -43.460  23.193  1.00  0.00    -0.258 OA
ATOM     33  O   UNL     1     -15.278 -41.452  22.861  1.00  0.00    -0.258 OA
ENDBRANCH  26  31
ENDBRANCH  23  24
ENDBRANCH  22  23
ENDBRANCH   2  22
TORSDOF 9
ENDMDL
MODEL 3
REMARK VINA RESULT:    -9.835      1.936      2.611
REMARK INTER + INTRA:         -15.812
REMARK INTER:                 -15.426
REMARK INTRA:                  -0.386
REMARK UNBOUND:                -0.801
REMARK SMILES O=C(COc1ccc(Cl)cc1[N+](=O)[O-])NCC[N@H+]1CC[N@H+](Cc2ccccc2)CC1
REMARK SMILES IDX 15 1 2 2 1 3 16 5 17 6 18 7 29 8 21 9 30 10 20 11 19 12
REMARK SMILES IDX 22 15 23 16 24 17 28 18 25 19 27 20 26 21 3 22 4 23 5 24
REMARK SMILES IDX 6 25 11 26 7 27 10 28 8 29 9 30 12 31 13 32 14 33
REMARK H PARENT 15 4 21 13 18 14
ROOT
ATOM      1  N   UNL     1     -15.609 -43.001  25.648  1.00  0.00    -0.347 N 
ATOM      2  C   UNL     1     -15.823 -42.452  24.396  1.00  0.00     0.258 C 
ATOM      3  O   UNL     1     -14.896 -42.056  23.696  1.00  0.00    -0.271 OA
ATOM      4  H   UNL     1     -16.424 -43.154  26.237  1.00  0.00     0.163 HD
ENDROOT
BRANCH   1   5
ATOM      5  C   UNL     1     -14.290 -43.090  26.267  1.00  0.00     0.177 C 
BRANCH   5   6
ATOM      6  C   UNL     1     -13.835 -44.553  26.472  1.00  0.00     0.284 C 
BRANCH   6   7
ATOM      7  N   UNL     1     -13.127 -44.880  27.814  1.00  0.00    -0.324 N 
ATOM      8  C   UNL     1     -11.249 -44.074  29.378  1.00  0.00     0.324 C 
ATOM      9  N   UNL     1     -12.231 -44.062  30.532  1.00  0.00    -0.322 N 
ATOM     10  C   UNL     1     -11.966 -43.896  28.019  1.00  0.00     0.324 C 
ATOM     11  C   UNL     1     -13.291 -45.138  30.365  1.00  0.00     0.324 C 
ATOM     12  C   UNL     1     -14.046 -44.972  29.027  1.00  0.00     0.324 C 
ATOM     13  H   UNL     1     -12.723 -43.144  30.552  1.00  0.00     0.348 HD
ATOM     14  H   UNL     1     -12.734 -45.823  27.678  1.00  0.00     0.348 HD
BRANCH   9  15
ATOM     15  C   UNL     1     -11.518 -44.139  31.877  1.00  0.00     0.299 C 
BRANCH  15  16
ATOM     16  C   UNL     1     -10.133 -44.710  31.776  1.00  0.00     0.006 A 
ATOM     17  C   UNL     1      -9.938 -46.042  31.374  1.00  0.00     0.009 A 
ATOM     18  C   UNL     1      -9.011 -43.917  32.061  1.00  0.00     0.009 A 
ATOM     19  C   UNL     1      -8.650 -46.561  31.249  1.00  0.00     0.001 A 
ATOM     20  C   UNL     1      -7.724 -44.441  31.933  1.00  0.00     0.001 A 
ATOM     21  C   UNL     1      -7.544 -45.761  31.525  1.00  0.00     0.000 A 
ENDBRANCH  15  16
ENDBRANCH   9  15
ENDBRANCH   6   7
ENDBRANCH   5   6
ENDBRANCH   1   5
BRANCH   2  22
ATOM     22  C   UNL     1     -17.247 -42.599  23.878  1.00  0.00     0.329 C 
BRANCH  22  23
ATOM     23  O   UNL     1     -17.958 -42.817  25.110  1.00  0.00    -0.477 OA
BRANCH  23  24
ATOM     24  C   UNL     1     -19.097 -42.088  25.285  1.00  0.00     0.197 A 
ATOM     25  C   UNL     1     -19.809 -41.511  24.238  1.00  0.00     0.055 A 
ATOM     26  C   UNL     1     -19.614 -41.991  26.585  1.00  0.00     0.312 A 
ATOM     27  C   UNL     1     -21.006 -40.834  24.508  1.00  0.00     0.025 A 
ATOM     28  C   UNL     1     -20.800 -41.320  26.876  1.00  0.00     0.110 A 
ATOM     29  C   UNL     1     -21.493 -40.741  25.817  1.00  0.00     0.048 A 
ATOM     30  Cl  UNL     1     -22.961 -39.906  26.123  1.00  0.00    -0.084 Cl
BRANCH  26  31
ATOM     31  N   UNL     1     -18.839 -42.548  27.667  1.00  0.00     0.066 N 
ATOM     32  O   UNL     1     -17.654 -42.190  27.801  1.00  0.00    -0.258 OA
ATOM     33  O   UNL     1     -19.427 -43.285  28.471  1.00  0.00    -0.258 OA
ENDBRANCH  26  31
ENDBRANCH  23  24
ENDBRANCH  22  23
ENDBRANCH   2  22
TORSDOF 9
ENDMDL
MODEL 4
REMARK VINA RESULT:    -9.786      1.680      2.245
REMARK INTER + INTRA:         -15.736
REMARK INTER:                 -14.644
REMARK INTRA:                  -1.092
REMARK UNBOUND:                -0.801
REMARK SMILES O=C(COc1ccc(Cl)cc1[N+](=O)[O-])NCC[N@H+]1CC[N@H+](Cc2ccccc2)CC1
REMARK SMILES IDX 15 1 2 2 1 3 16 5 17 6 18 7 29 8 21 9 30 10 20 11 19 12
REMARK SMILES IDX 22 15 23 16 24 17 28 18 25 19 27 20 26 21 3 22 4 23 5 24
REMARK SMILES IDX 6 25 11 26 7 27 10 28 8 29 9 30 12 31 13 32 14 33
REMARK H PARENT 15 4 21 13 18 14
ROOT
ATOM      1  N   UNL     1     -15.693 -42.525  25.249  1.00  0.00    -0.347 N 
ATOM      2  C   UNL     1     -15.508 -42.748  23.895  1.00  0.00     0.258 C 
ATOM      3  O   UNL     1     -14.990 -43.778  23.474  1.00  0.00    -0.271 OA
ATOM      4  H   UNL     1     -15.973 -41.590  25.536  1.00  0.00     0.163 HD
ENDROOT
BRANCH   1   5
ATOM      5  C   UNL     1     -15.229 -43.448  26.281  1.00  0.00     0.177 C 
BRANCH   5   6
ATOM      6  C   UNL     1     -13.780 -43.148  26.728  1.00  0.00     0.284 C 
BRANCH   6   7
ATOM      7  N   UNL     1     -13.103 -44.202  27.644  1.00  0.00    -0.324 N 
ATOM      8  C   UNL     1     -10.962 -44.653  28.999  1.00  0.00     0.324 C 
ATOM      9  N   UNL     1     -11.810 -44.942  30.221  1.00  0.00    -0.322 N 
ATOM     10  C   UNL     1     -11.693 -43.717  28.008  1.00  0.00     0.324 C 
ATOM     11  C   UNL     1     -13.148 -45.548  29.832  1.00  0.00     0.324 C 
ATOM     12  C   UNL     1     -13.917 -44.622  28.862  1.00  0.00     0.324 C 
ATOM     13  H   UNL     1     -12.008 -44.048  30.718  1.00  0.00     0.348 HD
ATOM     14  H   UNL     1     -13.015 -45.043  27.052  1.00  0.00     0.348 HD
BRANCH   9  15
ATOM     15  C   UNL     1     -11.055 -45.783  31.242  1.00  0.00     0.299 C 
BRANCH  15  16
ATOM     16  C   UNL     1      -9.781 -45.139  31.708  1.00  0.00     0.006 A 
ATOM     17  C   UNL     1      -8.550 -45.798  31.554  1.00  0.00     0.009 A 
ATOM     18  C   UNL     1      -9.798 -43.861  32.286  1.00  0.00     0.009 A 
ATOM     19  C   UNL     1      -7.364 -45.185  31.957  1.00  0.00     0.001 A 
ATOM     20  C   UNL     1      -8.608 -43.250  32.687  1.00  0.00     0.001 A 
ATOM     21  C   UNL     1      -7.393 -43.911  32.519  1.00  0.00     0.000 A 
ENDBRANCH  15  16
ENDBRANCH   9  15
ENDBRANCH   6   7
ENDBRANCH   5   6
ENDBRANCH   1   5
BRANCH   2  22
ATOM     22  C   UNL     1     -16.203 -41.740  22.991  1.00  0.00     0.329 C 
BRANCH  22  23
ATOM     23  O   UNL     1     -17.501 -42.345  22.862  1.00  0.00    -0.477 OA
BRANCH  23  24
ATOM     24  C   UNL     1     -18.558 -41.490  22.766  1.00  0.00     0.197 A 
ATOM     25  C   UNL     1     -18.764 -40.642  21.681  1.00  0.00     0.055 A 
ATOM     26  C   UNL     1     -19.527 -41.534  23.779  1.00  0.00     0.312 A 
ATOM     27  C   UNL     1     -19.916 -39.843  21.639  1.00  0.00     0.025 A 
ATOM     28  C   UNL     1     -20.676 -40.747  23.759  1.00  0.00     0.110 A 
ATOM     29  C   UNL     1     -20.860 -39.899  22.671  1.00  0.00     0.048 A 
ATOM     30  Cl  UNL     1     -22.262 -38.911  22.597  1.00  0.00    -0.084 Cl
BRANCH  26  31
ATOM     31  N   UNL     1     -19.274 -42.378  24.922  1.00  0.00     0.066 N 
ATOM     32  O   UNL     1     -18.659 -41.902  25.893  1.00  0.00    -0.258 OA
ATOM     33  O   UNL     1     -19.772 -43.513  24.916  1.00  0.00    -0.258 OA
ENDBRANCH  26  31
ENDBRANCH  23  24
ENDBRANCH  22  23
ENDBRANCH   2  22
TORSDOF 9
ENDMDL
MODEL 5
REMARK VINA RESULT:    -9.637      4.363     11.293
REMARK INTER + INTRA:         -15.509
REMARK INTER:                 -14.698
REMARK INTRA:                  -0.811
REMARK UNBOUND:                -0.801
REMARK SMILES O=C(COc1ccc(Cl)cc1[N+](=O)[O-])NCC[N@H+]1CC[N@H+](Cc2ccccc2)CC1
REMARK SMILES IDX 15 1 2 2 1 3 16 5 17 6 18 7 29 8 21 9 30 10 20 11 19 12
REMARK SMILES IDX 22 15 23 16 24 17 28 18 25 19 27 20 26 21 3 22 4 23 5 24
REMARK SMILES IDX 6 25 11 26 7 27 10 28 8 29 9 30 12 31 13 32 14 33
REMARK H PARENT 15 4 21 13 18 14
ROOT
ATOM      1  N   UNL     1     -13.676 -44.121  27.797  1.00  0.00    -0.347 N 
ATOM      2  C   UNL     1     -13.290 -45.428  28.040  1.00  0.00     0.258 C 
ATOM      3  O   UNL     1     -12.761 -46.118  27.174  1.00  0.00    -0.271 OA
ATOM      4  H   UNL     1     -14.253 -43.665  28.499  1.00  0.00     0.163 HD
ENDROOT
BRANCH   1   5
ATOM      5  C   UNL     1     -13.556 -43.483  26.488  1.00  0.00     0.177 C 
BRANCH   5   6
ATOM      6  C   UNL     1     -14.652 -42.419  26.253  1.00  0.00     0.284 C 
BRANCH   6   7
ATOM      7  N   UNL     1     -15.785 -42.796  25.260  1.00  0.00    -0.324 N 
ATOM      8  C   UNL     1     -18.344 -42.808  24.994  1.00  0.00     0.324 C 
ATOM      9  N   UNL     1     -18.201 -42.052  23.689  1.00  0.00    -0.322 N 
ATOM     10  C   UNL     1     -17.142 -42.553  25.934  1.00  0.00     0.324 C 
ATOM     11  C   UNL     1     -16.907 -42.417  22.980  1.00  0.00     0.324 C 
ATOM     12  C   UNL     1     -15.683 -42.147  23.884  1.00  0.00     0.324 C 
ATOM     13  H   UNL     1     -18.167 -41.030  23.889  1.00  0.00     0.348 HD
ATOM     14  H   UNL     1     -15.672 -43.810  25.110  1.00  0.00     0.348 HD
BRANCH   9  15
ATOM     15  C   UNL     1     -19.429 -42.224  22.803  1.00  0.00     0.299 C 
BRANCH  15  16
ATOM     16  C   UNL     1     -19.867 -40.944  22.150  1.00  0.00     0.006 A 
ATOM     17  C   UNL     1     -19.203 -40.461  21.010  1.00  0.00     0.009 A 
ATOM     18  C   UNL     1     -20.959 -40.222  22.656  1.00  0.00     0.009 A 
ATOM     19  C   UNL     1     -19.633 -39.290  20.385  1.00  0.00     0.001 A 
ATOM     20  C   UNL     1     -21.385 -39.051  22.027  1.00  0.00     0.001 A 
ATOM     21  C   UNL     1     -20.724 -38.589  20.891  1.00  0.00     0.000 A 
ENDBRANCH  15  16
ENDBRANCH   9  15
ENDBRANCH   6   7
ENDBRANCH   5   6
ENDBRANCH   1   5
BRANCH   2  22
ATOM     22  C   UNL     1     -13.357 -45.842  29.503  1.00  0.00     0.329 C 
BRANCH  22  23
ATOM     23  O   UNL     1     -12.686 -44.733  30.127  1.00  0.00    -0.477 OA
BRANCH  23  24
ATOM     24  C   UNL     1     -11.416 -44.966  30.565  1.00  0.00     0.197 A 
ATOM     25  C   UNL     1     -10.932 -46.233  30.877  1.00  0.00     0.055 A 
ATOM     26  C   UNL     1     -10.536 -43.876  30.622  1.00  0.00     0.312 A 
ATOM     27  C   UNL     1      -9.592 -46.385  31.259  1.00  0.00     0.025 A 
ATOM     28  C   UNL     1      -9.201 -44.003  31.002  1.00  0.00     0.110 A 
ATOM     29  C   UNL     1      -8.738 -45.276  31.319  1.00  0.00     0.048 A 
ATOM     30  Cl  UNL     1      -7.101 -45.487  31.790  1.00  0.00    -0.084 Cl
BRANCH  26  31
ATOM     31  N   UNL     1     -11.065 -42.562  30.347  1.00  0.00     0.066 N 
ATOM     32  O   UNL     1     -10.984 -42.115  29.188  1.00  0.00    -0.258 OA
ATOM     33  O   UNL     1     -11.664 -41.983  31.264  1.00  0.00    -0.258 OA
ENDBRANCH  26  31
ENDBRANCH  23  24
ENDBRANCH  22  23
ENDBRANCH   2  22
TORSDOF 9
ENDMDL
MODEL 6
REMARK VINA RESULT:    -9.260      4.510     10.452
REMARK INTER + INTRA:         -14.933
REMARK INTER:                 -14.499
REMARK INTRA:                  -0.434
REMARK UNBOUND:                -0.801
REMARK SMILES O=C(COc1ccc(Cl)cc1[N+](=O)[O-])NCC[N@H+]1CC[N@H+](Cc2ccccc2)CC1
REMARK SMILES IDX 15 1 2 2 1 3 16 5 17 6 18 7 29 8 21 9 30 10 20 11 19 12
REMARK SMILES IDX 22 15 23 16 24 17 28 18 25 19 27 20 26 21 3 22 4 23 5 24
REMARK SMILES IDX 6 25 11 26 7 27 10 28 8 29 9 30 12 31 13 32 14 33
REMARK H PARENT 15 4 21 13 18 14
ROOT
ATOM      1  N   UNL     1     -10.903 -45.344  28.634  1.00  0.00    -0.347 N 
ATOM      2  C   UNL     1     -10.447 -44.062  28.383  1.00  0.00     0.258 C 
ATOM      3  O   UNL     1     -11.069 -43.283  27.667  1.00  0.00    -0.271 OA
ATOM      4  H   UNL     1     -10.263 -45.987  29.095  1.00  0.00     0.163 HD
ENDROOT
BRANCH   1   5
ATOM      5  C   UNL     1     -12.108 -45.899  28.022  1.00  0.00     0.177 C 
BRANCH   5   6
ATOM      6  C   UNL     1     -13.393 -45.203  28.524  1.00  0.00     0.284 C 
BRANCH   6   7
ATOM      7  N   UNL     1     -14.019 -44.137  27.584  1.00  0.00    -0.324 N 
ATOM      8  C   UNL     1     -14.843 -43.775  25.174  1.00  0.00     0.324 C 
ATOM      9  N   UNL     1     -16.169 -43.280  25.714  1.00  0.00    -0.322 N 
ATOM     10  C   UNL     1     -14.141 -44.725  26.172  1.00  0.00     0.324 C 
ATOM     11  C   UNL     1     -15.993 -42.582  27.052  1.00  0.00     0.324 C 
ATOM     12  C   UNL     1     -15.319 -43.517  28.082  1.00  0.00     0.324 C 
ATOM     13  H   UNL     1     -16.799 -44.094  25.870  1.00  0.00     0.348 HD
ATOM     14  H   UNL     1     -13.326 -43.373  27.560  1.00  0.00     0.348 HD
BRANCH   9  15
ATOM     15  C   UNL     1     -16.906 -42.422  24.693  1.00  0.00     0.299 C 
BRANCH  15  16
ATOM     16  C   UNL     1     -18.296 -42.053  25.127  1.00  0.00     0.006 A 
ATOM     17  C   UNL     1     -18.648 -42.079  26.487  1.00  0.00     0.009 A 
ATOM     18  C   UNL     1     -19.256 -41.656  24.185  1.00  0.00     0.009 A 
ATOM     19  C   UNL     1     -19.929 -41.704  26.892  1.00  0.00     0.001 A 
ATOM     20  C   UNL     1     -20.537 -41.280  24.595  1.00  0.00     0.001 A 
ATOM     21  C   UNL     1     -20.870 -41.301  25.948  1.00  0.00     0.000 A 
ENDBRANCH  15  16
ENDBRANCH   9  15
ENDBRANCH   6   7
ENDBRANCH   5   6
ENDBRANCH   1   5
BRANCH   2  22
ATOM     22  C   UNL     1      -9.263 -43.636  29.240  1.00  0.00     0.329 C 
BRANCH  22  23
ATOM     23  O   UNL     1      -9.450 -44.476  30.392  1.00  0.00    -0.477 OA
BRANCH  23  24
ATOM     24  C   UNL     1      -9.290 -43.879  31.607  1.00  0.00     0.197 A 
ATOM     25  C   UNL     1      -8.046 -43.593  32.163  1.00  0.00     0.055 A 
ATOM     26  C   UNL     1     -10.443 -43.461  32.285  1.00  0.00     0.312 A 
ATOM     27  C   UNL     1      -7.979 -42.917  33.390  1.00  0.00     0.025 A 
ATOM     28  C   UNL     1     -10.399 -42.791  33.506  1.00  0.00     0.110 A 
ATOM     29  C   UNL     1      -9.148 -42.523  34.051  1.00  0.00     0.048 A 
ATOM     30  Cl  UNL     1      -9.039 -41.697  35.553  1.00  0.00    -0.084 Cl
BRANCH  26  31
ATOM     31  N   UNL     1     -11.725 -43.811  31.722  1.00  0.00     0.066 N 
ATOM     32  O   UNL     1     -12.182 -44.949  31.936  1.00  0.00    -0.258 OA
ATOM     33  O   UNL     1     -12.353 -42.920  31.133  1.00  0.00    -0.258 OA
ENDBRANCH  26  31
ENDBRANCH  23  24
ENDBRANCH  22  23
ENDBRANCH   2  22
TORSDOF 9
ENDMDL
MODEL 7
REMARK VINA RESULT:    -9.210      4.419     11.809
REMARK INTER + INTRA:         -14.857
REMARK INTER:                 -14.542
REMARK INTRA:                  -0.314
REMARK UNBOUND:                -0.801
REMARK SMILES O=C(COc1ccc(Cl)cc1[N+](=O)[O-])NCC[N@H+]1CC[N@H+](Cc2ccccc2)CC1
REMARK SMILES IDX 15 1 2 2 1 3 16 5 17 6 18 7 29 8 21 9 30 10 20 11 19 12
REMARK SMILES IDX 22 15 23 16 24 17 28 18 25 19 27 20 26 21 3 22 4 23 5 24
REMARK SMILES IDX 6 25 11 26 7 27 10 28 8 29 9 30 12 31 13 32 14 33
REMARK H PARENT 15 4 21 13 18 14
ROOT
ATOM      1  N   UNL     1     -14.753 -44.220  26.075  1.00  0.00    -0.347 N 
ATOM      2  C   UNL     1     -13.645 -44.365  26.892  1.00  0.00     0.258 C 
ATOM      3  O   UNL     1     -13.149 -43.411  27.485  1.00  0.00    -0.271 OA
ATOM      4  H   UNL     1     -15.009 -45.011  25.489  1.00  0.00     0.163 HD
ENDROOT
BRANCH   1   5
ATOM      5  C   UNL     1     -15.375 -42.929  25.793  1.00  0.00     0.177 C 
BRANCH   5   6
ATOM      6  C   UNL     1     -15.503 -42.659  24.277  1.00  0.00     0.284 C 
BRANCH   6   7
ATOM      7  N   UNL     1     -16.944 -42.542  23.711  1.00  0.00    -0.324 N 
ATOM      8  C   UNL     1     -19.390 -42.176  24.420  1.00  0.00     0.324 C 
ATOM      9  N   UNL     1     -19.496 -41.038  23.424  1.00  0.00    -0.322 N 
ATOM     10  C   UNL     1     -17.929 -42.396  24.878  1.00  0.00     0.324 C 
ATOM     11  C   UNL     1     -18.607 -41.279  22.216  1.00  0.00     0.324 C 
ATOM     12  C   UNL     1     -17.134 -41.475  22.639  1.00  0.00     0.324 C 
ATOM     13  H   UNL     1     -19.171 -40.158  23.877  1.00  0.00     0.348 HD
ATOM     14  H   UNL     1     -17.116 -43.448  23.250  1.00  0.00     0.348 HD
BRANCH   9  15
ATOM     15  C   UNL     1     -20.945 -40.756  23.046  1.00  0.00     0.299 C 
BRANCH  15  16
ATOM     16  C   UNL     1     -21.091 -40.171  21.670  1.00  0.00     0.006 A 
ATOM     17  C   UNL     1     -21.710 -40.905  20.645  1.00  0.00     0.009 A 
ATOM     18  C   UNL     1     -20.630 -38.875  21.394  1.00  0.00     0.009 A 
ATOM     19  C   UNL     1     -21.874 -40.347  19.377  1.00  0.00     0.001 A 
ATOM     20  C   UNL     1     -20.798 -38.321  20.124  1.00  0.00     0.001 A 
ATOM     21  C   UNL     1     -21.423 -39.056  19.118  1.00  0.00     0.000 A 
ENDBRANCH  15  16
ENDBRANCH   9  15
ENDBRANCH   6   7
ENDBRANCH   5   6
ENDBRANCH   1   5
BRANCH   2  22
ATOM     22  C   UNL     1     -13.255 -45.809  27.173  1.00  0.00     0.329 C 
BRANCH  22  23
ATOM     23  O   UNL     1     -13.249 -45.810  28.611  1.00  0.00    -0.477 OA
BRANCH  23  24
ATOM     24  C   UNL     1     -12.046 -46.036  29.210  1.00  0.00     0.197 A 
ATOM     25  C   UNL     1     -10.857 -46.199  28.506  1.00  0.00     0.055 A 
ATOM     26  C   UNL     1     -12.002 -46.020  30.611  1.00  0.00     0.312 A 
ATOM     27  C   UNL     1      -9.655 -46.363  29.209  1.00  0.00     0.025 A 
ATOM     28  C   UNL     1     -10.820 -46.184  31.331  1.00  0.00     0.110 A 
ATOM     29  C   UNL     1      -9.642 -46.355  30.609  1.00  0.00     0.048 A 
ATOM     30  Cl  UNL     1      -8.158 -46.558  31.449  1.00  0.00    -0.084 Cl
BRANCH  26  31
ATOM     31  N   UNL     1     -13.248 -45.902  31.328  1.00  0.00     0.066 N 
ATOM     32  O   UNL     1     -13.703 -44.766  31.557  1.00  0.00    -0.258 OA
ATOM     33  O   UNL     1     -13.855 -46.949  31.594  1.00  0.00    -0.258 OA
ENDBRANCH  26  31
ENDBRANCH  23  24
ENDBRANCH  22  23
ENDBRANCH   2  22
TORSDOF 9
ENDMDL
MODEL 8
REMARK VINA RESULT:    -9.182      4.483     10.843
REMARK INTER + INTRA:         -14.814
REMARK INTER:                 -14.054
REMARK INTRA:                  -0.760
REMARK UNBOUND:                -0.801
REMARK SMILES O=C(COc1ccc(Cl)cc1[N+](=O)[O-])NCC[N@H+]1CC[N@H+](Cc2ccccc2)CC1
REMARK SMILES IDX 15 1 2 2 1 3 16 5 17 6 18 7 29 8 21 9 30 10 20 11 19 12
REMARK SMILES IDX 22 15 23 16 24 17 28 18 25 19 27 20 26 21 3 22 4 23 5 24
REMARK SMILES IDX 6 25 11 26 7 27 10 28 8 29 9 30 12 31 13 32 14 33
REMARK H PARENT 15 4 21 13 18 14
ROOT
ATOM      1  N   UNL     1     -14.267 -43.627  26.082  1.00  0.00    -0.347 N 
ATOM      2  C   UNL     1     -14.199 -44.303  27.287  1.00  0.00     0.258 C 
ATOM      3  O   UNL     1     -14.935 -44.024  28.228  1.00  0.00    -0.271 OA
ATOM      4  H   UNL     1     -13.524 -43.795  25.407  1.00  0.00     0.163 HD
ENDROOT
BRANCH   1   5
ATOM      5  C   UNL     1     -15.157 -42.492  25.852  1.00  0.00     0.177 C 
BRANCH   5   6
ATOM      6  C   UNL     1     -16.261 -42.812  24.819  1.00  0.00     0.284 C 
BRANCH   6   7
ATOM      7  N   UNL     1     -17.671 -42.229  25.106  1.00  0.00    -0.324 N 
ATOM      8  C   UNL     1     -20.124 -42.354  24.339  1.00  0.00     0.324 C 
ATOM      9  N   UNL     1     -20.546 -42.620  25.771  1.00  0.00    -0.322 N 
ATOM     10  C   UNL     1     -18.665 -42.798  24.084  1.00  0.00     0.324 C 
ATOM     11  C   UNL     1     -19.618 -41.931  26.756  1.00  0.00     0.324 C 
ATOM     12  C   UNL     1     -18.153 -42.376  26.545  1.00  0.00     0.324 C 
ATOM     13  H   UNL     1     -20.491 -43.644  25.957  1.00  0.00     0.348 HD
ATOM     14  H   UNL     1     -17.573 -41.217  24.936  1.00  0.00     0.348 HD
BRANCH   9  15
ATOM     15  C   UNL     1     -22.012 -42.273  25.997  1.00  0.00     0.299 C 
BRANCH  15  16
ATOM     16  C   UNL     1     -22.662 -43.125  27.050  1.00  0.00     0.006 A 
ATOM     17  C   UNL     1     -22.159 -44.403  27.345  1.00  0.00     0.009 A 
ATOM     18  C   UNL     1     -23.769 -42.649  27.770  1.00  0.00     0.009 A 
ATOM     19  C   UNL     1     -22.743 -45.179  28.346  1.00  0.00     0.001 A 
ATOM     20  C   UNL     1     -24.349 -43.429  28.772  1.00  0.00     0.001 A 
ATOM     21  C   UNL     1     -23.834 -44.691  29.061  1.00  0.00     0.000 A 
ENDBRANCH  15  16
ENDBRANCH   9  15
ENDBRANCH   6   7
ENDBRANCH   5   6
ENDBRANCH   1   5
BRANCH   2  22
ATOM     22  C   UNL     1     -13.321 -45.547  27.262  1.00  0.00     0.329 C 
BRANCH  22  23
ATOM     23  O   UNL     1     -13.340 -45.915  28.652  1.00  0.00    -0.477 OA
BRANCH  23  24
ATOM     24  C   UNL     1     -12.126 -46.129  29.236  1.00  0.00     0.197 A 
ATOM     25  C   UNL     1     -10.946 -46.289  28.516  1.00  0.00     0.055 A 
ATOM     26  C   UNL     1     -12.063 -46.099  30.636  1.00  0.00     0.312 A 
ATOM     27  C   UNL     1      -9.733 -46.439  29.204  1.00  0.00     0.025 A 
ATOM     28  C   UNL     1     -10.870 -46.250  31.340  1.00  0.00     0.110 A 
ATOM     29  C   UNL     1      -9.701 -46.419  30.604  1.00  0.00     0.048 A 
ATOM     30  Cl  UNL     1      -8.204 -46.605  31.424  1.00  0.00    -0.084 Cl
BRANCH  26  31
ATOM     31  N   UNL     1     -13.300 -45.985  31.369  1.00  0.00     0.066 N 
ATOM     32  O   UNL     1     -13.731 -44.849  31.643  1.00  0.00    -0.258 OA
ATOM     33  O   UNL     1     -13.924 -47.029  31.605  1.00  0.00    -0.258 OA
ENDBRANCH  26  31
ENDBRANCH  23  24
ENDBRANCH  22  23
ENDBRANCH   2  22
TORSDOF 9
ENDMDL
MODEL 9
REMARK VINA RESULT:    -8.997      4.562     10.786
REMARK INTER + INTRA:         -14.532
REMARK INTER:                 -13.817
REMARK INTRA:                  -0.715
REMARK UNBOUND:                -0.801
REMARK SMILES O=C(COc1ccc(Cl)cc1[N+](=O)[O-])NCC[N@H+]1CC[N@H+](Cc2ccccc2)CC1
REMARK SMILES IDX 15 1 2 2 1 3 16 5 17 6 18 7 29 8 21 9 30 10 20 11 19 12
REMARK SMILES IDX 22 15 23 16 24 17 28 18 25 19 27 20 26 21 3 22 4 23 5 24
REMARK SMILES IDX 6 25 11 26 7 27 10 28 8 29 9 30 12 31 13 32 14 33
REMARK H PARENT 15 4 21 13 18 14
ROOT
ATOM      1  N   UNL     1     -12.799 -45.085  27.571  1.00  0.00    -0.347 N 
ATOM      2  C   UNL     1     -12.180 -46.319  27.480  1.00  0.00     0.258 C 
ATOM      3  O   UNL     1     -12.532 -47.160  26.659  1.00  0.00    -0.271 OA
ATOM      4  H   UNL     1     -12.571 -44.505  28.376  1.00  0.00     0.163 HD
ENDROOT
BRANCH   1   5
ATOM      5  C   UNL     1     -13.953 -44.707  26.760  1.00  0.00     0.177 C 
BRANCH   5   6
ATOM      6  C   UNL     1     -13.945 -43.206  26.392  1.00  0.00     0.284 C 
BRANCH   6   7
ATOM      7  N   UNL     1     -15.306 -42.586  25.974  1.00  0.00    -0.324 N 
ATOM      8  C   UNL     1     -17.041 -42.567  24.075  1.00  0.00     0.324 C 
ATOM      9  N   UNL     1     -18.127 -42.901  25.078  1.00  0.00    -0.322 N 
ATOM     10  C   UNL     1     -15.654 -43.053  24.555  1.00  0.00     0.324 C 
ATOM     11  C   UNL     1     -17.816 -42.308  26.442  1.00  0.00     0.324 C 
ATOM     12  C   UNL     1     -16.446 -42.798  26.963  1.00  0.00     0.324 C 
ATOM     13  H   UNL     1     -18.177 -43.935  25.194  1.00  0.00     0.348 HD
ATOM     14  H   UNL     1     -15.131 -41.570  25.949  1.00  0.00     0.348 HD
BRANCH   9  15
ATOM     15  C   UNL     1     -19.506 -42.511  24.564  1.00  0.00     0.299 C 
BRANCH  15  16
ATOM     16  C   UNL     1     -20.622 -43.228  25.268  1.00  0.00     0.006 A 
ATOM     17  C   UNL     1     -20.607 -44.628  25.386  1.00  0.00     0.009 A 
ATOM     18  C   UNL     1     -21.685 -42.511  25.837  1.00  0.00     0.009 A 
ATOM     19  C   UNL     1     -21.627 -45.290  26.070  1.00  0.00     0.001 A 
ATOM     20  C   UNL     1     -22.703 -43.178  26.521  1.00  0.00     0.001 A 
ATOM     21  C   UNL     1     -22.671 -44.566  26.640  1.00  0.00     0.000 A 
ENDBRANCH  15  16
ENDBRANCH   9  15
ENDBRANCH   6   7
ENDBRANCH   5   6
ENDBRANCH   1   5
BRANCH   2  22
ATOM     22  C   UNL     1     -10.906 -46.447  28.303  1.00  0.00     0.329 C 
BRANCH  22  23
ATOM     23  O   UNL     1     -10.903 -45.183  28.990  1.00  0.00    -0.477 OA
BRANCH  23  24
ATOM     24  C   UNL     1      -9.945 -45.018  29.945  1.00  0.00     0.197 A 
ATOM     25  C   UNL     1      -9.431 -46.065  30.706  1.00  0.00     0.055 A 
ATOM     26  C   UNL     1      -9.397 -43.738  30.105  1.00  0.00     0.312 A 
ATOM     27  C   UNL     1      -8.400 -45.811  31.622  1.00  0.00     0.025 A 
ATOM     28  C   UNL     1      -8.375 -43.462  31.011  1.00  0.00     0.110 A 
ATOM     29  C   UNL     1      -7.881 -44.519  31.769  1.00  0.00     0.048 A 
ATOM     30  Cl  UNL     1      -6.619 -44.232  32.898  1.00  0.00    -0.084 Cl
BRANCH  26  31
ATOM     31  N   UNL     1      -9.975 -42.654  29.349  1.00  0.00     0.066 N 
ATOM     32  O   UNL     1     -11.122 -42.265  29.640  1.00  0.00    -0.258 OA
ATOM     33  O   UNL     1      -9.257 -42.097  28.507  1.00  0.00    -0.258 OA
ENDBRANCH  26  31
ENDBRANCH  23  24
ENDBRANCH  22  23
ENDBRANCH   2  22
TORSDOF 9
ENDMDL
