MODEL 1
REMARK VINA RESULT:    -9.902      0.000      0.000
REMARK INTER + INTRA:         -15.859
REMARK INTER:                 -15.112
REMARK INTRA:                  -0.747
REMARK UNBOUND:                -0.747
REMARK SMILES CNC(=O)Oc1cccc(C[N@@H+](C)CCCOc2ccc3c(=O)ccoc3c2)c1
REMARK SMILES IDX 12 1 13 2 11 4 10 5 9 6 29 7 8 8 6 9 7 10 5 11 3 12 2 13
REMARK SMILES IDX 4 14 1 15 14 17 15 18 16 19 17 20 18 21 19 22 28 23 20 24
REMARK SMILES IDX 27 25 21 26 26 27 22 28 25 29 24 30 23 31
REMARK H PARENT 12 3 2 16
ROOT
ATOM      1  N   UNL     1     -13.931 -44.175  27.195  1.00  0.00    -0.334 N 
ATOM      2  C   UNL     1     -13.802 -45.326  26.229  1.00  0.00     0.333 C 
ATOM      3  H   UNL     1     -14.773 -44.371  27.751  1.00  0.00     0.348 HD
ENDROOT
BRANCH   1   4
ATOM      4  C   UNL     1     -14.210 -42.868  26.470  1.00  0.00     0.298 C 
BRANCH   4   5
ATOM      5  C   UNL     1     -15.659 -42.710  26.101  1.00  0.00     0.010 A 
ATOM      6  C   UNL     1     -16.633 -42.519  27.095  1.00  0.00     0.010 A 
ATOM      7  C   UNL     1     -16.058 -42.761  24.758  1.00  0.00     0.056 A 
ATOM      8  C   UNL     1     -17.980 -42.377  26.750  1.00  0.00     0.004 A 
ATOM      9  C   UNL     1     -17.401 -42.585  24.422  1.00  0.00     0.133 A 
ATOM     10  C   UNL     1     -18.366 -42.415  25.412  1.00  0.00     0.047 A 
BRANCH   9  11
ATOM     11  O   UNL     1     -17.866 -42.631  23.095  1.00  0.00    -0.410 OA
BRANCH  11  12
ATOM     12  C   UNL     1     -17.862 -41.471  22.326  1.00  0.00     0.412 C 
ATOM     13  N   UNL     1     -19.057 -41.355  21.674  1.00  0.00    -0.324 N 
ATOM     14  O   UNL     1     -16.938 -40.675  22.243  1.00  0.00    -0.224 OA
ATOM     15  C   UNL     1     -19.403 -40.177  20.926  1.00  0.00     0.146 C 
ATOM     16  H   UNL     1     -19.784 -42.002  21.948  1.00  0.00     0.166 HD
ENDBRANCH  11  12
ENDBRANCH   9  11
ENDBRANCH   4   5
ENDBRANCH   1   4
BRANCH   1  17
ATOM     17  C   UNL     1     -12.732 -44.085  28.117  1.00  0.00     0.265 C 
BRANCH  17  18
ATOM     18  C   UNL     1     -11.924 -45.379  28.117  1.00  0.00     0.103 C 
BRANCH  18  19
ATOM     19  C   UNL     1     -12.199 -46.255  29.339  1.00  0.00     0.235 C 
BRANCH  19  20
ATOM     20  O   UNL     1     -10.984 -46.513  30.036  1.00  0.00    -0.493 OA
BRANCH  20  21
ATOM     21  C   UNL     1     -10.502 -45.585  30.914  1.00  0.00     0.123 A 
ATOM     22  C   UNL     1      -9.106 -45.589  31.042  1.00  0.00     0.047 A 
ATOM     23  C   UNL     1     -11.254 -44.679  31.663  1.00  0.00     0.094 A 
ATOM     24  C   UNL     1      -8.463 -44.701  31.908  1.00  0.00     0.020 A 
ATOM     25  C   UNL     1     -10.613 -43.789  32.530  1.00  0.00     0.141 A 
ATOM     26  C   UNL     1      -9.224 -43.799  32.652  1.00  0.00     0.065 A 
ATOM     27  O   UNL     1     -11.414 -42.923  33.238  1.00  0.00    -0.464 OA
ATOM     28  C   UNL     1      -8.581 -42.850  33.575  1.00  0.00     0.192 A 
ATOM     29  C   UNL     1     -10.796 -42.036  34.090  1.00  0.00     0.199 A 
ATOM     30  C   UNL     1      -9.481 -41.940  34.303  1.00  0.00     0.091 A 
ATOM     31  O   UNL     1      -7.370 -42.812  33.737  1.00  0.00    -0.289 OA
ENDBRANCH  20  21
ENDBRANCH  19  20
ENDBRANCH  18  19
ENDBRANCH  17  18
ENDBRANCH   1  17
TORSDOF 9
ENDMDL
MODEL 2
REMARK VINA RESULT:    -9.881      3.066      5.400
REMARK INTER + INTRA:         -15.827
REMARK INTER:                 -13.716
REMARK INTRA:                  -2.111
REMARK UNBOUND:                -0.747
REMARK SMILES CNC(=O)Oc1cccc(C[N@@H+](C)CCCOc2ccc3c(=O)ccoc3c2)c1
REMARK SMILES IDX 12 1 13 2 11 4 10 5 9 6 29 7 8 8 6 9 7 10 5 11 3 12 2 13
REMARK SMILES IDX 4 14 1 15 14 17 15 18 16 19 17 20 18 21 19 22 28 23 20 24
REMARK SMILES IDX 27 25 21 26 26 27 22 28 25 29 24 30 23 31
REMARK H PARENT 12 3 2 16
ROOT
ATOM      1  N   UNL     1     -13.945 -45.611  32.181  1.00  0.00    -0.334 N 
ATOM      2  C   UNL     1     -14.611 -46.917  32.535  1.00  0.00     0.333 C 
ATOM      3  H   UNL     1     -14.482 -45.229  31.392  1.00  0.00     0.348 HD
ENDROOT
BRANCH   1   4
ATOM      4  C   UNL     1     -12.535 -45.830  31.653  1.00  0.00     0.298 C 
BRANCH   4   5
ATOM      5  C   UNL     1     -12.468 -45.788  30.152  1.00  0.00     0.010 A 
ATOM      6  C   UNL     1     -11.339 -46.275  29.473  1.00  0.00     0.010 A 
ATOM      7  C   UNL     1     -13.529 -45.251  29.409  1.00  0.00     0.056 A 
ATOM      8  C   UNL     1     -11.276 -46.230  28.078  1.00  0.00     0.004 A 
ATOM      9  C   UNL     1     -13.470 -45.241  28.015  1.00  0.00     0.133 A 
ATOM     10  C   UNL     1     -12.341 -45.709  27.347  1.00  0.00     0.047 A 
BRANCH   9  11
ATOM     11  O   UNL     1     -14.499 -44.713  27.213  1.00  0.00    -0.410 OA
BRANCH  11  12
ATOM     12  C   UNL     1     -14.284 -43.529  26.514  1.00  0.00     0.412 C 
ATOM     13  N   UNL     1     -14.845 -43.627  25.273  1.00  0.00    -0.324 N 
ATOM     14  O   UNL     1     -13.687 -42.549  26.939  1.00  0.00    -0.224 OA
ATOM     15  C   UNL     1     -14.917 -42.502  24.380  1.00  0.00     0.146 C 
ATOM     16  H   UNL     1     -15.433 -44.432  25.107  1.00  0.00     0.166 HD
ENDBRANCH  11  12
ENDBRANCH   9  11
ENDBRANCH   4   5
ENDBRANCH   1   4
BRANCH   1  17
ATOM     17  C   UNL     1     -13.988 -44.633  33.337  1.00  0.00     0.265 C 
BRANCH  17  18
ATOM     18  C   UNL     1     -14.727 -43.351  32.963  1.00  0.00     0.103 C 
BRANCH  18  19
ATOM     19  C   UNL     1     -13.923 -42.087  33.265  1.00  0.00     0.235 C 
BRANCH  19  20
ATOM     20  O   UNL     1     -12.584 -42.432  33.605  1.00  0.00    -0.493 OA
BRANCH  20  21
ATOM     21  C   UNL     1     -11.668 -42.633  32.612  1.00  0.00     0.123 A 
ATOM     22  C   UNL     1     -10.446 -43.155  33.058  1.00  0.00     0.047 A 
ATOM     23  C   UNL     1     -11.843 -42.367  31.254  1.00  0.00     0.094 A 
ATOM     24  C   UNL     1      -9.406 -43.410  32.161  1.00  0.00     0.020 A 
ATOM     25  C   UNL     1     -10.803 -42.622  30.353  1.00  0.00     0.141 A 
ATOM     26  C   UNL     1      -9.591 -43.141  30.805  1.00  0.00     0.065 A 
ATOM     27  O   UNL     1     -11.042 -42.337  29.028  1.00  0.00    -0.464 OA
ATOM     28  C   UNL     1      -8.516 -43.396  29.831  1.00  0.00     0.192 A 
ATOM     29  C   UNL     1     -10.030 -42.589  28.131  1.00  0.00     0.199 A 
ATOM     30  C   UNL     1      -8.824 -43.082  28.426  1.00  0.00     0.091 A 
ATOM     31  O   UNL     1      -7.426 -43.840  30.161  1.00  0.00    -0.289 OA
ENDBRANCH  20  21
ENDBRANCH  19  20
ENDBRANCH  18  19
ENDBRANCH  17  18
ENDBRANCH   1  17
TORSDOF 9
ENDMDL
MODEL 3
REMARK VINA RESULT:    -9.870      2.956      9.885
REMARK INTER + INTRA:         -15.811
REMARK INTER:                 -15.469
REMARK INTRA:                  -0.342
REMARK UNBOUND:                -0.747
REMARK SMILES CNC(=O)Oc1cccc(C[N@@H+](C)CCCOc2ccc3c(=O)ccoc3c2)c1
REMARK SMILES IDX 12 1 13 2 11 4 10 5 9 6 29 7 8 8 6 9 7 10 5 11 3 12 2 13
REMARK SMILES IDX 4 14 1 15 14 17 15 18 16 19 17 20 18 21 19 22 28 23 20 24
REMARK SMILES IDX 27 25 21 26 26 27 22 28 25 29 24 30 23 31
REMARK H PARENT 12 3 2 16
ROOT
ATOM      1  N   UNL     1     -10.946 -45.391  28.883  1.00  0.00    -0.334 N 
ATOM      2  C   UNL     1     -10.612 -46.601  28.047  1.00  0.00     0.333 C 
ATOM      3  H   UNL     1     -10.060 -44.887  29.012  1.00  0.00     0.348 HD
ENDROOT
BRANCH   1   4
ATOM      4  C   UNL     1     -11.402 -45.788  30.279  1.00  0.00     0.298 C 
BRANCH   4   5
ATOM      5  C   UNL     1     -10.993 -44.788  31.325  1.00  0.00     0.010 A 
ATOM      6  C   UNL     1      -9.650 -44.678  31.724  1.00  0.00     0.010 A 
ATOM      7  C   UNL     1     -11.951 -43.959  31.925  1.00  0.00     0.056 A 
ATOM      8  C   UNL     1      -9.274 -43.752  32.700  1.00  0.00     0.004 A 
ATOM      9  C   UNL     1     -11.560 -43.014  32.875  1.00  0.00     0.133 A 
ATOM     10  C   UNL     1     -10.230 -42.921  33.281  1.00  0.00     0.047 A 
BRANCH   9  11
ATOM     11  O   UNL     1     -12.471 -42.156  33.517  1.00  0.00    -0.410 OA
BRANCH  11  12
ATOM     12  C   UNL     1     -13.836 -42.407  33.416  1.00  0.00     0.412 C 
ATOM     13  N   UNL     1     -14.523 -41.232  33.531  1.00  0.00    -0.324 N 
ATOM     14  O   UNL     1     -14.349 -43.505  33.250  1.00  0.00    -0.224 OA
ATOM     15  C   UNL     1     -15.942 -41.155  33.311  1.00  0.00     0.146 C 
ATOM     16  H   UNL     1     -13.971 -40.385  33.515  1.00  0.00     0.166 HD
ENDBRANCH  11  12
ENDBRANCH   9  11
ENDBRANCH   4   5
ENDBRANCH   1   4
BRANCH   1  17
ATOM     17  C   UNL     1     -11.940 -44.487  28.182  1.00  0.00     0.265 C 
BRANCH  17  18
ATOM     18  C   UNL     1     -13.197 -45.247  27.770  1.00  0.00     0.103 C 
BRANCH  18  19
ATOM     19  C   UNL     1     -13.952 -44.576  26.622  1.00  0.00     0.235 C 
BRANCH  19  20
ATOM     20  O   UNL     1     -14.428 -43.299  27.033  1.00  0.00    -0.493 OA
BRANCH  20  21
ATOM     21  C   UNL     1     -15.711 -42.934  26.741  1.00  0.00     0.123 A 
ATOM     22  C   UNL     1     -16.507 -42.689  27.869  1.00  0.00     0.047 A 
ATOM     23  C   UNL     1     -16.268 -42.796  25.469  1.00  0.00     0.094 A 
ATOM     24  C   UNL     1     -17.845 -42.312  27.733  1.00  0.00     0.020 A 
ATOM     25  C   UNL     1     -17.607 -42.418  25.331  1.00  0.00     0.141 A 
ATOM     26  C   UNL     1     -18.392 -42.177  26.458  1.00  0.00     0.065 A 
ATOM     27  O   UNL     1     -18.093 -42.301  24.049  1.00  0.00    -0.464 OA
ATOM     28  C   UNL     1     -19.799 -41.783  26.277  1.00  0.00     0.192 A 
ATOM     29  C   UNL     1     -19.407 -41.923  23.898  1.00  0.00     0.199 A 
ATOM     30  C   UNL     1     -20.267 -41.664  24.886  1.00  0.00     0.091 A 
ATOM     31  O   UNL     1     -20.545 -41.566  27.221  1.00  0.00    -0.289 OA
ENDBRANCH  20  21
ENDBRANCH  19  20
ENDBRANCH  18  19
ENDBRANCH  17  18
ENDBRANCH   1  17
TORSDOF 9
ENDMDL
MODEL 4
REMARK VINA RESULT:    -9.719      2.710     10.545
REMARK INTER + INTRA:         -15.579
REMARK INTER:                 -14.966
REMARK INTRA:                  -0.613
REMARK UNBOUND:                -0.747
REMARK SMILES CNC(=O)Oc1cccc(C[N@@H+](C)CCCOc2ccc3c(=O)ccoc3c2)c1
REMARK SMILES IDX 12 1 13 2 11 4 10 5 9 6 29 7 8 8 6 9 7 10 5 11 3 12 2 13
REMARK SMILES IDX 4 14 1 15 14 17 15 18 16 19 17 20 18 21 19 22 28 23 20 24
REMARK SMILES IDX 27 25 21 26 26 27 22 28 25 29 24 30 23 31
REMARK H PARENT 12 3 2 16
ROOT
ATOM      1  N   UNL     1     -13.635 -44.015  27.213  1.00  0.00    -0.334 N 
ATOM      2  C   UNL     1     -12.513 -43.045  26.941  1.00  0.00     0.333 C 
ATOM      3  H   UNL     1     -14.014 -43.753  28.131  1.00  0.00     0.348 HD
ENDROOT
BRANCH   1   4
ATOM      4  C   UNL     1     -13.117 -45.436  27.371  1.00  0.00     0.298 C 
BRANCH   4   5
ATOM      5  C   UNL     1     -12.239 -45.599  28.582  1.00  0.00     0.010 A 
ATOM      6  C   UNL     1     -11.048 -46.340  28.507  1.00  0.00     0.010 A 
ATOM      7  C   UNL     1     -12.605 -45.021  29.805  1.00  0.00     0.056 A 
ATOM      8  C   UNL     1     -10.237 -46.495  29.635  1.00  0.00     0.004 A 
ATOM      9  C   UNL     1     -11.771 -45.153  30.916  1.00  0.00     0.133 A 
ATOM     10  C   UNL     1     -10.601 -45.904  30.843  1.00  0.00     0.047 A 
BRANCH   9  11
ATOM     11  O   UNL     1     -12.083 -44.601  32.173  1.00  0.00    -0.410 OA
BRANCH  11  12
ATOM     12  C   UNL     1     -12.651 -43.333  32.243  1.00  0.00     0.412 C 
ATOM     13  N   UNL     1     -13.903 -43.425  32.780  1.00  0.00    -0.324 N 
ATOM     14  O   UNL     1     -12.118 -42.293  31.883  1.00  0.00    -0.224 OA
ATOM     15  C   UNL     1     -14.674 -42.259  33.119  1.00  0.00     0.146 C 
ATOM     16  H   UNL     1     -14.161 -44.322  33.170  1.00  0.00     0.166 HD
ENDBRANCH  11  12
ENDBRANCH   9  11
ENDBRANCH   4   5
ENDBRANCH   1   4
BRANCH   1  17
ATOM     17  C   UNL     1     -14.728 -43.908  26.170  1.00  0.00     0.265 C 
BRANCH  17  18
ATOM     18  C   UNL     1     -14.236 -43.200  24.910  1.00  0.00     0.103 C 
BRANCH  18  19
ATOM     19  C   UNL     1     -15.250 -42.204  24.349  1.00  0.00     0.235 C 
BRANCH  19  20
ATOM     20  O   UNL     1     -16.444 -42.884  23.975  1.00  0.00    -0.493 OA
BRANCH  20  21
ATOM     21  C   UNL     1     -17.652 -42.401  24.392  1.00  0.00     0.123 A 
ATOM     22  C   UNL     1     -17.821 -42.405  25.783  1.00  0.00     0.047 A 
ATOM     23  C   UNL     1     -18.685 -41.931  23.580  1.00  0.00     0.094 A 
ATOM     24  C   UNL     1     -19.007 -41.947  26.363  1.00  0.00     0.020 A 
ATOM     25  C   UNL     1     -19.873 -41.472  24.157  1.00  0.00     0.141 A 
ATOM     26  C   UNL     1     -20.033 -41.479  25.542  1.00  0.00     0.065 A 
ATOM     27  O   UNL     1     -20.850 -41.022  23.299  1.00  0.00    -0.464 OA
ATOM     28  C   UNL     1     -21.296 -40.990  26.118  1.00  0.00     0.192 A 
ATOM     29  C   UNL     1     -22.021 -40.560  23.854  1.00  0.00     0.199 A 
ATOM     30  C   UNL     1     -22.306 -40.513  25.159  1.00  0.00     0.091 A 
ATOM     31  O   UNL     1     -21.506 -40.978  27.322  1.00  0.00    -0.289 OA
ENDBRANCH  20  21
ENDBRANCH  19  20
ENDBRANCH  18  19
ENDBRANCH  17  18
ENDBRANCH   1  17
TORSDOF 9
ENDMDL
MODEL 5
REMARK VINA RESULT:    -9.706      2.699     10.935
REMARK INTER + INTRA:         -15.560
REMARK INTER:                 -15.062
REMARK INTRA:                  -0.498
REMARK UNBOUND:                -0.747
REMARK SMILES CNC(=O)Oc1cccc(C[N@@H+](C)CCCOc2ccc3c(=O)ccoc3c2)c1
REMARK SMILES IDX 12 1 13 2 11 4 10 5 9 6 29 7 8 8 6 9 7 10 5 11 3 12 2 13
REMARK SMILES IDX 4 14 1 15 14 17 15 18 16 19 17 20 18 21 19 22 28 23 20 24
REMARK SMILES IDX 27 25 21 26 26 27 22 28 25 29 24 30 23 31
REMARK H PARENT 12 3 2 16
ROOT
ATOM      1  N   UNL     1     -13.342 -44.252  27.408  1.00  0.00    -0.334 N 
ATOM      2  C   UNL     1     -12.298 -43.168  27.318  1.00  0.00     0.333 C 
ATOM      3  H   UNL     1     -13.863 -44.067  28.274  1.00  0.00     0.348 HD
ENDROOT
BRANCH   1   4
ATOM      4  C   UNL     1     -12.707 -45.622  27.594  1.00  0.00     0.298 C 
BRANCH   4   5
ATOM      5  C   UNL     1     -12.005 -45.758  28.916  1.00  0.00     0.010 A 
ATOM      6  C   UNL     1     -12.730 -46.038  30.087  1.00  0.00     0.010 A 
ATOM      7  C   UNL     1     -10.614 -45.597  29.000  1.00  0.00     0.056 A 
ATOM      8  C   UNL     1     -12.075 -46.159  31.315  1.00  0.00     0.004 A 
ATOM      9  C   UNL     1      -9.966 -45.753  30.226  1.00  0.00     0.133 A 
ATOM     10  C   UNL     1     -10.691 -46.012  31.387  1.00  0.00     0.047 A 
BRANCH   9  11
ATOM     11  O   UNL     1      -8.576 -45.599  30.377  1.00  0.00    -0.410 OA
BRANCH  11  12
ATOM     12  C   UNL     1      -8.062 -44.372  30.783  1.00  0.00     0.412 C 
ATOM     13  N   UNL     1      -7.893 -44.376  32.139  1.00  0.00    -0.324 N 
ATOM     14  O   UNL     1      -7.799 -43.431  30.048  1.00  0.00    -0.224 OA
ATOM     15  C   UNL     1      -7.232 -43.300  32.827  1.00  0.00     0.146 C 
ATOM     16  H   UNL     1      -8.009 -45.267  32.603  1.00  0.00     0.166 HD
ENDBRANCH  11  12
ENDBRANCH   9  11
ENDBRANCH   4   5
ENDBRANCH   1   4
BRANCH   1  17
ATOM     17  C   UNL     1     -14.293 -44.207  26.230  1.00  0.00     0.265 C 
BRANCH  17  18
ATOM     18  C   UNL     1     -13.893 -43.132  25.225  1.00  0.00     0.103 C 
BRANCH  18  19
ATOM     19  C   UNL     1     -15.091 -42.380  24.644  1.00  0.00     0.235 C 
BRANCH  19  20
ATOM     20  O   UNL     1     -16.250 -43.206  24.685  1.00  0.00    -0.493 OA
BRANCH  20  21
ATOM     21  C   UNL     1     -17.468 -42.643  24.939  1.00  0.00     0.123 A 
ATOM     22  C   UNL     1     -17.781 -42.545  26.301  1.00  0.00     0.047 A 
ATOM     23  C   UNL     1     -18.385 -42.184  23.993  1.00  0.00     0.094 A 
ATOM     24  C   UNL     1     -18.996 -41.997  26.721  1.00  0.00     0.020 A 
ATOM     25  C   UNL     1     -19.602 -41.634  24.409  1.00  0.00     0.141 A 
ATOM     26  C   UNL     1     -19.905 -41.541  25.767  1.00  0.00     0.065 A 
ATOM     27  O   UNL     1     -20.461 -41.201  23.425  1.00  0.00    -0.464 OA
ATOM     28  C   UNL     1     -21.196 -40.959  26.172  1.00  0.00     0.192 A 
ATOM     29  C   UNL     1     -21.658 -40.652  23.821  1.00  0.00     0.199 A 
ATOM     30  C   UNL     1     -22.074 -40.504  25.082  1.00  0.00     0.091 A 
ATOM     31  O   UNL     1     -21.529 -40.856  27.343  1.00  0.00    -0.289 OA
ENDBRANCH  20  21
ENDBRANCH  19  20
ENDBRANCH  18  19
ENDBRANCH  17  18
ENDBRANCH   1  17
TORSDOF 9
ENDMDL
MODEL 6
REMARK VINA RESULT:    -9.683      2.957     10.374
REMARK INTER + INTRA:         -15.525
REMARK INTER:                 -14.919
REMARK INTRA:                  -0.606
REMARK UNBOUND:                -0.747
REMARK SMILES CNC(=O)Oc1cccc(C[N@@H+](C)CCCOc2ccc3c(=O)ccoc3c2)c1
REMARK SMILES IDX 12 1 13 2 11 4 10 5 9 6 29 7 8 8 6 9 7 10 5 11 3 12 2 13
REMARK SMILES IDX 4 14 1 15 14 17 15 18 16 19 17 20 18 21 19 22 28 23 20 24
REMARK SMILES IDX 27 25 21 26 26 27 22 28 25 29 24 30 23 31
REMARK H PARENT 12 3 2 16
ROOT
ATOM      1  N   UNL     1     -12.351 -45.298  31.159  1.00  0.00    -0.334 N 
ATOM      2  C   UNL     1     -13.396 -46.352  31.431  1.00  0.00     0.333 C 
ATOM      3  H   UNL     1     -11.557 -45.529  31.769  1.00  0.00     0.348 HD
ENDROOT
BRANCH   1   4
ATOM      4  C   UNL     1     -12.823 -43.921  31.599  1.00  0.00     0.298 C 
BRANCH   4   5
ATOM      5  C   UNL     1     -11.852 -43.248  32.530  1.00  0.00     0.010 A 
ATOM      6  C   UNL     1     -12.312 -42.411  33.560  1.00  0.00     0.010 A 
ATOM      7  C   UNL     1     -10.472 -43.440  32.374  1.00  0.00     0.056 A 
ATOM      8  C   UNL     1     -11.407 -41.783  34.420  1.00  0.00     0.004 A 
ATOM      9  C   UNL     1      -9.579 -42.835  33.259  1.00  0.00     0.133 A 
ATOM     10  C   UNL     1     -10.038 -41.991  34.268  1.00  0.00     0.047 A 
BRANCH   9  11
ATOM     11  O   UNL     1      -8.184 -42.984  33.154  1.00  0.00    -0.410 OA
BRANCH  11  12
ATOM     12  C   UNL     1      -7.642 -43.592  32.026  1.00  0.00     0.412 C 
ATOM     13  N   UNL     1      -7.671 -44.948  32.183  1.00  0.00    -0.324 N 
ATOM     14  O   UNL     1      -7.206 -43.009  31.043  1.00  0.00    -0.224 OA
ATOM     15  C   UNL     1      -7.319 -45.846  31.115  1.00  0.00     0.146 C 
ATOM     16  H   UNL     1      -8.192 -45.298  32.976  1.00  0.00     0.166 HD
ENDBRANCH  11  12
ENDBRANCH   9  11
ENDBRANCH   4   5
ENDBRANCH   1   4
BRANCH   1  17
ATOM     17  C   UNL     1     -11.898 -45.323  29.714  1.00  0.00     0.265 C 
BRANCH  17  18
ATOM     18  C   UNL     1     -13.052 -45.638  28.767  1.00  0.00     0.103 C 
BRANCH  18  19
ATOM     19  C   UNL     1     -13.088 -44.725  27.542  1.00  0.00     0.235 C 
BRANCH  19  20
ATOM     20  O   UNL     1     -13.949 -43.618  27.786  1.00  0.00    -0.493 OA
BRANCH  20  21
ATOM     21  C   UNL     1     -14.940 -43.327  26.892  1.00  0.00     0.123 A 
ATOM     22  C   UNL     1     -14.609 -43.607  25.559  1.00  0.00     0.047 A 
ATOM     23  C   UNL     1     -16.196 -42.794  27.187  1.00  0.00     0.094 A 
ATOM     24  C   UNL     1     -15.517 -43.357  24.528  1.00  0.00     0.020 A 
ATOM     25  C   UNL     1     -17.107 -42.544  26.156  1.00  0.00     0.141 A 
ATOM     26  C   UNL     1     -16.770 -42.825  24.833  1.00  0.00     0.065 A 
ATOM     27  O   UNL     1     -18.327 -42.018  26.516  1.00  0.00    -0.464 OA
ATOM     28  C   UNL     1     -17.752 -42.548  23.771  1.00  0.00     0.192 A 
ATOM     29  C   UNL     1     -19.236 -41.774  25.512  1.00  0.00     0.199 A 
ATOM     30  C   UNL     1     -19.043 -41.994  24.209  1.00  0.00     0.091 A 
ATOM     31  O   UNL     1     -17.517 -42.761  22.591  1.00  0.00    -0.289 OA
ENDBRANCH  20  21
ENDBRANCH  19  20
ENDBRANCH  18  19
ENDBRANCH  17  18
ENDBRANCH   1  17
TORSDOF 9
ENDMDL
MODEL 7
REMARK VINA RESULT:    -9.557      2.745     11.522
REMARK INTER + INTRA:         -15.332
REMARK INTER:                 -14.706
REMARK INTRA:                  -0.626
REMARK UNBOUND:                -0.747
REMARK SMILES CNC(=O)Oc1cccc(C[N@@H+](C)CCCOc2ccc3c(=O)ccoc3c2)c1
REMARK SMILES IDX 12 1 13 2 11 4 10 5 9 6 29 7 8 8 6 9 7 10 5 11 3 12 2 13
REMARK SMILES IDX 4 14 1 15 14 17 15 18 16 19 17 20 18 21 19 22 28 23 20 24
REMARK SMILES IDX 27 25 21 26 26 27 22 28 25 29 24 30 23 31
REMARK H PARENT 12 3 2 16
ROOT
ATOM      1  N   UNL     1     -13.857 -44.036  27.008  1.00  0.00    -0.334 N 
ATOM      2  C   UNL     1     -12.717 -43.055  26.906  1.00  0.00     0.333 C 
ATOM      3  H   UNL     1     -14.379 -43.771  27.852  1.00  0.00     0.348 HD
ENDROOT
BRANCH   1   4
ATOM      4  C   UNL     1     -13.355 -45.450  27.260  1.00  0.00     0.298 C 
BRANCH   4   5
ATOM      5  C   UNL     1     -12.600 -45.572  28.555  1.00  0.00     0.010 A 
ATOM      6  C   UNL     1     -11.339 -46.191  28.592  1.00  0.00     0.010 A 
ATOM      7  C   UNL     1     -13.151 -45.077  29.745  1.00  0.00     0.056 A 
ATOM      8  C   UNL     1     -10.643 -46.307  29.798  1.00  0.00     0.004 A 
ATOM      9  C   UNL     1     -12.432 -45.168  30.938  1.00  0.00     0.133 A 
ATOM     10  C   UNL     1     -11.191 -45.800  30.974  1.00  0.00     0.047 A 
BRANCH   9  11
ATOM     11  O   UNL     1     -12.930 -44.696  32.166  1.00  0.00    -0.410 OA
BRANCH  11  12
ATOM     12  C   UNL     1     -13.189 -43.339  32.325  1.00  0.00     0.412 C 
ATOM     13  N   UNL     1     -14.418 -43.174  32.896  1.00  0.00    -0.324 N 
ATOM     14  O   UNL     1     -12.436 -42.428  32.007  1.00  0.00    -0.224 OA
ATOM     15  C   UNL     1     -14.893 -41.886  33.324  1.00  0.00     0.146 C 
ATOM     16  H   UNL     1     -14.868 -44.011  33.243  1.00  0.00     0.166 HD
ENDBRANCH  11  12
ENDBRANCH   9  11
ENDBRANCH   4   5
ENDBRANCH   1   4
BRANCH   1  17
ATOM     17  C   UNL     1     -14.774 -43.951  25.805  1.00  0.00     0.265 C 
BRANCH  17  18
ATOM     18  C   UNL     1     -15.521 -42.622  25.760  1.00  0.00     0.103 C 
BRANCH  18  19
ATOM     19  C   UNL     1     -16.956 -42.758  25.251  1.00  0.00     0.235 C 
BRANCH  19  20
ATOM     20  O   UNL     1     -16.996 -42.547  23.844  1.00  0.00    -0.493 OA
BRANCH  20  21
ATOM     21  C   UNL     1     -17.983 -41.771  23.307  1.00  0.00     0.123 A 
ATOM     22  C   UNL     1     -19.102 -41.614  24.136  1.00  0.00     0.047 A 
ATOM     23  C   UNL     1     -17.969 -41.155  22.055  1.00  0.00     0.094 A 
ATOM     24  C   UNL     1     -20.198 -40.853  23.725  1.00  0.00     0.020 A 
ATOM     25  C   UNL     1     -19.065 -40.392  21.640  1.00  0.00     0.141 A 
ATOM     26  C   UNL     1     -20.174 -40.241  22.472  1.00  0.00     0.065 A 
ATOM     27  O   UNL     1     -18.986 -39.812  20.395  1.00  0.00    -0.464 OA
ATOM     28  C   UNL     1     -21.312 -39.432  22.004  1.00  0.00     0.192 A 
ATOM     29  C   UNL     1     -20.054 -39.053  19.978  1.00  0.00     0.199 A 
ATOM     30  C   UNL     1     -21.175 -38.828  20.669  1.00  0.00     0.091 A 
ATOM     31  O   UNL     1     -22.319 -39.268  22.677  1.00  0.00    -0.289 OA
ENDBRANCH  20  21
ENDBRANCH  19  20
ENDBRANCH  18  19
ENDBRANCH  17  18
ENDBRANCH   1  17
TORSDOF 9
ENDMDL
MODEL 8
REMARK VINA RESULT:    -9.532      3.277      9.631
REMARK INTER + INTRA:         -15.295
REMARK INTER:                 -14.586
REMARK INTRA:                  -0.710
REMARK UNBOUND:                -0.747
REMARK SMILES CNC(=O)Oc1cccc(C[N@@H+](C)CCCOc2ccc3c(=O)ccoc3c2)c1
REMARK SMILES IDX 12 1 13 2 11 4 10 5 9 6 29 7 8 8 6 9 7 10 5 11 3 12 2 13
REMARK SMILES IDX 4 14 1 15 14 17 15 18 16 19 17 20 18 21 19 22 28 23 20 24
REMARK SMILES IDX 27 25 21 26 26 27 22 28 25 29 24 30 23 31
REMARK H PARENT 12 3 2 16
ROOT
ATOM      1  N   UNL     1     -13.212 -44.829  31.370  1.00  0.00    -0.334 N 
ATOM      2  C   UNL     1     -14.167 -44.897  32.535  1.00  0.00     0.333 C 
ATOM      3  H   UNL     1     -12.585 -45.636  31.476  1.00  0.00     0.348 HD
ENDROOT
BRANCH   1   4
ATOM      4  C   UNL     1     -12.319 -43.600  31.454  1.00  0.00     0.298 C 
BRANCH   4   5
ATOM      5  C   UNL     1     -10.869 -43.923  31.225  1.00  0.00     0.010 A 
ATOM      6  C   UNL     1     -10.276 -45.033  31.850  1.00  0.00     0.010 A 
ATOM      7  C   UNL     1     -10.085 -43.113  30.391  1.00  0.00     0.056 A 
ATOM      8  C   UNL     1      -8.927 -45.329  31.640  1.00  0.00     0.004 A 
ATOM      9  C   UNL     1      -8.747 -43.437  30.161  1.00  0.00     0.133 A 
ATOM     10  C   UNL     1      -8.159 -44.527  30.798  1.00  0.00     0.047 A 
BRANCH   9  11
ATOM     11  O   UNL     1      -7.906 -42.663  29.340  1.00  0.00    -0.410 OA
BRANCH  11  12
ATOM     12  C   UNL     1      -8.301 -42.369  28.039  1.00  0.00     0.412 C 
ATOM     13  N   UNL     1      -7.476 -41.411  27.521  1.00  0.00    -0.324 N 
ATOM     14  O   UNL     1      -9.237 -42.884  27.444  1.00  0.00    -0.224 OA
ATOM     15  C   UNL     1      -7.543 -41.016  26.139  1.00  0.00     0.146 C 
ATOM     16  H   UNL     1      -6.655 -41.182  28.065  1.00  0.00     0.166 HD
ENDBRANCH  11  12
ENDBRANCH   9  11
ENDBRANCH   4   5
ENDBRANCH   1   4
BRANCH   1  17
ATOM     17  C   UNL     1     -13.941 -44.929  30.046  1.00  0.00     0.265 C 
BRANCH  17  18
ATOM     18  C   UNL     1     -12.994 -45.305  28.910  1.00  0.00     0.103 C 
BRANCH  18  19
ATOM     19  C   UNL     1     -13.555 -44.969  27.528  1.00  0.00     0.235 C 
BRANCH  19  20
ATOM     20  O   UNL     1     -13.972 -43.608  27.491  1.00  0.00    -0.493 OA
BRANCH  20  21
ATOM     21  C   UNL     1     -15.075 -43.262  26.762  1.00  0.00     0.123 A 
ATOM     22  C   UNL     1     -14.919 -43.421  25.379  1.00  0.00     0.047 A 
ATOM     23  C   UNL     1     -16.285 -42.780  27.263  1.00  0.00     0.094 A 
ATOM     24  C   UNL     1     -15.957 -43.103  24.499  1.00  0.00     0.020 A 
ATOM     25  C   UNL     1     -17.326 -42.461  26.384  1.00  0.00     0.141 A 
ATOM     26  C   UNL     1     -17.162 -42.623  25.009  1.00  0.00     0.065 A 
ATOM     27  O   UNL     1     -18.492 -41.992  26.944  1.00  0.00    -0.464 OA
ATOM     28  C   UNL     1     -18.277 -42.276  24.113  1.00  0.00     0.192 A 
ATOM     29  C   UNL     1     -19.527 -41.681  26.092  1.00  0.00     0.199 A 
ATOM     30  C   UNL     1     -19.505 -41.786  24.761  1.00  0.00     0.091 A 
ATOM     31  O   UNL     1     -18.198 -42.383  22.898  1.00  0.00    -0.289 OA
ENDBRANCH  20  21
ENDBRANCH  19  20
ENDBRANCH  18  19
ENDBRANCH  17  18
ENDBRANCH   1  17
TORSDOF 9
ENDMDL
MODEL 9
REMARK VINA RESULT:    -9.303      2.378     11.276
REMARK INTER + INTRA:         -14.944
REMARK INTER:                 -14.510
REMARK INTRA:                  -0.434
REMARK UNBOUND:                -0.747
REMARK SMILES CNC(=O)Oc1cccc(C[N@@H+](C)CCCOc2ccc3c(=O)ccoc3c2)c1
REMARK SMILES IDX 12 1 13 2 11 4 10 5 9 6 29 7 8 8 6 9 7 10 5 11 3 12 2 13
REMARK SMILES IDX 4 14 1 15 14 17 15 18 16 19 17 20 18 21 19 22 28 23 20 24
REMARK SMILES IDX 27 25 21 26 26 27 22 28 25 29 24 30 23 31
REMARK H PARENT 12 3 2 16
ROOT
ATOM      1  N   UNL     1     -13.473 -44.915  28.475  1.00  0.00    -0.334 N 
ATOM      2  C   UNL     1     -13.915 -44.807  29.913  1.00  0.00     0.333 C 
ATOM      3  H   UNL     1     -13.392 -45.921  28.282  1.00  0.00     0.348 HD
ENDROOT
BRANCH   1   4
ATOM      4  C   UNL     1     -12.078 -44.343  28.276  1.00  0.00     0.298 C 
BRANCH   4   5
ATOM      5  C   UNL     1     -11.124 -44.757  29.362  1.00  0.00     0.010 A 
ATOM      6  C   UNL     1     -10.849 -46.115  29.593  1.00  0.00     0.010 A 
ATOM      7  C   UNL     1     -10.504 -43.791  30.167  1.00  0.00     0.056 A 
ATOM      8  C   UNL     1      -9.966 -46.498  30.606  1.00  0.00     0.004 A 
ATOM      9  C   UNL     1      -9.598 -44.183  31.154  1.00  0.00     0.133 A 
ATOM     10  C   UNL     1      -9.343 -45.531  31.392  1.00  0.00     0.047 A 
BRANCH   9  11
ATOM     11  O   UNL     1      -8.947 -43.264  31.998  1.00  0.00    -0.410 OA
BRANCH  11  12
ATOM     12  C   UNL     1      -9.562 -42.863  33.180  1.00  0.00     0.412 C 
ATOM     13  N   UNL     1      -8.614 -42.415  34.055  1.00  0.00    -0.324 N 
ATOM     14  O   UNL     1     -10.763 -42.901  33.407  1.00  0.00    -0.224 OA
ATOM     15  C   UNL     1      -8.964 -41.791  35.303  1.00  0.00     0.146 C 
ATOM     16  H   UNL     1      -7.680 -42.298  33.686  1.00  0.00     0.166 HD
ENDBRANCH  11  12
ENDBRANCH   9  11
ENDBRANCH   4   5
ENDBRANCH   1   4
BRANCH   1  17
ATOM     17  C   UNL     1     -14.491 -44.305  27.533  1.00  0.00     0.265 C 
BRANCH  17  18
ATOM     18  C   UNL     1     -13.819 -43.565  26.380  1.00  0.00     0.103 C 
BRANCH  18  19
ATOM     19  C   UNL     1     -14.357 -43.976  25.010  1.00  0.00     0.235 C 
BRANCH  19  20
ATOM     20  O   UNL     1     -14.509 -42.827  24.183  1.00  0.00    -0.493 OA
BRANCH  20  21
ATOM     21  C   UNL     1     -15.762 -42.386  23.866  1.00  0.00     0.123 A 
ATOM     22  C   UNL     1     -16.752 -42.774  24.778  1.00  0.00     0.047 A 
ATOM     23  C   UNL     1     -16.118 -41.620  22.756  1.00  0.00     0.094 A 
ATOM     24  C   UNL     1     -18.087 -42.406  24.588  1.00  0.00     0.020 A 
ATOM     25  C   UNL     1     -17.453 -41.249  22.563  1.00  0.00     0.141 A 
ATOM     26  C   UNL     1     -18.432 -41.640  23.475  1.00  0.00     0.065 A 
ATOM     27  O   UNL     1     -17.735 -40.494  21.448  1.00  0.00    -0.464 OA
ATOM     28  C   UNL     1     -19.828 -41.234  23.241  1.00  0.00     0.192 A 
ATOM     29  C   UNL     1     -19.043 -40.116  21.250  1.00  0.00     0.199 A 
ATOM     30  C   UNL     1     -20.076 -40.421  22.040  1.00  0.00     0.091 A 
ATOM     31  O   UNL     1     -20.737 -41.550  23.995  1.00  0.00    -0.289 OA
ENDBRANCH  20  21
ENDBRANCH  19  20
ENDBRANCH  18  19
ENDBRANCH  17  18
ENDBRANCH   1  17
TORSDOF 9
ENDMDL
