MODEL 1
REMARK VINA RESULT:    -7.478      0.000      0.000
REMARK INTER + INTRA:         -10.394
REMARK INTER:                  -9.882
REMARK INTRA:                  -0.512
REMARK UNBOUND:                -0.512
REMARK SMILES COc1cccc(OC)c1[C@H](C)NS(N)(=O)=O
REMARK SMILES IDX 11 1 12 2 10 3 3 4 4 5 5 6 7 7 6 8 2 9 1 10 8 11 9 12 13 13
REMARK SMILES IDX 14 15 16 16 17 17 15 18
REMARK H PARENT 13 14 15 19 15 20
ROOT
ATOM      1  C   UNL     1     -12.090 -46.042  28.760  1.00  0.00     0.105 C 
ATOM      2  C   UNL     1     -12.518 -46.619  27.408  1.00  0.00     0.031 C 
ENDROOT
BRANCH   1   3
ATOM      3  C   UNL     1     -11.354 -44.723  28.554  1.00  0.00     0.054 A 
ATOM      4  C   UNL     1     -11.953 -43.610  27.920  1.00  0.00     0.127 A 
ATOM      5  C   UNL     1     -11.217 -42.432  27.731  1.00  0.00     0.047 A 
ATOM      6  C   UNL     1      -9.888 -42.349  28.148  1.00  0.00     0.008 A 
ATOM      7  C   UNL     1     -10.017 -44.606  28.980  1.00  0.00     0.127 A 
ATOM      8  C   UNL     1      -9.285 -43.437  28.765  1.00  0.00     0.047 A 
BRANCH   4   9
ATOM      9  O   UNL     1     -13.259 -43.768  27.523  1.00  0.00    -0.496 OA
ATOM     10  C   UNL     1     -13.643 -43.199  26.275  1.00  0.00     0.278 C 
ENDBRANCH   4   9
BRANCH   7  11
ATOM     11  O   UNL     1      -9.398 -45.691  29.550  1.00  0.00    -0.496 OA
ATOM     12  C   UNL     1      -8.682 -45.309  30.728  1.00  0.00     0.278 C 
ENDBRANCH   7  11
ENDBRANCH   1   3
BRANCH   1  13
ATOM     13  N   UNL     1     -13.308 -45.934  29.605  1.00  0.00    -0.195 NA
ATOM     14  H   UNL     1     -13.842 -45.105  29.325  1.00  0.00     0.143 HD
BRANCH  13  15
ATOM     15  S   UNL     1     -13.098 -45.935  31.248  1.00  0.00     0.274 S 
ATOM     16  O   UNL     1     -11.803 -46.442  31.608  1.00  0.00    -0.195 OA
ATOM     17  O   UNL     1     -13.621 -44.694  31.760  1.00  0.00    -0.195 OA
BRANCH  15  18
ATOM     18  N   UNL     1     -14.222 -47.099  31.639  1.00  0.00    -0.216 NA
ATOM     19  H   UNL     1     -13.728 -47.975  31.811  1.00  0.00     0.138 HD
ATOM     20  H   UNL     1     -14.878 -47.198  30.865  1.00  0.00     0.138 HD
ENDBRANCH  15  18
ENDBRANCH  13  15
ENDBRANCH   1  13
TORSDOF 6
ENDMDL
MODEL 2
REMARK VINA RESULT:    -7.467      2.152      4.502
REMARK INTER + INTRA:         -10.380
REMARK INTER:                  -9.794
REMARK INTRA:                  -0.586
REMARK UNBOUND:                -0.512
REMARK SMILES COc1cccc(OC)c1[C@H](C)NS(N)(=O)=O
REMARK SMILES IDX 11 1 12 2 10 3 3 4 4 5 5 6 7 7 6 8 2 9 1 10 8 11 9 12 13 13
REMARK SMILES IDX 14 15 16 16 17 17 15 18
REMARK H PARENT 13 14 15 19 15 20
ROOT
ATOM      1  C   UNL     1     -11.044 -42.945  29.072  1.00  0.00     0.105 C 
ATOM      2  C   UNL     1     -10.022 -42.280  28.145  1.00  0.00     0.031 C 
ENDROOT
BRANCH   1   3
ATOM      3  C   UNL     1     -11.506 -44.269  28.475  1.00  0.00     0.054 A 
ATOM      4  C   UNL     1     -10.780 -45.471  28.640  1.00  0.00     0.127 A 
ATOM      5  C   UNL     1     -11.238 -46.654  28.043  1.00  0.00     0.047 A 
ATOM      6  C   UNL     1     -12.399 -46.656  27.268  1.00  0.00     0.008 A 
ATOM      7  C   UNL     1     -12.683 -44.304  27.702  1.00  0.00     0.127 A 
ATOM      8  C   UNL     1     -13.117 -45.480  27.091  1.00  0.00     0.047 A 
BRANCH   4   9
ATOM      9  O   UNL     1      -9.640 -45.392  29.403  1.00  0.00    -0.496 OA
ATOM     10  C   UNL     1      -9.357 -46.475  30.283  1.00  0.00     0.278 C 
ENDBRANCH   4   9
BRANCH   7  11
ATOM     11  O   UNL     1     -13.375 -43.138  27.484  1.00  0.00    -0.496 OA
ATOM     12  C   UNL     1     -13.909 -43.103  26.158  1.00  0.00     0.278 C 
ENDBRANCH   7  11
ENDBRANCH   1   3
BRANCH   1  13
ATOM     13  N   UNL     1     -10.416 -43.067  30.414  1.00  0.00    -0.195 NA
ATOM     14  H   UNL     1      -9.770 -43.863  30.413  1.00  0.00     0.143 HD
BRANCH  13  15
ATOM     15  S   UNL     1     -11.427 -43.170  31.722  1.00  0.00     0.274 S 
ATOM     16  O   UNL     1     -12.293 -42.026  31.802  1.00  0.00    -0.195 OA
ATOM     17  O   UNL     1     -11.911 -44.524  31.800  1.00  0.00    -0.195 OA
BRANCH  15  18
ATOM     18  N   UNL     1     -10.286 -43.024  32.926  1.00  0.00    -0.216 NA
ATOM     19  H   UNL     1     -10.755 -42.704  33.773  1.00  0.00     0.138 HD
ATOM     20  H   UNL     1      -9.577 -42.355  32.629  1.00  0.00     0.138 HD
ENDBRANCH  15  18
ENDBRANCH  13  15
ENDBRANCH   1  13
TORSDOF 6
ENDMDL
MODEL 3
REMARK VINA RESULT:    -7.385      0.106      3.129
REMARK INTER + INTRA:         -10.272
REMARK INTER:                  -9.774
REMARK INTRA:                  -0.497
REMARK UNBOUND:                -0.512
REMARK SMILES COc1cccc(OC)c1[C@H](C)NS(N)(=O)=O
REMARK SMILES IDX 11 1 12 2 10 3 3 4 4 5 5 6 7 7 6 8 2 9 1 10 8 11 9 12 13 13
REMARK SMILES IDX 14 15 16 16 17 17 15 18
REMARK H PARENT 13 14 15 19 15 20
ROOT
ATOM      1  C   UNL     1     -12.088 -46.033  28.738  1.00  0.00     0.105 C 
ATOM      2  C   UNL     1     -12.577 -46.605  27.404  1.00  0.00     0.031 C 
ENDROOT
BRANCH   1   3
ATOM      3  C   UNL     1     -11.318 -44.740  28.500  1.00  0.00     0.054 A 
ATOM      4  C   UNL     1      -9.968 -44.577  28.888  1.00  0.00     0.127 A 
ATOM      5  C   UNL     1      -9.319 -43.354  28.669  1.00  0.00     0.047 A 
ATOM      6  C   UNL     1      -9.997 -42.283  28.086  1.00  0.00     0.008 A 
ATOM      7  C   UNL     1     -11.973 -43.648  27.898  1.00  0.00     0.127 A 
ATOM      8  C   UNL     1     -11.326 -42.426  27.708  1.00  0.00     0.047 A 
BRANCH   4   9
ATOM      9  O   UNL     1      -9.367 -45.669  29.468  1.00  0.00    -0.496 OA
ATOM     10  C   UNL     1      -8.655 -45.462  30.684  1.00  0.00     0.278 C 
ENDBRANCH   4   9
BRANCH   7  11
ATOM     11  O   UNL     1     -13.300 -43.765  27.562  1.00  0.00    -0.496 OA
ATOM     12  C   UNL     1     -13.567 -43.125  26.312  1.00  0.00     0.278 C 
ENDBRANCH   7  11
ENDBRANCH   1   3
BRANCH   1  13
ATOM     13  N   UNL     1     -13.275 -45.882  29.620  1.00  0.00    -0.195 NA
ATOM     14  H   UNL     1     -13.769 -45.017  29.377  1.00  0.00     0.143 HD
BRANCH  13  15
ATOM     15  S   UNL     1     -13.021 -45.940  31.256  1.00  0.00     0.274 S 
ATOM     16  O   UNL     1     -11.758 -46.552  31.566  1.00  0.00    -0.195 OA
ATOM     17  O   UNL     1     -13.435 -44.678  31.811  1.00  0.00    -0.195 OA
BRANCH  15  18
ATOM     18  N   UNL     1     -14.218 -47.027  31.652  1.00  0.00    -0.216 NA
ATOM     19  H   UNL     1     -15.035 -46.503  31.963  1.00  0.00     0.138 HD
ATOM     20  H   UNL     1     -13.876 -47.640  32.390  1.00  0.00     0.138 HD
ENDBRANCH  15  18
ENDBRANCH  13  15
ENDBRANCH   1  13
TORSDOF 6
ENDMDL
MODEL 4
REMARK VINA RESULT:    -7.377      2.142      3.251
REMARK INTER + INTRA:         -10.260
REMARK INTER:                  -9.763
REMARK INTRA:                  -0.497
REMARK UNBOUND:                -0.512
REMARK SMILES COc1cccc(OC)c1[C@H](C)NS(N)(=O)=O
REMARK SMILES IDX 11 1 12 2 10 3 3 4 4 5 5 6 7 7 6 8 2 9 1 10 8 11 9 12 13 13
REMARK SMILES IDX 14 15 16 16 17 17 15 18
REMARK H PARENT 13 14 15 19 15 20
ROOT
ATOM      1  C   UNL     1     -11.174 -42.882  29.077  1.00  0.00     0.105 C 
ATOM      2  C   UNL     1     -10.194 -42.135  28.168  1.00  0.00     0.031 C 
ENDROOT
BRANCH   1   3
ATOM      3  C   UNL     1     -11.584 -44.199  28.430  1.00  0.00     0.054 A 
ATOM      4  C   UNL     1     -12.762 -44.332  27.659  1.00  0.00     0.127 A 
ATOM      5  C   UNL     1     -13.105 -45.577  27.112  1.00  0.00     0.047 A 
ATOM      6  C   UNL     1     -12.303 -46.696  27.334  1.00  0.00     0.008 A 
ATOM      7  C   UNL     1     -10.784 -45.342  28.625  1.00  0.00     0.127 A 
ATOM      8  C   UNL     1     -11.147 -46.582  28.097  1.00  0.00     0.047 A 
BRANCH   4   9
ATOM      9  O   UNL     1     -13.511 -43.192  27.493  1.00  0.00    -0.496 OA
ATOM     10  C   UNL     1     -14.287 -43.079  26.304  1.00  0.00     0.278 C 
ENDBRANCH   4   9
BRANCH   7  11
ATOM     11  O   UNL     1      -9.665 -45.249  29.414  1.00  0.00    -0.496 OA
ATOM     12  C   UNL     1      -9.484 -46.441  30.184  1.00  0.00     0.278 C 
ENDBRANCH   7  11
ENDBRANCH   1   3
BRANCH   1  13
ATOM     13  N   UNL     1     -10.525 -43.032  30.406  1.00  0.00    -0.195 NA
ATOM     14  H   UNL     1      -9.884 -43.832  30.381  1.00  0.00     0.143 HD
BRANCH  13  15
ATOM     15  S   UNL     1     -11.514 -43.150  31.729  1.00  0.00     0.274 S 
ATOM     16  O   UNL     1     -12.390 -42.015  31.827  1.00  0.00    -0.195 OA
ATOM     17  O   UNL     1     -11.984 -44.509  31.807  1.00  0.00    -0.195 OA
BRANCH  15  18
ATOM     18  N   UNL     1     -10.357 -42.998  32.916  1.00  0.00    -0.216 NA
ATOM     19  H   UNL     1     -10.829 -42.965  33.819  1.00  0.00     0.138 HD
ATOM     20  H   UNL     1      -9.825 -42.145  32.751  1.00  0.00     0.138 HD
ENDBRANCH  15  18
ENDBRANCH  13  15
ENDBRANCH   1  13
TORSDOF 6
ENDMDL
MODEL 5
REMARK VINA RESULT:    -7.289      3.664      5.062
REMARK INTER + INTRA:         -10.144
REMARK INTER:                  -9.407
REMARK INTRA:                  -0.737
REMARK UNBOUND:                -0.512
REMARK SMILES COc1cccc(OC)c1[C@H](C)NS(N)(=O)=O
REMARK SMILES IDX 11 1 12 2 10 3 3 4 4 5 5 6 7 7 6 8 2 9 1 10 8 11 9 12 13 13
REMARK SMILES IDX 14 15 16 16 17 17 15 18
REMARK H PARENT 13 14 15 19 15 20
ROOT
ATOM      1  C   UNL     1     -10.539 -42.914  30.409  1.00  0.00     0.105 C 
ATOM      2  C   UNL     1     -10.815 -42.423  28.985  1.00  0.00     0.031 C 
ENDROOT
BRANCH   1   3
ATOM      3  C   UNL     1     -11.543 -43.995  30.790  1.00  0.00     0.054 A 
ATOM      4  C   UNL     1     -11.497 -45.301  30.247  1.00  0.00     0.127 A 
ATOM      5  C   UNL     1     -12.465 -46.247  30.613  1.00  0.00     0.047 A 
ATOM      6  C   UNL     1     -13.490 -45.909  31.497  1.00  0.00     0.008 A 
ATOM      7  C   UNL     1     -12.579 -43.688  31.694  1.00  0.00     0.127 A 
ATOM      8  C   UNL     1     -13.553 -44.628  32.031  1.00  0.00     0.047 A 
BRANCH   4   9
ATOM      9  O   UNL     1     -10.469 -45.558  29.373  1.00  0.00    -0.496 OA
ATOM     10  C   UNL     1     -10.693 -46.531  28.357  1.00  0.00     0.278 C 
ENDBRANCH   4   9
BRANCH   7  11
ATOM     11  O   UNL     1     -12.676 -42.412  32.192  1.00  0.00    -0.496 OA
ATOM     12  C   UNL     1     -13.780 -42.299  33.094  1.00  0.00     0.278 C 
ENDBRANCH   7  11
ENDBRANCH   1   3
BRANCH   1  13
ATOM     13  N   UNL     1      -9.121 -43.353  30.464  1.00  0.00    -0.195 NA
ATOM     14  H   UNL     1      -8.988 -44.148  29.831  1.00  0.00     0.143 HD
BRANCH  13  15
ATOM     15  S   UNL     1      -8.492 -43.714  31.953  1.00  0.00     0.274 S 
ATOM     16  O   UNL     1      -9.099 -42.917  32.983  1.00  0.00    -0.195 OA
ATOM     17  O   UNL     1      -8.368 -45.146  32.044  1.00  0.00    -0.195 OA
BRANCH  15  18
ATOM     18  N   UNL     1      -6.948 -43.137  31.714  1.00  0.00    -0.216 NA
ATOM     19  H   UNL     1      -6.796 -42.359  32.355  1.00  0.00     0.138 HD
ATOM     20  H   UNL     1      -6.855 -42.835  30.746  1.00  0.00     0.138 HD
ENDBRANCH  15  18
ENDBRANCH  13  15
ENDBRANCH   1  13
TORSDOF 6
ENDMDL
MODEL 6
REMARK VINA RESULT:    -7.188      3.614      4.844
REMARK INTER + INTRA:         -10.012
REMARK INTER:                  -9.336
REMARK INTRA:                  -0.675
REMARK UNBOUND:                -0.512
REMARK SMILES COc1cccc(OC)c1[C@H](C)NS(N)(=O)=O
REMARK SMILES IDX 11 1 12 2 10 3 3 4 4 5 5 6 7 7 6 8 2 9 1 10 8 11 9 12 13 13
REMARK SMILES IDX 14 15 16 16 17 17 15 18
REMARK H PARENT 13 14 15 19 15 20
ROOT
ATOM      1  C   UNL     1     -10.530 -42.896  30.333  1.00  0.00     0.105 C 
ATOM      2  C   UNL     1     -10.753 -42.396  28.903  1.00  0.00     0.031 C 
ENDROOT
BRANCH   1   3
ATOM      3  C   UNL     1     -11.570 -43.954  30.683  1.00  0.00     0.054 A 
ATOM      4  C   UNL     1     -12.600 -43.725  31.624  1.00  0.00     0.127 A 
ATOM      5  C   UNL     1     -13.512 -44.746  31.928  1.00  0.00     0.047 A 
ATOM      6  C   UNL     1     -13.403 -45.999  31.323  1.00  0.00     0.008 A 
ATOM      7  C   UNL     1     -11.494 -45.223  30.076  1.00  0.00     0.127 A 
ATOM      8  C   UNL     1     -12.391 -46.241  30.404  1.00  0.00     0.047 A 
BRANCH   4   9
ATOM      9  O   UNL     1     -12.638 -42.473  32.190  1.00  0.00    -0.496 OA
ATOM     10  C   UNL     1     -13.574 -42.251  33.239  1.00  0.00     0.278 C 
ENDBRANCH   4   9
BRANCH   7  11
ATOM     11  O   UNL     1     -10.470 -45.486  29.199  1.00  0.00    -0.496 OA
ATOM     12  C   UNL     1     -10.845 -46.507  28.270  1.00  0.00     0.278 C 
ENDBRANCH   7  11
ENDBRANCH   1   3
BRANCH   1  13
ATOM     13  N   UNL     1      -9.124 -43.369  30.427  1.00  0.00    -0.195 NA
ATOM     14  H   UNL     1      -8.996 -44.173  29.804  1.00  0.00     0.143 HD
BRANCH  13  15
ATOM     15  S   UNL     1      -8.540 -43.731  31.934  1.00  0.00     0.274 S 
ATOM     16  O   UNL     1      -9.170 -42.926  32.944  1.00  0.00    -0.195 OA
ATOM     17  O   UNL     1      -8.432 -45.164  32.032  1.00  0.00    -0.195 OA
BRANCH  15  18
ATOM     18  N   UNL     1      -6.986 -43.168  31.737  1.00  0.00    -0.216 NA
ATOM     19  H   UNL     1      -6.985 -42.496  30.970  1.00  0.00     0.138 HD
ATOM     20  H   UNL     1      -6.373 -43.955  31.531  1.00  0.00     0.138 HD
ENDBRANCH  15  18
ENDBRANCH  13  15
ENDBRANCH   1  13
TORSDOF 6
ENDMDL
MODEL 7
REMARK VINA RESULT:    -7.118      2.909      4.008
REMARK INTER + INTRA:          -9.919
REMARK INTER:                  -9.300
REMARK INTRA:                  -0.619
REMARK UNBOUND:                -0.512
REMARK SMILES COc1cccc(OC)c1[C@H](C)NS(N)(=O)=O
REMARK SMILES IDX 11 1 12 2 10 3 3 4 4 5 5 6 7 7 6 8 2 9 1 10 8 11 9 12 13 13
REMARK SMILES IDX 14 15 16 16 17 17 15 18
REMARK H PARENT 13 14 15 19 15 20
ROOT
ATOM      1  C   UNL     1     -10.713 -43.763  30.154  1.00  0.00     0.105 C 
ATOM      2  C   UNL     1     -10.753 -42.555  29.213  1.00  0.00     0.031 C 
ENDROOT
BRANCH   1   3
ATOM      3  C   UNL     1     -10.266 -43.326  31.544  1.00  0.00     0.054 A 
ATOM      4  C   UNL     1     -11.125 -42.647  32.439  1.00  0.00     0.127 A 
ATOM      5  C   UNL     1     -10.650 -42.243  33.695  1.00  0.00     0.047 A 
ATOM      6  C   UNL     1      -9.328 -42.487  34.067  1.00  0.00     0.008 A 
ATOM      7  C   UNL     1      -8.941 -43.573  31.952  1.00  0.00     0.127 A 
ATOM      8  C   UNL     1      -8.471 -43.144  33.194  1.00  0.00     0.047 A 
BRANCH   4   9
ATOM      9  O   UNL     1     -12.409 -42.429  32.001  1.00  0.00    -0.496 OA
ATOM     10  C   UNL     1     -13.471 -42.678  32.917  1.00  0.00     0.278 C 
ENDBRANCH   4   9
BRANCH   7  11
ATOM     11  O   UNL     1      -8.074 -44.182  31.079  1.00  0.00    -0.496 OA
ATOM     12  C   UNL     1      -7.630 -45.440  31.596  1.00  0.00     0.278 C 
ENDBRANCH   7  11
ENDBRANCH   1   3
BRANCH   1  13
ATOM     13  N   UNL     1     -12.054 -44.402  30.118  1.00  0.00    -0.195 NA
ATOM     14  H   UNL     1     -12.658 -43.961  30.820  1.00  0.00     0.143 HD
BRANCH  13  15
ATOM     15  S   UNL     1     -12.119 -46.049  30.282  1.00  0.00     0.274 S 
ATOM     16  O   UNL     1     -11.375 -46.488  31.430  1.00  0.00    -0.195 OA
ATOM     17  O   UNL     1     -13.473 -46.464  30.022  1.00  0.00    -0.195 OA
BRANCH  15  18
ATOM     18  N   UNL     1     -11.246 -46.465  28.927  1.00  0.00    -0.216 NA
ATOM     19  H   UNL     1     -11.655 -47.310  28.530  1.00  0.00     0.138 HD
ATOM     20  H   UNL     1     -10.275 -46.622  29.194  1.00  0.00     0.138 HD
ENDBRANCH  15  18
ENDBRANCH  13  15
ENDBRANCH   1  13
TORSDOF 6
ENDMDL
MODEL 8
REMARK VINA RESULT:    -7.104      2.611      3.235
REMARK INTER + INTRA:          -9.900
REMARK INTER:                  -9.529
REMARK INTRA:                  -0.371
REMARK UNBOUND:                -0.512
REMARK SMILES COc1cccc(OC)c1[C@H](C)NS(N)(=O)=O
REMARK SMILES IDX 11 1 12 2 10 3 3 4 4 5 5 6 7 7 6 8 2 9 1 10 8 11 9 12 13 13
REMARK SMILES IDX 14 15 16 16 17 17 15 18
REMARK H PARENT 13 14 15 19 15 20
ROOT
ATOM      1  C   UNL     1     -12.925 -45.190  31.725  1.00  0.00     0.105 C 
ATOM      2  C   UNL     1     -13.900 -46.280  32.180  1.00  0.00     0.031 C 
ENDROOT
BRANCH   1   3
ATOM      3  C   UNL     1     -12.226 -45.621  30.440  1.00  0.00     0.054 A 
ATOM      4  C   UNL     1     -12.877 -45.620  29.184  1.00  0.00     0.127 A 
ATOM      5  C   UNL     1     -12.193 -46.054  28.040  1.00  0.00     0.047 A 
ATOM      6  C   UNL     1     -10.876 -46.507  28.128  1.00  0.00     0.008 A 
ATOM      7  C   UNL     1     -10.891 -46.067  30.497  1.00  0.00     0.127 A 
ATOM      8  C   UNL     1     -10.227 -46.521  29.357  1.00  0.00     0.047 A 
BRANCH   4   9
ATOM      9  O   UNL     1     -14.177 -45.174  29.175  1.00  0.00    -0.496 OA
ATOM     10  C   UNL     1     -14.563 -44.284  28.132  1.00  0.00     0.278 C 
ENDBRANCH   4   9
BRANCH   7  11
ATOM     11  O   UNL     1     -10.257 -46.127  31.713  1.00  0.00    -0.496 OA
ATOM     12  C   UNL     1      -9.215 -45.151  31.793  1.00  0.00     0.278 C 
ENDBRANCH   7  11
ENDBRANCH   1   3
BRANCH   1  13
ATOM     13  N   UNL     1     -13.694 -43.925  31.605  1.00  0.00    -0.195 NA
ATOM     14  H   UNL     1     -13.450 -43.463  30.723  1.00  0.00     0.143 HD
BRANCH  13  15
ATOM     15  S   UNL     1     -13.577 -42.842  32.853  1.00  0.00     0.274 S 
ATOM     16  O   UNL     1     -12.244 -42.803  33.387  1.00  0.00    -0.195 OA
ATOM     17  O   UNL     1     -14.303 -41.656  32.477  1.00  0.00    -0.195 OA
BRANCH  15  18
ATOM     18  N   UNL     1     -14.540 -43.634  33.957  1.00  0.00    -0.216 NA
ATOM     19  H   UNL     1     -14.970 -42.937  34.564  1.00  0.00     0.138 HD
ATOM     20  H   UNL     1     -13.963 -44.279  34.495  1.00  0.00     0.138 HD
ENDBRANCH  15  18
ENDBRANCH  13  15
ENDBRANCH   1  13
TORSDOF 6
ENDMDL
MODEL 9
REMARK VINA RESULT:    -6.990      4.012      5.811
REMARK INTER + INTRA:          -9.750
REMARK INTER:                  -8.998
REMARK INTRA:                  -0.752
REMARK UNBOUND:                -0.512
REMARK SMILES COc1cccc(OC)c1[C@H](C)NS(N)(=O)=O
REMARK SMILES IDX 11 1 12 2 10 3 3 4 4 5 5 6 7 7 6 8 2 9 1 10 8 11 9 12 13 13
REMARK SMILES IDX 14 15 16 16 17 17 15 18
REMARK H PARENT 13 14 15 19 15 20
ROOT
ATOM      1  C   UNL     1     -10.549 -44.407  30.921  1.00  0.00     0.105 C 
ATOM      2  C   UNL     1     -10.520 -45.879  31.343  1.00  0.00     0.031 C 
ENDROOT
BRANCH   1   3
ATOM      3  C   UNL     1     -10.544 -43.512  32.153  1.00  0.00     0.054 A 
ATOM      4  C   UNL     1      -9.392 -43.323  32.951  1.00  0.00     0.127 A 
ATOM      5  C   UNL     1      -9.455 -42.510  34.092  1.00  0.00     0.047 A 
ATOM      6  C   UNL     1     -10.652 -41.895  34.462  1.00  0.00     0.008 A 
ATOM      7  C   UNL     1     -11.735 -42.866  32.541  1.00  0.00     0.127 A 
ATOM      8  C   UNL     1     -11.793 -42.079  33.693  1.00  0.00     0.047 A 
BRANCH   4   9
ATOM      9  O   UNL     1      -8.253 -43.969  32.535  1.00  0.00    -0.496 OA
ATOM     10  C   UNL     1      -7.010 -43.296  32.709  1.00  0.00     0.278 C 
ENDBRANCH   4   9
BRANCH   7  11
ATOM     11  O   UNL     1     -12.879 -43.077  31.813  1.00  0.00    -0.496 OA
ATOM     12  C   UNL     1     -13.882 -43.709  32.613  1.00  0.00     0.278 C 
ENDBRANCH   7  11
ENDBRANCH   1   3
BRANCH   1  13
ATOM     13  N   UNL     1      -9.403 -44.184  30.001  1.00  0.00    -0.195 NA
ATOM     14  H   UNL     1      -8.527 -44.254  30.529  1.00  0.00     0.143 HD
BRANCH  13  15
ATOM     15  S   UNL     1      -9.405 -42.792  29.104  1.00  0.00     0.274 S 
ATOM     16  O   UNL     1     -10.702 -42.173  29.106  1.00  0.00    -0.195 OA
ATOM     17  O   UNL     1      -8.195 -42.072  29.405  1.00  0.00    -0.195 OA
BRANCH  15  18
ATOM     18  N   UNL     1      -9.172 -43.468  27.601  1.00  0.00    -0.216 NA
ATOM     19  H   UNL     1     -10.036 -43.931  27.322  1.00  0.00     0.138 HD
ATOM     20  H   UNL     1      -8.403 -44.134  27.654  1.00  0.00     0.138 HD
ENDBRANCH  15  18
ENDBRANCH  13  15
ENDBRANCH   1  13
TORSDOF 6
ENDMDL
