MODEL 1
REMARK VINA RESULT:   -10.446      0.000      0.000
REMARK INTER + INTRA:         -15.967
REMARK INTER:                 -15.332
REMARK INTRA:                  -0.635
REMARK UNBOUND:                -0.635
REMARK SMILES COc1cc2c(cc1OC)S[C@H](C(=O)CCc1cc[n+](Cc3ccsc3)cc1)C2
REMARK SMILES IDX 15 1 13 2 14 3 12 4 3 5 4 6 8 7 5 8 7 9 6 10 29 11 11 12
REMARK SMILES IDX 2 13 1 14 9 15 10 16 16 17 17 18 18 19 28 20 19 21 27 22
REMARK SMILES IDX 20 23 21 24 22 25 23 26 26 27 24 28 25 29
REMARK H PARENT
ROOT
ATOM      1  C   UNL     1     -13.242 -44.997  27.702  1.00  0.00     0.081 C 
ENDROOT
BRANCH   1   2
ATOM      2  C   UNL     1     -11.959 -45.227  28.487  1.00  0.00     0.146 C 
ATOM      3  O   UNL     1     -10.952 -44.569  28.200  1.00  0.00    -0.298 OA
BRANCH   2   4
ATOM      4  C   UNL     1     -11.952 -46.186  29.686  1.00  0.00     0.123 C 
ATOM      5  C   UNL     1     -13.018 -42.772  32.841  1.00  0.00     0.161 A 
ATOM      6  C   UNL     1     -13.575 -43.786  32.053  1.00  0.00     0.055 A 
ATOM      7  C   UNL     1     -11.627 -42.770  33.084  1.00  0.00     0.161 A 
ATOM      8  C   UNL     1     -12.731 -44.738  31.485  1.00  0.00    -0.029 A 
ATOM      9  C   UNL     1     -10.786 -43.726  32.518  1.00  0.00     0.065 A 
ATOM     10  C   UNL     1     -11.354 -44.692  31.711  1.00  0.00     0.015 A 
ATOM     11  C   UNL     1     -13.157 -45.889  30.606  1.00  0.00     0.059 C 
ATOM     12  S   UNL     1     -10.500 -45.917  30.772  1.00  0.00    -0.114 SA
BRANCH   5  13
ATOM     13  O   UNL     1     -13.725 -41.714  33.347  1.00  0.00    -0.493 OA
ATOM     14  C   UNL     1     -15.130 -41.726  33.104  1.00  0.00     0.278 C 
ENDBRANCH   5  13
BRANCH   7  15
ATOM     15  O   UNL     1     -11.027 -41.759  33.798  1.00  0.00    -0.493 OA
ATOM     16  C   UNL     1      -9.798 -42.231  34.366  1.00  0.00     0.278 C 
ENDBRANCH   7  15
ENDBRANCH   2   4
ENDBRANCH   1   2
BRANCH   1  17
ATOM     17  C   UNL     1     -13.171 -43.703  26.883  1.00  0.00     0.044 C 
BRANCH  17  18
ATOM     18  C   UNL     1     -14.472 -43.346  26.193  1.00  0.00    -0.036 A 
ATOM     19  C   UNL     1     -14.573 -43.411  24.801  1.00  0.00     0.074 A 
ATOM     20  C   UNL     1     -15.602 -42.974  26.918  1.00  0.00     0.074 A 
ATOM     21  C   UNL     1     -15.777 -43.112  24.175  1.00  0.00     0.308 A 
ATOM     22  C   UNL     1     -16.787 -42.674  26.249  1.00  0.00     0.308 A 
ATOM     23  N   UNL     1     -16.857 -42.745  24.901  1.00  0.00    -0.201 N 
BRANCH  23  24
ATOM     24  C   UNL     1     -18.126 -42.421  24.204  1.00  0.00     0.394 C 
BRANCH  24  25
ATOM     25  C   UNL     1     -19.275 -42.551  25.158  1.00  0.00     0.027 A 
ATOM     26  C   UNL     1     -19.706 -41.518  26.060  1.00  0.00     0.022 A 
ATOM     27  C   UNL     1     -20.075 -43.673  25.288  1.00  0.00     0.075 A 
ATOM     28  C   UNL     1     -20.780 -41.901  26.832  1.00  0.00     0.065 A 
ATOM     29  S   UNL     1     -21.286 -43.493  26.482  1.00  0.00    -0.152 S 
ENDBRANCH  24  25
ENDBRANCH  23  24
ENDBRANCH  17  18
ENDBRANCH   1  17
TORSDOF 8
ENDMDL
MODEL 2
REMARK VINA RESULT:    -9.890      2.118      2.503
REMARK INTER + INTRA:         -15.151
REMARK INTER:                 -14.185
REMARK INTRA:                  -0.966
REMARK UNBOUND:                -0.635
REMARK SMILES COc1cc2c(cc1OC)S[C@H](C(=O)CCc1cc[n+](Cc3ccsc3)cc1)C2
REMARK SMILES IDX 15 1 13 2 14 3 12 4 3 5 4 6 8 7 5 8 7 9 6 10 29 11 11 12
REMARK SMILES IDX 2 13 1 14 9 15 10 16 16 17 17 18 18 19 28 20 19 21 27 22
REMARK SMILES IDX 20 23 21 24 22 25 23 26 26 27 24 28 25 29
REMARK H PARENT
ROOT
ATOM      1  C   UNL     1     -14.435 -44.009  26.621  1.00  0.00     0.081 C 
ENDROOT
BRANCH   1   2
ATOM      2  C   UNL     1     -13.060 -43.934  27.271  1.00  0.00     0.146 C 
ATOM      3  O   UNL     1     -12.472 -42.847  27.310  1.00  0.00    -0.298 OA
BRANCH   2   4
ATOM      4  C   UNL     1     -12.467 -45.171  27.961  1.00  0.00     0.123 C 
ATOM      5  C   UNL     1     -13.240 -43.495  32.358  1.00  0.00     0.161 A 
ATOM      6  C   UNL     1     -13.771 -44.324  31.363  1.00  0.00     0.055 A 
ATOM      7  C   UNL     1     -11.881 -43.120  32.293  1.00  0.00     0.161 A 
ATOM      8  C   UNL     1     -12.954 -44.714  30.305  1.00  0.00    -0.029 A 
ATOM      9  C   UNL     1     -11.064 -43.516  31.236  1.00  0.00     0.065 A 
ATOM     10  C   UNL     1     -11.623 -44.299  30.245  1.00  0.00     0.015 A 
ATOM     11  C   UNL     1     -13.362 -45.594  29.147  1.00  0.00     0.059 C 
ATOM     12  S   UNL     1     -10.849 -44.810  28.744  1.00  0.00    -0.114 SA
BRANCH   5  13
ATOM     13  O   UNL     1     -13.975 -42.946  33.376  1.00  0.00    -0.493 OA
ATOM     14  C   UNL     1     -14.869 -41.898  33.008  1.00  0.00     0.278 C 
ENDBRANCH   5  13
BRANCH   7  15
ATOM     15  O   UNL     1     -11.332 -42.257  33.212  1.00  0.00    -0.493 OA
ATOM     16  C   UNL     1     -10.026 -42.713  33.586  1.00  0.00     0.278 C 
ENDBRANCH   7  15
ENDBRANCH   2   4
ENDBRANCH   1   2
BRANCH   1  17
ATOM     17  C   UNL     1     -15.050 -42.615  26.455  1.00  0.00     0.044 C 
BRANCH  17  18
ATOM     18  C   UNL     1     -16.410 -42.625  25.786  1.00  0.00    -0.036 A 
ATOM     19  C   UNL     1     -16.517 -42.844  24.411  1.00  0.00     0.074 A 
ATOM     20  C   UNL     1     -17.583 -42.448  26.518  1.00  0.00     0.074 A 
ATOM     21  C   UNL     1     -17.768 -42.883  23.807  1.00  0.00     0.308 A 
ATOM     22  C   UNL     1     -18.816 -42.485  25.870  1.00  0.00     0.308 A 
ATOM     23  N   UNL     1     -18.891 -42.699  24.537  1.00  0.00    -0.201 N 
BRANCH  23  24
ATOM     24  C   UNL     1     -20.212 -42.735  23.863  1.00  0.00     0.394 C 
BRANCH  24  25
ATOM     25  C   UNL     1     -20.299 -41.624  22.859  1.00  0.00     0.027 A 
ATOM     26  C   UNL     1     -20.232 -40.226  23.184  1.00  0.00     0.022 A 
ATOM     27  C   UNL     1     -20.442 -41.799  21.494  1.00  0.00     0.075 A 
ATOM     28  C   UNL     1     -20.344 -39.416  22.075  1.00  0.00     0.065 A 
ATOM     29  S   UNL     1     -20.525 -40.320  20.639  1.00  0.00    -0.152 S 
ENDBRANCH  24  25
ENDBRANCH  23  24
ENDBRANCH  17  18
ENDBRANCH   1  17
TORSDOF 8
ENDMDL
MODEL 3
REMARK VINA RESULT:    -9.405      3.859      9.411
REMARK INTER + INTRA:         -14.439
REMARK INTER:                 -13.747
REMARK INTRA:                  -0.692
REMARK UNBOUND:                -0.635
REMARK SMILES COc1cc2c(cc1OC)S[C@H](C(=O)CCc1cc[n+](Cc3ccsc3)cc1)C2
REMARK SMILES IDX 15 1 13 2 14 3 12 4 3 5 4 6 8 7 5 8 7 9 6 10 29 11 11 12
REMARK SMILES IDX 2 13 1 14 9 15 10 16 16 17 17 18 18 19 28 20 19 21 27 22
REMARK SMILES IDX 20 23 21 24 22 25 23 26 26 27 24 28 25 29
REMARK H PARENT
ROOT
ATOM      1  C   UNL     1     -14.150 -44.891  27.083  1.00  0.00     0.081 C 
ENDROOT
BRANCH   1   2
ATOM      2  C   UNL     1     -14.317 -44.274  25.702  1.00  0.00     0.146 C 
ATOM      3  O   UNL     1     -14.453 -45.017  24.723  1.00  0.00    -0.298 OA
BRANCH   2   4
ATOM      4  C   UNL     1     -14.423 -42.749  25.549  1.00  0.00     0.123 C 
ATOM      5  C   UNL     1     -19.187 -42.728  25.762  1.00  0.00     0.161 A 
ATOM      6  C   UNL     1     -18.028 -42.555  26.528  1.00  0.00     0.055 A 
ATOM      7  C   UNL     1     -19.101 -42.668  24.355  1.00  0.00     0.161 A 
ATOM      8  C   UNL     1     -16.809 -42.381  25.876  1.00  0.00    -0.029 A 
ATOM      9  C   UNL     1     -17.881 -42.489  23.705  1.00  0.00     0.065 A 
ATOM     10  C   UNL     1     -16.746 -42.363  24.482  1.00  0.00     0.015 A 
ATOM     11  C   UNL     1     -15.467 -42.191  26.540  1.00  0.00     0.059 C 
ATOM     12  S   UNL     1     -15.081 -42.269  23.907  1.00  0.00    -0.114 SA
BRANCH   5  13
ATOM     13  O   UNL     1     -20.416 -43.032  26.284  1.00  0.00    -0.493 OA
ATOM     14  C   UNL     1     -21.138 -41.946  26.862  1.00  0.00     0.278 C 
ENDBRANCH   5  13
BRANCH   7  15
ATOM     15  O   UNL     1     -20.200 -42.896  23.560  1.00  0.00    -0.493 OA
ATOM     16  C   UNL     1     -19.980 -42.339  22.258  1.00  0.00     0.278 C 
ENDBRANCH   7  15
ENDBRANCH   2   4
ENDBRANCH   1   2
BRANCH   1  17
ATOM     17  C   UNL     1     -12.997 -45.902  27.107  1.00  0.00     0.044 C 
BRANCH  17  18
ATOM     18  C   UNL     1     -11.874 -45.523  28.051  1.00  0.00    -0.036 A 
ATOM     19  C   UNL     1     -11.213 -46.507  28.790  1.00  0.00     0.074 A 
ATOM     20  C   UNL     1     -11.452 -44.202  28.187  1.00  0.00     0.074 A 
ATOM     21  C   UNL     1     -10.163 -46.158  29.632  1.00  0.00     0.308 A 
ATOM     22  C   UNL     1     -10.402 -43.895  29.049  1.00  0.00     0.308 A 
ATOM     23  N   UNL     1      -9.779 -44.867  29.754  1.00  0.00    -0.201 N 
BRANCH  23  24
ATOM     24  C   UNL     1      -8.662 -44.524  30.668  1.00  0.00     0.394 C 
BRANCH  24  25
ATOM     25  C   UNL     1      -9.196 -43.805  31.871  1.00  0.00     0.027 A 
ATOM     26  C   UNL     1     -10.591 -43.659  32.180  1.00  0.00     0.022 A 
ATOM     27  C   UNL     1      -8.418 -43.199  32.842  1.00  0.00     0.075 A 
ATOM     28  C   UNL     1     -10.808 -42.948  33.340  1.00  0.00     0.065 A 
ATOM     29  S   UNL     1      -9.346 -42.454  34.070  1.00  0.00    -0.152 S 
ENDBRANCH  24  25
ENDBRANCH  23  24
ENDBRANCH  17  18
ENDBRANCH   1  17
TORSDOF 8
ENDMDL
MODEL 4
REMARK VINA RESULT:    -9.400      2.000      2.684
REMARK INTER + INTRA:         -14.431
REMARK INTER:                 -14.236
REMARK INTRA:                  -0.195
REMARK UNBOUND:                -0.635
REMARK SMILES COc1cc2c(cc1OC)S[C@H](C(=O)CCc1cc[n+](Cc3ccsc3)cc1)C2
REMARK SMILES IDX 15 1 13 2 14 3 12 4 3 5 4 6 8 7 5 8 7 9 6 10 29 11 11 12
REMARK SMILES IDX 2 13 1 14 9 15 10 16 16 17 17 18 18 19 28 20 19 21 27 22
REMARK SMILES IDX 20 23 21 24 22 25 23 26 26 27 24 28 25 29
REMARK H PARENT
ROOT
ATOM      1  C   UNL     1     -11.857 -45.942  27.637  1.00  0.00     0.081 C 
ENDROOT
BRANCH   1   2
ATOM      2  C   UNL     1     -10.900 -45.604  28.771  1.00  0.00     0.146 C 
ATOM      3  O   UNL     1     -10.275 -44.537  28.733  1.00  0.00    -0.298 OA
BRANCH   2   4
ATOM      4  C   UNL     1     -10.798 -46.528  29.992  1.00  0.00     0.123 C 
ATOM      5  C   UNL     1      -9.995 -42.952  33.044  1.00  0.00     0.161 A 
ATOM      6  C   UNL     1     -10.997 -43.779  32.521  1.00  0.00     0.055 A 
ATOM      7  C   UNL     1      -8.642 -43.325  32.892  1.00  0.00     0.161 A 
ATOM      8  C   UNL     1     -10.627 -44.923  31.818  1.00  0.00    -0.029 A 
ATOM      9  C   UNL     1      -8.275 -44.472  32.193  1.00  0.00     0.065 A 
ATOM     10  C   UNL     1      -9.280 -45.249  31.651  1.00  0.00     0.015 A 
ATOM     11  C   UNL     1     -11.569 -45.917  31.183  1.00  0.00     0.059 C 
ATOM     12  S   UNL     1      -9.077 -46.660  30.611  1.00  0.00    -0.114 SA
BRANCH   5  13
ATOM     13  O   UNL     1     -10.230 -41.742  33.641  1.00  0.00    -0.493 OA
ATOM     14  C   UNL     1     -10.303 -41.750  35.065  1.00  0.00     0.278 C 
ENDBRANCH   5  13
BRANCH   7  15
ATOM     15  O   UNL     1      -7.623 -42.513  33.332  1.00  0.00    -0.493 OA
ATOM     16  C   UNL     1      -6.363 -43.164  33.128  1.00  0.00     0.278 C 
ENDBRANCH   7  15
ENDBRANCH   2   4
ENDBRANCH   1   2
BRANCH   1  17
ATOM     17  C   UNL     1     -13.267 -45.409  27.920  1.00  0.00     0.044 C 
BRANCH  17  18
ATOM     18  C   UNL     1     -13.807 -44.504  26.831  1.00  0.00    -0.036 A 
ATOM     19  C   UNL     1     -14.135 -45.028  25.578  1.00  0.00     0.074 A 
ATOM     20  C   UNL     1     -14.016 -43.144  27.052  1.00  0.00     0.074 A 
ATOM     21  C   UNL     1     -14.657 -44.199  24.592  1.00  0.00     0.308 A 
ATOM     22  C   UNL     1     -14.533 -42.348  26.032  1.00  0.00     0.308 A 
ATOM     23  N   UNL     1     -14.842 -42.881  24.828  1.00  0.00    -0.201 N 
BRANCH  23  24
ATOM     24  C   UNL     1     -15.392 -42.019  23.752  1.00  0.00     0.394 C 
BRANCH  24  25
ATOM     25  C   UNL     1     -16.889 -42.093  23.760  1.00  0.00     0.027 A 
ATOM     26  C   UNL     1     -17.730 -41.702  22.662  1.00  0.00     0.022 A 
ATOM     27  C   UNL     1     -17.655 -42.556  24.816  1.00  0.00     0.075 A 
ATOM     28  C   UNL     1     -19.070 -41.864  22.934  1.00  0.00     0.065 A 
ATOM     29  S   UNL     1     -19.334 -42.490  24.500  1.00  0.00    -0.152 S 
ENDBRANCH  24  25
ENDBRANCH  23  24
ENDBRANCH  17  18
ENDBRANCH   1  17
TORSDOF 8
ENDMDL
MODEL 5
REMARK VINA RESULT:    -9.069      2.560      3.595
REMARK INTER + INTRA:         -13.945
REMARK INTER:                 -13.733
REMARK INTRA:                  -0.213
REMARK UNBOUND:                -0.635
REMARK SMILES COc1cc2c(cc1OC)S[C@H](C(=O)CCc1cc[n+](Cc3ccsc3)cc1)C2
REMARK SMILES IDX 15 1 13 2 14 3 12 4 3 5 4 6 8 7 5 8 7 9 6 10 29 11 11 12
REMARK SMILES IDX 2 13 1 14 9 15 10 16 16 17 17 18 18 19 28 20 19 21 27 22
REMARK SMILES IDX 20 23 21 24 22 25 23 26 26 27 24 28 25 29
REMARK H PARENT
ROOT
ATOM      1  C   UNL     1     -14.030 -42.687  25.865  1.00  0.00     0.081 C 
ENDROOT
BRANCH   1   2
ATOM      2  C   UNL     1     -13.283 -43.525  26.893  1.00  0.00     0.146 C 
ATOM      3  O   UNL     1     -12.219 -43.098  27.359  1.00  0.00    -0.298 OA
BRANCH   2   4
ATOM      4  C   UNL     1     -13.902 -44.828  27.420  1.00  0.00     0.123 C 
ATOM      5  C   UNL     1     -11.347 -44.802  31.446  1.00  0.00     0.161 A 
ATOM      6  C   UNL     1     -12.587 -44.451  30.902  1.00  0.00     0.055 A 
ATOM      7  C   UNL     1     -10.516 -45.706  30.749  1.00  0.00     0.161 A 
ATOM      8  C   UNL     1     -12.946 -44.964  29.658  1.00  0.00    -0.029 A 
ATOM      9  C   UNL     1     -10.880 -46.222  29.507  1.00  0.00     0.065 A 
ATOM     10  C   UNL     1     -12.090 -45.828  28.972  1.00  0.00     0.015 A 
ATOM     11  C   UNL     1     -14.234 -44.686  28.921  1.00  0.00     0.059 C 
ATOM     12  S   UNL     1     -12.712 -46.222  27.369  1.00  0.00    -0.114 SA
BRANCH   5  13
ATOM     13  O   UNL     1     -10.831 -44.265  32.596  1.00  0.00    -0.493 OA
ATOM     14  C   UNL     1     -11.009 -42.860  32.767  1.00  0.00     0.278 C 
ENDBRANCH   5  13
BRANCH   7  15
ATOM     15  O   UNL     1      -9.263 -46.030  31.214  1.00  0.00    -0.493 OA
ATOM     16  C   UNL     1      -8.301 -45.098  30.703  1.00  0.00     0.278 C 
ENDBRANCH   7  15
ENDBRANCH   2   4
ENDBRANCH   1   2
BRANCH   1  17
ATOM     17  C   UNL     1     -14.795 -43.572  24.874  1.00  0.00     0.044 C 
BRANCH  17  18
ATOM     18  C   UNL     1     -16.214 -43.107  24.612  1.00  0.00    -0.036 A 
ATOM     19  C   UNL     1     -16.716 -43.078  23.309  1.00  0.00     0.074 A 
ATOM     20  C   UNL     1     -17.059 -42.727  25.652  1.00  0.00     0.074 A 
ATOM     21  C   UNL     1     -18.027 -42.680  23.076  1.00  0.00     0.308 A 
ATOM     22  C   UNL     1     -18.363 -42.325  25.373  1.00  0.00     0.308 A 
ATOM     23  N   UNL     1     -18.824 -42.306  24.102  1.00  0.00    -0.201 N 
BRANCH  23  24
ATOM     24  C   UNL     1     -20.216 -41.875  23.822  1.00  0.00     0.394 C 
BRANCH  24  25
ATOM     25  C   UNL     1     -20.260 -41.109  22.534  1.00  0.00     0.027 A 
ATOM     26  C   UNL     1     -20.040 -39.693  22.420  1.00  0.00     0.022 A 
ATOM     27  C   UNL     1     -20.505 -41.663  21.290  1.00  0.00     0.075 A 
ATOM     28  C   UNL     1     -20.144 -39.242  21.123  1.00  0.00     0.065 A 
ATOM     29  S   UNL     1     -20.500 -40.505  20.032  1.00  0.00    -0.152 S 
ENDBRANCH  24  25
ENDBRANCH  23  24
ENDBRANCH  17  18
ENDBRANCH   1  17
TORSDOF 8
ENDMDL
MODEL 6
REMARK VINA RESULT:    -9.006      1.853      2.754
REMARK INTER + INTRA:         -13.853
REMARK INTER:                 -13.681
REMARK INTRA:                  -0.173
REMARK UNBOUND:                -0.635
REMARK SMILES COc1cc2c(cc1OC)S[C@H](C(=O)CCc1cc[n+](Cc3ccsc3)cc1)C2
REMARK SMILES IDX 15 1 13 2 14 3 12 4 3 5 4 6 8 7 5 8 7 9 6 10 29 11 11 12
REMARK SMILES IDX 2 13 1 14 9 15 10 16 16 17 17 18 18 19 28 20 19 21 27 22
REMARK SMILES IDX 20 23 21 24 22 25 23 26 26 27 24 28 25 29
REMARK H PARENT
ROOT
ATOM      1  C   UNL     1     -13.981 -44.475  26.389  1.00  0.00     0.081 C 
ENDROOT
BRANCH   1   2
ATOM      2  C   UNL     1     -13.141 -44.465  27.658  1.00  0.00     0.146 C 
ATOM      3  O   UNL     1     -12.631 -43.402  28.034  1.00  0.00    -0.298 OA
BRANCH   2   4
ATOM      4  C   UNL     1     -13.025 -45.735  28.513  1.00  0.00     0.123 C 
ATOM      5  C   UNL     1     -10.194 -43.686  31.758  1.00  0.00     0.161 A 
ATOM      6  C   UNL     1     -11.525 -44.016  31.478  1.00  0.00     0.055 A 
ATOM      7  C   UNL     1      -9.158 -44.314  31.033  1.00  0.00     0.161 A 
ATOM      8  C   UNL     1     -11.793 -44.918  30.451  1.00  0.00    -0.029 A 
ATOM      9  C   UNL     1      -9.429 -45.220  30.010  1.00  0.00     0.065 A 
ATOM     10  C   UNL     1     -10.752 -45.497  29.724  1.00  0.00     0.015 A 
ATOM     11  C   UNL     1     -13.162 -45.378  30.010  1.00  0.00     0.059 C 
ATOM     12  S   UNL     1     -11.358 -46.489  28.397  1.00  0.00    -0.114 SA
BRANCH   5  13
ATOM     13  O   UNL     1      -9.812 -42.723  32.654  1.00  0.00    -0.493 OA
ATOM     14  C   UNL     1     -10.529 -42.693  33.886  1.00  0.00     0.278 C 
ENDBRANCH   5  13
BRANCH   7  15
ATOM     15  O   UNL     1      -7.840 -43.975  31.229  1.00  0.00    -0.493 OA
ATOM     16  C   UNL     1      -7.144 -45.068  31.841  1.00  0.00     0.278 C 
ENDBRANCH   7  15
ENDBRANCH   2   4
ENDBRANCH   1   2
BRANCH   1  17
ATOM     17  C   UNL     1     -14.376 -43.054  25.969  1.00  0.00     0.044 C 
BRANCH  17  18
ATOM     18  C   UNL     1     -15.846 -42.745  26.172  1.00  0.00    -0.036 A 
ATOM     19  C   UNL     1     -16.682 -42.546  25.071  1.00  0.00     0.074 A 
ATOM     20  C   UNL     1     -16.407 -42.680  27.445  1.00  0.00     0.074 A 
ATOM     21  C   UNL     1     -18.035 -42.293  25.261  1.00  0.00     0.308 A 
ATOM     22  C   UNL     1     -17.767 -42.414  27.590  1.00  0.00     0.308 A 
ATOM     23  N   UNL     1     -18.554 -42.225  26.507  1.00  0.00    -0.201 N 
BRANCH  23  24
ATOM     24  C   UNL     1     -20.000 -41.942  26.679  1.00  0.00     0.394 C 
BRANCH  24  25
ATOM     25  C   UNL     1     -20.793 -43.191  26.433  1.00  0.00     0.027 A 
ATOM     26  C   UNL     1     -20.542 -44.117  25.364  1.00  0.00     0.022 A 
ATOM     27  C   UNL     1     -21.857 -43.620  27.207  1.00  0.00     0.075 A 
ATOM     28  C   UNL     1     -21.422 -45.177  25.361  1.00  0.00     0.065 A 
ATOM     29  S   UNL     1     -22.548 -45.077  26.639  1.00  0.00    -0.152 S 
ENDBRANCH  24  25
ENDBRANCH  23  24
ENDBRANCH  17  18
ENDBRANCH   1  17
TORSDOF 8
ENDMDL
MODEL 7
REMARK VINA RESULT:    -8.883      2.222      3.498
REMARK INTER + INTRA:         -13.672
REMARK INTER:                 -13.698
REMARK INTRA:                   0.026
REMARK UNBOUND:                -0.635
REMARK SMILES COc1cc2c(cc1OC)S[C@H](C(=O)CCc1cc[n+](Cc3ccsc3)cc1)C2
REMARK SMILES IDX 15 1 13 2 14 3 12 4 3 5 4 6 8 7 5 8 7 9 6 10 29 11 11 12
REMARK SMILES IDX 2 13 1 14 9 15 10 16 16 17 17 18 18 19 28 20 19 21 27 22
REMARK SMILES IDX 20 23 21 24 22 25 23 26 26 27 24 28 25 29
REMARK H PARENT
ROOT
ATOM      1  C   UNL     1     -14.597 -44.617  29.283  1.00  0.00     0.081 C 
ENDROOT
BRANCH   1   2
ATOM      2  C   UNL     1     -13.451 -45.066  30.178  1.00  0.00     0.146 C 
ATOM      3  O   UNL     1     -13.367 -44.607  31.324  1.00  0.00    -0.298 OA
BRANCH   2   4
ATOM      4  C   UNL     1     -12.480 -46.154  29.697  1.00  0.00     0.123 C 
ATOM      5  C   UNL     1      -8.588 -43.586  30.696  1.00  0.00     0.161 A 
ATOM      6  C   UNL     1      -9.433 -44.583  31.195  1.00  0.00     0.055 A 
ATOM      7  C   UNL     1      -8.619 -43.278  29.319  1.00  0.00     0.161 A 
ATOM      8  C   UNL     1     -10.323 -45.210  30.326  1.00  0.00    -0.029 A 
ATOM      9  C   UNL     1      -9.506 -43.910  28.450  1.00  0.00     0.065 A 
ATOM     10  C   UNL     1     -10.360 -44.861  28.975  1.00  0.00     0.015 A 
ATOM     11  C   UNL     1     -11.308 -46.294  30.693  1.00  0.00     0.059 C 
ATOM     12  S   UNL     1     -11.660 -45.695  28.123  1.00  0.00    -0.114 SA
BRANCH   5  13
ATOM     13  O   UNL     1      -7.764 -42.815  31.473  1.00  0.00    -0.493 OA
ATOM     14  C   UNL     1      -7.591 -43.245  32.822  1.00  0.00     0.278 C 
ENDBRANCH   5  13
BRANCH   7  15
ATOM     15  O   UNL     1      -7.853 -42.263  28.794  1.00  0.00    -0.493 OA
ATOM     16  C   UNL     1      -8.299 -41.957  27.467  1.00  0.00     0.278 C 
ENDBRANCH   7  15
ENDBRANCH   2   4
ENDBRANCH   1   2
BRANCH   1  17
ATOM     17  C   UNL     1     -14.079 -44.038  27.961  1.00  0.00     0.044 C 
BRANCH  17  18
ATOM     18  C   UNL     1     -15.177 -43.535  27.045  1.00  0.00    -0.036 A 
ATOM     19  C   UNL     1     -16.316 -42.927  27.578  1.00  0.00     0.074 A 
ATOM     20  C   UNL     1     -15.071 -43.637  25.659  1.00  0.00     0.074 A 
ATOM     21  C   UNL     1     -17.305 -42.440  26.732  1.00  0.00     0.308 A 
ATOM     22  C   UNL     1     -16.092 -43.144  24.849  1.00  0.00     0.308 A 
ATOM     23  N   UNL     1     -17.185 -42.560  25.391  1.00  0.00    -0.201 N 
BRANCH  23  24
ATOM     24  C   UNL     1     -18.263 -42.041  24.514  1.00  0.00     0.394 C 
BRANCH  24  25
ATOM     25  C   UNL     1     -19.599 -42.324  25.132  1.00  0.00     0.027 A 
ATOM     26  C   UNL     1     -20.431 -41.336  25.763  1.00  0.00     0.022 A 
ATOM     27  C   UNL     1     -20.210 -43.566  25.167  1.00  0.00     0.075 A 
ATOM     28  C   UNL     1     -21.604 -41.864  26.255  1.00  0.00     0.065 A 
ATOM     29  S   UNL     1     -21.723 -43.541  25.964  1.00  0.00    -0.152 S 
ENDBRANCH  24  25
ENDBRANCH  23  24
ENDBRANCH  17  18
ENDBRANCH   1  17
TORSDOF 8
ENDMDL
MODEL 8
REMARK VINA RESULT:    -8.864      2.546      3.823
REMARK INTER + INTRA:         -13.645
REMARK INTER:                 -13.897
REMARK INTRA:                   0.253
REMARK UNBOUND:                -0.635
REMARK SMILES COc1cc2c(cc1OC)S[C@H](C(=O)CCc1cc[n+](Cc3ccsc3)cc1)C2
REMARK SMILES IDX 15 1 13 2 14 3 12 4 3 5 4 6 8 7 5 8 7 9 6 10 29 11 11 12
REMARK SMILES IDX 2 13 1 14 9 15 10 16 16 17 17 18 18 19 28 20 19 21 27 22
REMARK SMILES IDX 20 23 21 24 22 25 23 26 26 27 24 28 25 29
REMARK H PARENT
ROOT
ATOM      1  C   UNL     1     -14.133 -44.334  29.398  1.00  0.00     0.081 C 
ENDROOT
BRANCH   1   2
ATOM      2  C   UNL     1     -13.403 -45.138  30.465  1.00  0.00     0.146 C 
ATOM      3  O   UNL     1     -13.676 -44.944  31.656  1.00  0.00    -0.298 OA
BRANCH   2   4
ATOM      4  C   UNL     1     -12.424 -46.247  30.056  1.00  0.00     0.123 C 
ATOM      5  C   UNL     1      -8.552 -43.590  30.886  1.00  0.00     0.161 A 
ATOM      6  C   UNL     1      -9.391 -44.559  31.450  1.00  0.00     0.055 A 
ATOM      7  C   UNL     1      -8.585 -43.373  29.492  1.00  0.00     0.161 A 
ATOM      8  C   UNL     1     -10.275 -45.247  30.623  1.00  0.00    -0.029 A 
ATOM      9  C   UNL     1      -9.467 -44.066  28.666  1.00  0.00     0.065 A 
ATOM     10  C   UNL     1     -10.313 -44.988  29.251  1.00  0.00     0.015 A 
ATOM     11  C   UNL     1     -11.251 -46.313  31.059  1.00  0.00     0.059 C 
ATOM     12  S   UNL     1     -11.607 -45.885  28.455  1.00  0.00    -0.114 SA
BRANCH   5  13
ATOM     13  O   UNL     1      -7.735 -42.763  31.612  1.00  0.00    -0.493 OA
ATOM     14  C   UNL     1      -7.461 -43.171  32.951  1.00  0.00     0.278 C 
ENDBRANCH   5  13
BRANCH   7  15
ATOM     15  O   UNL     1      -7.827 -42.388  28.903  1.00  0.00    -0.493 OA
ATOM     16  C   UNL     1      -8.350 -42.086  27.603  1.00  0.00     0.278 C 
ENDBRANCH   7  15
ENDBRANCH   2   4
ENDBRANCH   1   2
BRANCH   1  17
ATOM     17  C   UNL     1     -14.212 -45.105  28.075  1.00  0.00     0.044 C 
BRANCH  17  18
ATOM     18  C   UNL     1     -14.530 -44.230  26.879  1.00  0.00    -0.036 A 
ATOM     19  C   UNL     1     -14.298 -44.698  25.583  1.00  0.00     0.074 A 
ATOM     20  C   UNL     1     -15.082 -42.960  27.032  1.00  0.00     0.074 A 
ATOM     21  C   UNL     1     -14.619 -43.905  24.488  1.00  0.00     0.308 A 
ATOM     22  C   UNL     1     -15.379 -42.194  25.906  1.00  0.00     0.308 A 
ATOM     23  N   UNL     1     -15.145 -42.671  24.663  1.00  0.00    -0.201 N 
BRANCH  23  24
ATOM     24  C   UNL     1     -15.467 -41.842  23.475  1.00  0.00     0.394 C 
BRANCH  24  25
ATOM     25  C   UNL     1     -16.950 -41.834  23.252  1.00  0.00     0.027 A 
ATOM     26  C   UNL     1     -17.887 -42.655  23.967  1.00  0.00     0.022 A 
ATOM     27  C   UNL     1     -17.609 -41.028  22.339  1.00  0.00     0.075 A 
ATOM     28  C   UNL     1     -19.188 -42.456  23.561  1.00  0.00     0.065 A 
ATOM     29  S   UNL     1     -19.300 -41.282  22.327  1.00  0.00    -0.152 S 
ENDBRANCH  24  25
ENDBRANCH  23  24
ENDBRANCH  17  18
ENDBRANCH   1  17
TORSDOF 8
ENDMDL
MODEL 9
REMARK VINA RESULT:    -8.605      3.882      9.658
REMARK INTER + INTRA:         -13.264
REMARK INTER:                 -12.349
REMARK INTRA:                  -0.915
REMARK UNBOUND:                -0.635
REMARK SMILES COc1cc2c(cc1OC)S[C@H](C(=O)CCc1cc[n+](Cc3ccsc3)cc1)C2
REMARK SMILES IDX 15 1 13 2 14 3 12 4 3 5 4 6 8 7 5 8 7 9 6 10 29 11 11 12
REMARK SMILES IDX 2 13 1 14 9 15 10 16 16 17 17 18 18 19 28 20 19 21 27 22
REMARK SMILES IDX 20 23 21 24 22 25 23 26 26 27 24 28 25 29
REMARK H PARENT
ROOT
ATOM      1  C   UNL     1     -16.220 -42.924  26.018  1.00  0.00     0.081 C 
ENDROOT
BRANCH   1   2
ATOM      2  C   UNL     1     -17.033 -42.843  24.734  1.00  0.00     0.146 C 
ATOM      3  O   UNL     1     -16.809 -43.654  23.828  1.00  0.00    -0.298 OA
BRANCH   2   4
ATOM      4  C   UNL     1     -18.184 -41.834  24.615  1.00  0.00     0.123 C 
ATOM      5  C   UNL     1     -21.248 -44.544  27.067  1.00  0.00     0.161 A 
ATOM      6  C   UNL     1     -20.348 -43.479  27.186  1.00  0.00     0.055 A 
ATOM      7  C   UNL     1     -21.706 -44.923  25.787  1.00  0.00     0.161 A 
ATOM      8  C   UNL     1     -19.887 -42.854  26.029  1.00  0.00    -0.029 A 
ATOM      9  C   UNL     1     -21.248 -44.293  24.631  1.00  0.00     0.065 A 
ATOM     10  C   UNL     1     -20.328 -43.273  24.772  1.00  0.00     0.015 A 
ATOM     11  C   UNL     1     -18.913 -41.703  25.971  1.00  0.00     0.059 C 
ATOM     12  S   UNL     1     -19.494 -42.419  23.473  1.00  0.00    -0.114 SA
BRANCH   5  13
ATOM     13  O   UNL     1     -21.672 -45.314  28.117  1.00  0.00    -0.493 OA
ATOM     14  C   UNL     1     -22.653 -44.727  28.969  1.00  0.00     0.278 C 
ENDBRANCH   5  13
BRANCH   7  15
ATOM     15  O   UNL     1     -22.540 -46.003  25.615  1.00  0.00    -0.493 OA
ATOM     16  C   UNL     1     -23.893 -45.553  25.473  1.00  0.00     0.278 C 
ENDBRANCH   7  15
ENDBRANCH   2   4
ENDBRANCH   1   2
BRANCH   1  17
ATOM     17  C   UNL     1     -14.907 -43.685  25.801  1.00  0.00     0.044 C 
BRANCH  17  18
ATOM     18  C   UNL     1     -14.372 -44.348  27.054  1.00  0.00    -0.036 A 
ATOM     19  C   UNL     1     -13.388 -45.336  26.963  1.00  0.00     0.074 A 
ATOM     20  C   UNL     1     -14.819 -43.978  28.321  1.00  0.00     0.074 A 
ATOM     21  C   UNL     1     -12.879 -45.919  28.117  1.00  0.00     0.308 A 
ATOM     22  C   UNL     1     -14.288 -44.596  29.451  1.00  0.00     0.308 A 
ATOM     23  N   UNL     1     -13.336 -45.550  29.335  1.00  0.00    -0.201 N 
BRANCH  23  24
ATOM     24  C   UNL     1     -12.781 -46.199  30.549  1.00  0.00     0.394 C 
BRANCH  24  25
ATOM     25  C   UNL     1     -11.480 -45.552  30.918  1.00  0.00     0.027 A 
ATOM     26  C   UNL     1     -10.269 -46.268  31.210  1.00  0.00     0.022 A 
ATOM     27  C   UNL     1     -11.272 -44.187  31.015  1.00  0.00     0.075 A 
ATOM     28  C   UNL     1      -9.221 -45.432  31.527  1.00  0.00     0.065 A 
ATOM     29  S   UNL     1      -9.674 -43.788  31.475  1.00  0.00    -0.152 S 
ENDBRANCH  24  25
ENDBRANCH  23  24
ENDBRANCH  17  18
ENDBRANCH   1  17
TORSDOF 8
ENDMDL
