MODEL 1
REMARK VINA RESULT:   -12.770      0.000      0.000
REMARK INTER + INTRA:         -18.443
REMARK INTER:                 -17.622
REMARK INTRA:                  -0.821
REMARK UNBOUND:                -0.821
REMARK SMILES O=C1Cc2cc(C(O)=CC[C@H]3CC[N@H+](Cc4ccccc4)CC3)cc3c2N1CCC3
REMARK SMILES IDX 9 1 7 2 8 3 6 5 24 6 5 7 25 8 4 9 26 10 30 11 3 12 27 13
REMARK SMILES IDX 29 14 2 15 28 16 1 17 10 18 11 19 23 20 12 21 22 22 13 23
REMARK SMILES IDX 14 24 15 26 16 27 17 28 21 29 18 30 20 31 19 32
REMARK H PARENT 8 4 14 25
ROOT
ATOM      1  C   UNL     1     -13.990 -43.945  26.452  1.00  0.00     0.020 C 
ENDROOT
BRANCH   1   2
ATOM      2  C   UNL     1     -14.528 -43.255  25.436  1.00  0.00     0.118 C 
BRANCH   2   3
ATOM      3  O   UNL     1     -13.779 -42.931  24.325  1.00  0.00    -0.508 OA
ATOM      4  H   UNL     1     -14.102 -43.478  23.584  1.00  0.00     0.293 HD
ENDBRANCH   2   3
BRANCH   2   5
ATOM      5  C   UNL     1     -15.939 -42.831  25.424  1.00  0.00     0.017 A 
ATOM      6  C   UNL     1     -16.565 -42.537  24.184  1.00  0.00     0.017 A 
ATOM      7  C   UNL     1     -16.655 -42.705  26.634  1.00  0.00     0.018 A 
ATOM      8  C   UNL     1     -17.894 -42.113  24.139  1.00  0.00    -0.023 A 
ATOM      9  C   UNL     1     -17.973 -42.299  26.577  1.00  0.00    -0.014 A 
ATOM     10  C   UNL     1     -18.549 -42.019  25.349  1.00  0.00     0.051 A 
ATOM     11  C   UNL     1     -18.658 -41.817  22.880  1.00  0.00     0.039 C 
ATOM     12  C   UNL     1     -19.001 -42.090  27.650  1.00  0.00     0.138 C 
ATOM     13  N   UNL     1     -19.870 -41.630  25.506  1.00  0.00    -0.312 N 
ATOM     14  C   UNL     1     -19.863 -40.896  23.157  1.00  0.00     0.027 C 
ATOM     15  C   UNL     1     -20.252 -41.684  26.843  1.00  0.00     0.231 C 
ATOM     16  C   UNL     1     -20.701 -41.378  24.349  1.00  0.00     0.126 C 
ATOM     17  O   UNL     1     -21.359 -41.460  27.303  1.00  0.00    -0.274 OA
ENDBRANCH   2   5
ENDBRANCH   1   2
BRANCH   1  18
ATOM     18  C   UNL     1     -13.689 -45.415  26.404  1.00  0.00     0.035 C 
BRANCH  18  19
ATOM     19  C   UNL     1     -13.147 -45.962  27.738  1.00  0.00     0.004 C 
ATOM     20  C   UNL     1     -11.618 -46.073  27.679  1.00  0.00     0.065 C 
ATOM     21  C   UNL     1     -13.560 -45.096  28.937  1.00  0.00     0.065 C 
ATOM     22  C   UNL     1     -11.041 -46.598  28.985  1.00  0.00     0.262 C 
ATOM     23  C   UNL     1     -12.971 -45.619  30.241  1.00  0.00     0.262 C 
ATOM     24  N   UNL     1     -11.468 -45.706  30.123  1.00  0.00    -0.331 N 
ATOM     25  H   UNL     1     -11.127 -44.757  29.923  1.00  0.00     0.348 HD
BRANCH  24  26
ATOM     26  C   UNL     1     -10.804 -46.119  31.421  1.00  0.00     0.299 C 
BRANCH  26  27
ATOM     27  C   UNL     1      -9.582 -45.304  31.744  1.00  0.00     0.006 A 
ATOM     28  C   UNL     1      -8.298 -45.818  31.508  1.00  0.00     0.009 A 
ATOM     29  C   UNL     1      -9.710 -44.022  32.303  1.00  0.00     0.009 A 
ATOM     30  C   UNL     1      -7.167 -45.068  31.832  1.00  0.00     0.001 A 
ATOM     31  C   UNL     1      -8.575 -43.277  32.626  1.00  0.00     0.001 A 
ATOM     32  C   UNL     1      -7.305 -43.801  32.393  1.00  0.00     0.000 A 
ENDBRANCH  26  27
ENDBRANCH  24  26
ENDBRANCH  18  19
ENDBRANCH   1  18
TORSDOF 7
ENDMDL
MODEL 2
REMARK VINA RESULT:   -12.726      0.896      1.302
REMARK INTER + INTRA:         -18.383
REMARK INTER:                 -17.803
REMARK INTRA:                  -0.580
REMARK UNBOUND:                -0.821
REMARK SMILES O=C1Cc2cc(C(O)=CC[C@H]3CC[N@H+](Cc4ccccc4)CC3)cc3c2N1CCC3
REMARK SMILES IDX 9 1 7 2 8 3 6 5 24 6 5 7 25 8 4 9 26 10 30 11 3 12 27 13
REMARK SMILES IDX 29 14 2 15 28 16 1 17 10 18 11 19 23 20 12 21 22 22 13 23
REMARK SMILES IDX 14 24 15 26 16 27 17 28 21 29 18 30 20 31 19 32
REMARK H PARENT 8 4 14 25
ROOT
ATOM      1  C   UNL     1     -14.597 -44.077  25.901  1.00  0.00     0.020 C 
ENDROOT
BRANCH   1   2
ATOM      2  C   UNL     1     -15.232 -43.549  24.845  1.00  0.00     0.118 C 
BRANCH   2   3
ATOM      3  O   UNL     1     -14.661 -43.573  23.590  1.00  0.00    -0.508 OA
ATOM      4  H   UNL     1     -14.621 -44.505  23.304  1.00  0.00     0.293 HD
ENDBRANCH   2   3
BRANCH   2   5
ATOM      5  C   UNL     1     -16.572 -42.946  24.945  1.00  0.00     0.017 A 
ATOM      6  C   UNL     1     -17.236 -42.529  23.761  1.00  0.00     0.017 A 
ATOM      7  C   UNL     1     -17.181 -42.770  26.206  1.00  0.00     0.018 A 
ATOM      8  C   UNL     1     -18.498 -41.935  23.823  1.00  0.00    -0.023 A 
ATOM      9  C   UNL     1     -18.435 -42.195  26.254  1.00  0.00    -0.014 A 
ATOM     10  C   UNL     1     -19.051 -41.799  25.078  1.00  0.00     0.051 A 
ATOM     11  C   UNL     1     -19.300 -41.498  22.630  1.00  0.00     0.039 C 
ATOM     12  C   UNL     1     -19.352 -41.892  27.402  1.00  0.00     0.138 C 
ATOM     13  N   UNL     1     -20.296 -41.249  25.340  1.00  0.00    -0.312 N 
ATOM     14  C   UNL     1     -20.351 -40.440  23.016  1.00  0.00     0.027 C 
ATOM     15  C   UNL     1     -20.591 -41.299  26.698  1.00  0.00     0.231 C 
ATOM     16  C   UNL     1     -21.163 -40.851  24.252  1.00  0.00     0.126 C 
ATOM     17  O   UNL     1     -21.625 -40.949  27.242  1.00  0.00    -0.274 OA
ENDBRANCH   2   5
ENDBRANCH   1   2
BRANCH   1  18
ATOM     18  C   UNL     1     -13.436 -43.427  26.597  1.00  0.00     0.035 C 
BRANCH  18  19
ATOM     19  C   UNL     1     -12.652 -44.401  27.496  1.00  0.00     0.004 C 
ATOM     20  C   UNL     1     -11.494 -43.667  28.184  1.00  0.00     0.065 C 
ATOM     21  C   UNL     1     -13.544 -45.072  28.552  1.00  0.00     0.065 C 
ATOM     22  C   UNL     1     -10.701 -44.593  29.093  1.00  0.00     0.262 C 
ATOM     23  C   UNL     1     -12.744 -45.989  29.466  1.00  0.00     0.262 C 
ATOM     24  N   UNL     1     -11.621 -45.212  30.113  1.00  0.00    -0.331 N 
ATOM     25  H   UNL     1     -12.055 -44.450  30.650  1.00  0.00     0.348 HD
BRANCH  24  26
ATOM     26  C   UNL     1     -10.846 -46.038  31.120  1.00  0.00     0.299 C 
BRANCH  26  27
ATOM     27  C   UNL     1      -9.604 -45.349  31.616  1.00  0.00     0.006 A 
ATOM     28  C   UNL     1      -9.683 -44.090  32.229  1.00  0.00     0.009 A 
ATOM     29  C   UNL     1      -8.345 -45.950  31.455  1.00  0.00     0.009 A 
ATOM     30  C   UNL     1      -8.525 -43.443  32.665  1.00  0.00     0.001 A 
ATOM     31  C   UNL     1      -7.191 -45.299  31.892  1.00  0.00     0.001 A 
ATOM     32  C   UNL     1      -7.282 -44.045  32.494  1.00  0.00     0.000 A 
ENDBRANCH  26  27
ENDBRANCH  24  26
ENDBRANCH  18  19
ENDBRANCH   1  18
TORSDOF 7
ENDMDL
MODEL 3
REMARK VINA RESULT:   -12.490      3.215      9.466
REMARK INTER + INTRA:         -18.057
REMARK INTER:                 -17.298
REMARK INTRA:                  -0.759
REMARK UNBOUND:                -0.821
REMARK SMILES O=C1Cc2cc(C(O)=CC[C@H]3CC[N@H+](Cc4ccccc4)CC3)cc3c2N1CCC3
REMARK SMILES IDX 9 1 7 2 8 3 6 5 24 6 5 7 25 8 4 9 26 10 30 11 3 12 27 13
REMARK SMILES IDX 29 14 2 15 28 16 1 17 10 18 11 19 23 20 12 21 22 22 13 23
REMARK SMILES IDX 14 24 15 26 16 27 17 28 21 29 18 30 20 31 19 32
REMARK H PARENT 8 4 14 25
ROOT
ATOM      1  C   UNL     1      -9.916 -46.372  28.901  1.00  0.00     0.020 C 
ENDROOT
BRANCH   1   2
ATOM      2  C   UNL     1      -9.479 -46.266  30.164  1.00  0.00     0.118 C 
BRANCH   2   3
ATOM      3  O   UNL     1      -8.505 -47.113  30.650  1.00  0.00    -0.508 OA
ATOM      4  H   UNL     1      -7.979 -47.422  29.888  1.00  0.00     0.293 HD
ENDBRANCH   2   3
BRANCH   2   5
ATOM      5  C   UNL     1      -9.977 -45.237  31.092  1.00  0.00     0.017 A 
ATOM      6  C   UNL     1      -9.050 -44.505  31.880  1.00  0.00     0.017 A 
ATOM      7  C   UNL     1     -11.362 -44.992  31.207  1.00  0.00     0.018 A 
ATOM      8  C   UNL     1      -9.490 -43.537  32.784  1.00  0.00    -0.023 A 
ATOM      9  C   UNL     1     -11.786 -44.022  32.093  1.00  0.00    -0.014 A 
ATOM     10  C   UNL     1     -10.852 -43.330  32.847  1.00  0.00     0.051 A 
ATOM     11  C   UNL     1      -8.591 -42.683  33.632  1.00  0.00     0.039 C 
ATOM     12  C   UNL     1     -13.154 -43.509  32.434  1.00  0.00     0.138 C 
ATOM     13  N   UNL     1     -11.476 -42.406  33.670  1.00  0.00    -0.312 N 
ATOM     14  C   UNL     1      -9.339 -42.123  34.858  1.00  0.00     0.027 C 
ATOM     15  C   UNL     1     -12.852 -42.402  33.466  1.00  0.00     0.231 C 
ATOM     16  C   UNL     1     -10.690 -41.501  34.481  1.00  0.00     0.126 C 
ATOM     17  O   UNL     1     -13.673 -41.668  33.991  1.00  0.00    -0.274 OA
ENDBRANCH   2   5
ENDBRANCH   1   2
BRANCH   1  18
ATOM     18  C   UNL     1     -11.342 -46.654  28.524  1.00  0.00     0.035 C 
BRANCH  18  19
ATOM     19  C   UNL     1     -11.935 -45.594  27.577  1.00  0.00     0.004 C 
ATOM     20  C   UNL     1     -13.410 -45.906  27.296  1.00  0.00     0.065 C 
ATOM     21  C   UNL     1     -11.802 -44.169  28.135  1.00  0.00     0.065 C 
ATOM     22  C   UNL     1     -14.038 -44.873  26.373  1.00  0.00     0.262 C 
ATOM     23  C   UNL     1     -12.441 -43.140  27.213  1.00  0.00     0.262 C 
ATOM     24  N   UNL     1     -13.889 -43.499  26.973  1.00  0.00    -0.331 N 
ATOM     25  H   UNL     1     -14.352 -43.505  27.891  1.00  0.00     0.348 HD
BRANCH  24  26
ATOM     26  C   UNL     1     -14.618 -42.458  26.148  1.00  0.00     0.299 C 
BRANCH  26  27
ATOM     27  C   UNL     1     -16.110 -42.496  26.336  1.00  0.00     0.006 A 
ATOM     28  C   UNL     1     -16.969 -42.525  25.228  1.00  0.00     0.009 A 
ATOM     29  C   UNL     1     -16.664 -42.486  27.627  1.00  0.00     0.009 A 
ATOM     30  C   UNL     1     -18.353 -42.534  25.408  1.00  0.00     0.001 A 
ATOM     31  C   UNL     1     -18.049 -42.495  27.801  1.00  0.00     0.001 A 
ATOM     32  C   UNL     1     -18.891 -42.517  26.691  1.00  0.00     0.000 A 
ENDBRANCH  26  27
ENDBRANCH  24  26
ENDBRANCH  18  19
ENDBRANCH   1  18
TORSDOF 7
ENDMDL
MODEL 4
REMARK VINA RESULT:   -12.263      1.188      2.511
REMARK INTER + INTRA:         -17.745
REMARK INTER:                 -17.261
REMARK INTRA:                  -0.484
REMARK UNBOUND:                -0.821
REMARK SMILES O=C1Cc2cc(C(O)=CC[C@H]3CC[N@H+](Cc4ccccc4)CC3)cc3c2N1CCC3
REMARK SMILES IDX 9 1 7 2 8 3 6 5 24 6 5 7 25 8 4 9 26 10 30 11 3 12 27 13
REMARK SMILES IDX 29 14 2 15 28 16 1 17 10 18 11 19 23 20 12 21 22 22 13 23
REMARK SMILES IDX 14 24 15 26 16 27 17 28 21 29 18 30 20 31 19 32
REMARK H PARENT 8 4 14 25
ROOT
ATOM      1  C   UNL     1     -14.485 -43.816  25.938  1.00  0.00     0.020 C 
ENDROOT
BRANCH   1   2
ATOM      2  C   UNL     1     -15.129 -43.543  24.795  1.00  0.00     0.118 C 
BRANCH   2   3
ATOM      3  O   UNL     1     -14.572 -43.858  23.574  1.00  0.00    -0.508 OA
ATOM      4  H   UNL     1     -15.224 -44.391  23.083  1.00  0.00     0.293 HD
ENDBRANCH   2   3
BRANCH   2   5
ATOM      5  C   UNL     1     -16.467 -42.927  24.767  1.00  0.00     0.017 A 
ATOM      6  C   UNL     1     -17.177 -42.753  25.984  1.00  0.00     0.017 A 
ATOM      7  C   UNL     1     -17.042 -42.528  23.541  1.00  0.00     0.018 A 
ATOM      8  C   UNL     1     -18.456 -42.193  25.990  1.00  0.00    -0.023 A 
ATOM      9  C   UNL     1     -18.300 -41.961  23.561  1.00  0.00    -0.014 A 
ATOM     10  C   UNL     1     -18.964 -41.810  24.767  1.00  0.00     0.051 A 
ATOM     11  C   UNL     1     -19.271 -41.929  27.224  1.00  0.00     0.039 C 
ATOM     12  C   UNL     1     -19.169 -41.420  22.463  1.00  0.00     0.138 C 
ATOM     13  N   UNL     1     -20.205 -41.225  24.573  1.00  0.00    -0.312 N 
ATOM     14  C   UNL     1     -20.772 -41.818  26.893  1.00  0.00     0.027 C 
ATOM     15  C   UNL     1     -20.406 -40.910  23.233  1.00  0.00     0.231 C 
ATOM     16  C   UNL     1     -21.037 -40.882  25.705  1.00  0.00     0.126 C 
ATOM     17  O   UNL     1     -21.367 -40.338  22.746  1.00  0.00    -0.274 OA
ENDBRANCH   2   5
ENDBRANCH   1   2
BRANCH   1  18
ATOM     18  C   UNL     1     -13.816 -45.127  26.235  1.00  0.00     0.035 C 
BRANCH  18  19
ATOM     19  C   UNL     1     -12.943 -45.084  27.502  1.00  0.00     0.004 C 
ATOM     20  C   UNL     1     -13.826 -44.914  28.745  1.00  0.00     0.065 C 
ATOM     21  C   UNL     1     -12.066 -46.337  27.654  1.00  0.00     0.065 C 
ATOM     22  C   UNL     1     -13.001 -44.880  30.022  1.00  0.00     0.262 C 
ATOM     23  C   UNL     1     -11.251 -46.303  28.939  1.00  0.00     0.262 C 
ATOM     24  N   UNL     1     -12.172 -46.135  30.124  1.00  0.00    -0.331 N 
ATOM     25  H   UNL     1     -12.815 -46.937  30.120  1.00  0.00     0.348 HD
BRANCH  24  26
ATOM     26  C   UNL     1     -11.436 -46.199  31.448  1.00  0.00     0.299 C 
BRANCH  26  27
ATOM     27  C   UNL     1     -10.059 -45.597  31.386  1.00  0.00     0.006 A 
ATOM     28  C   UNL     1      -9.886 -44.206  31.415  1.00  0.00     0.009 A 
ATOM     29  C   UNL     1      -8.927 -46.421  31.280  1.00  0.00     0.009 A 
ATOM     30  C   UNL     1      -8.608 -43.651  31.332  1.00  0.00     0.001 A 
ATOM     31  C   UNL     1      -7.651 -45.862  31.197  1.00  0.00     0.001 A 
ATOM     32  C   UNL     1      -7.494 -44.477  31.221  1.00  0.00     0.000 A 
ENDBRANCH  26  27
ENDBRANCH  24  26
ENDBRANCH  18  19
ENDBRANCH   1  18
TORSDOF 7
ENDMDL
MODEL 5
REMARK VINA RESULT:   -11.638      3.602      9.191
REMARK INTER + INTRA:         -16.882
REMARK INTER:                 -16.168
REMARK INTRA:                  -0.714
REMARK UNBOUND:                -0.821
REMARK SMILES O=C1Cc2cc(C(O)=CC[C@H]3CC[N@H+](Cc4ccccc4)CC3)cc3c2N1CCC3
REMARK SMILES IDX 9 1 7 2 8 3 6 5 24 6 5 7 25 8 4 9 26 10 30 11 3 12 27 13
REMARK SMILES IDX 29 14 2 15 28 16 1 17 10 18 11 19 23 20 12 21 22 22 13 23
REMARK SMILES IDX 14 24 15 26 16 27 17 28 21 29 18 30 20 31 19 32
REMARK H PARENT 8 4 14 25
ROOT
ATOM      1  C   UNL     1     -10.089 -46.361  29.051  1.00  0.00     0.020 C 
ENDROOT
BRANCH   1   2
ATOM      2  C   UNL     1      -9.880 -46.308  30.374  1.00  0.00     0.118 C 
BRANCH   2   3
ATOM      3  O   UNL     1      -9.034 -47.203  30.994  1.00  0.00    -0.508 OA
ATOM      4  H   UNL     1      -8.394 -47.513  30.325  1.00  0.00     0.293 HD
ENDBRANCH   2   3
BRANCH   2   5
ATOM      5  C   UNL     1     -10.503 -45.289  31.235  1.00  0.00     0.017 A 
ATOM      6  C   UNL     1     -11.920 -45.215  31.311  1.00  0.00     0.017 A 
ATOM      7  C   UNL     1      -9.701 -44.386  31.965  1.00  0.00     0.018 A 
ATOM      8  C   UNL     1     -12.542 -44.247  32.101  1.00  0.00    -0.023 A 
ATOM      9  C   UNL     1     -10.327 -43.442  32.754  1.00  0.00    -0.014 A 
ATOM     10  C   UNL     1     -11.710 -43.400  32.801  1.00  0.00     0.051 A 
ATOM     11  C   UNL     1     -14.027 -44.112  32.280  1.00  0.00     0.039 C 
ATOM     12  C   UNL     1      -9.782 -42.372  33.654  1.00  0.00     0.138 C 
ATOM     13  N   UNL     1     -12.140 -42.388  33.646  1.00  0.00    -0.312 N 
ATOM     14  C   UNL     1     -14.411 -42.694  32.747  1.00  0.00     0.027 C 
ATOM     15  C   UNL     1     -11.062 -41.742  34.242  1.00  0.00     0.231 C 
ATOM     16  C   UNL     1     -13.549 -42.217  33.924  1.00  0.00     0.126 C 
ATOM     17  O   UNL     1     -11.105 -40.851  35.074  1.00  0.00    -0.274 OA
ENDBRANCH   2   5
ENDBRANCH   1   2
BRANCH   1  18
ATOM     18  C   UNL     1     -11.425 -46.635  28.420  1.00  0.00     0.035 C 
BRANCH  18  19
ATOM     19  C   UNL     1     -11.904 -45.491  27.508  1.00  0.00     0.004 C 
ATOM     20  C   UNL     1     -13.410 -45.624  27.244  1.00  0.00     0.065 C 
ATOM     21  C   UNL     1     -11.599 -44.105  28.095  1.00  0.00     0.065 C 
ATOM     22  C   UNL     1     -13.927 -44.503  26.355  1.00  0.00     0.262 C 
ATOM     23  C   UNL     1     -12.128 -42.987  27.207  1.00  0.00     0.262 C 
ATOM     24  N   UNL     1     -13.611 -43.170  26.984  1.00  0.00    -0.331 N 
ATOM     25  H   UNL     1     -14.058 -43.145  27.909  1.00  0.00     0.348 HD
BRANCH  24  26
ATOM     26  C   UNL     1     -14.226 -42.032  26.194  1.00  0.00     0.299 C 
BRANCH  26  27
ATOM     27  C   UNL     1     -15.529 -42.406  25.541  1.00  0.00     0.006 A 
ATOM     28  C   UNL     1     -15.586 -42.683  24.168  1.00  0.00     0.009 A 
ATOM     29  C   UNL     1     -16.712 -42.464  26.297  1.00  0.00     0.009 A 
ATOM     30  C   UNL     1     -16.801 -43.004  23.561  1.00  0.00     0.001 A 
ATOM     31  C   UNL     1     -17.925 -42.785  25.686  1.00  0.00     0.001 A 
ATOM     32  C   UNL     1     -17.968 -43.052  24.319  1.00  0.00     0.000 A 
ENDBRANCH  26  27
ENDBRANCH  24  26
ENDBRANCH  18  19
ENDBRANCH   1  18
TORSDOF 7
ENDMDL
MODEL 6
REMARK VINA RESULT:   -11.581      2.890     10.556
REMARK INTER + INTRA:         -16.803
REMARK INTER:                 -16.562
REMARK INTRA:                  -0.241
REMARK UNBOUND:                -0.821
REMARK SMILES O=C1Cc2cc(C(O)=CC[C@H]3CC[N@H+](Cc4ccccc4)CC3)cc3c2N1CCC3
REMARK SMILES IDX 9 1 7 2 8 3 6 5 24 6 5 7 25 8 4 9 26 10 30 11 3 12 27 13
REMARK SMILES IDX 29 14 2 15 28 16 1 17 10 18 11 19 23 20 12 21 22 22 13 23
REMARK SMILES IDX 14 24 15 26 16 27 17 28 21 29 18 30 20 31 19 32
REMARK H PARENT 8 4 14 25
ROOT
ATOM      1  C   UNL     1     -13.810 -45.433  29.288  1.00  0.00     0.020 C 
ENDROOT
BRANCH   1   2
ATOM      2  C   UNL     1     -13.305 -45.861  30.454  1.00  0.00     0.118 C 
BRANCH   2   3
ATOM      3  O   UNL     1     -13.992 -46.768  31.233  1.00  0.00    -0.508 OA
ATOM      4  H   UNL     1     -14.942 -46.558  31.158  1.00  0.00     0.293 HD
ENDBRANCH   2   3
BRANCH   2   5
ATOM      5  C   UNL     1     -11.992 -45.424  30.958  1.00  0.00     0.017 A 
ATOM      6  C   UNL     1     -10.823 -46.113  30.538  1.00  0.00     0.017 A 
ATOM      7  C   UNL     1     -11.898 -44.343  31.859  1.00  0.00     0.018 A 
ATOM      8  C   UNL     1      -9.565 -45.738  31.012  1.00  0.00    -0.023 A 
ATOM      9  C   UNL     1     -10.648 -43.971  32.311  1.00  0.00    -0.014 A 
ATOM     10  C   UNL     1      -9.531 -44.668  31.881  1.00  0.00     0.051 A 
ATOM     11  C   UNL     1      -8.268 -46.374  30.600  1.00  0.00     0.039 C 
ATOM     12  C   UNL     1     -10.205 -42.876  33.236  1.00  0.00     0.138 C 
ATOM     13  N   UNL     1      -8.379 -44.142  32.446  1.00  0.00    -0.312 N 
ATOM     14  C   UNL     1      -7.163 -46.126  31.645  1.00  0.00     0.027 C 
ATOM     15  C   UNL     1      -8.670 -43.036  33.238  1.00  0.00     0.231 C 
ATOM     16  C   UNL     1      -7.080 -44.652  32.066  1.00  0.00     0.126 C 
ATOM     17  O   UNL     1      -7.876 -42.320  33.823  1.00  0.00    -0.274 OA
ENDBRANCH   2   5
ENDBRANCH   1   2
BRANCH   1  18
ATOM     18  C   UNL     1     -13.042 -45.403  27.998  1.00  0.00     0.035 C 
BRANCH  18  19
ATOM     19  C   UNL     1     -13.622 -44.410  26.975  1.00  0.00     0.004 C 
ATOM     20  C   UNL     1     -14.069 -45.156  25.712  1.00  0.00     0.065 C 
ATOM     21  C   UNL     1     -14.797 -43.601  27.545  1.00  0.00     0.065 C 
ATOM     22  C   UNL     1     -14.662 -44.211  24.679  1.00  0.00     0.262 C 
ATOM     23  C   UNL     1     -15.395 -42.663  26.504  1.00  0.00     0.262 C 
ATOM     24  N   UNL     1     -15.815 -43.453  25.287  1.00  0.00    -0.331 N 
ATOM     25  H   UNL     1     -16.511 -44.141  25.602  1.00  0.00     0.348 HD
BRANCH  24  26
ATOM     26  C   UNL     1     -16.517 -42.598  24.251  1.00  0.00     0.299 C 
BRANCH  26  27
ATOM     27  C   UNL     1     -17.885 -42.148  24.687  1.00  0.00     0.006 A 
ATOM     28  C   UNL     1     -18.283 -42.270  26.026  1.00  0.00     0.009 A 
ATOM     29  C   UNL     1     -18.788 -41.614  23.754  1.00  0.00     0.009 A 
ATOM     30  C   UNL     1     -19.562 -41.875  26.421  1.00  0.00     0.001 A 
ATOM     31  C   UNL     1     -20.066 -41.221  24.154  1.00  0.00     0.001 A 
ATOM     32  C   UNL     1     -20.452 -41.354  25.486  1.00  0.00     0.000 A 
ENDBRANCH  26  27
ENDBRANCH  24  26
ENDBRANCH  18  19
ENDBRANCH   1  18
TORSDOF 7
ENDMDL
MODEL 7
REMARK VINA RESULT:   -11.480      3.138     10.111
REMARK INTER + INTRA:         -16.664
REMARK INTER:                 -15.882
REMARK INTRA:                  -0.782
REMARK UNBOUND:                -0.821
REMARK SMILES O=C1Cc2cc(C(O)=CC[C@H]3CC[N@H+](Cc4ccccc4)CC3)cc3c2N1CCC3
REMARK SMILES IDX 9 1 7 2 8 3 6 5 24 6 5 7 25 8 4 9 26 10 30 11 3 12 27 13
REMARK SMILES IDX 29 14 2 15 28 16 1 17 10 18 11 19 23 20 12 21 22 22 13 23
REMARK SMILES IDX 14 24 15 26 16 27 17 28 21 29 18 30 20 31 19 32
REMARK H PARENT 8 4 14 25
ROOT
ATOM      1  C   UNL     1     -12.260 -46.566  29.525  1.00  0.00     0.020 C 
ENDROOT
BRANCH   1   2
ATOM      2  C   UNL     1     -12.576 -45.797  30.577  1.00  0.00     0.118 C 
BRANCH   2   3
ATOM      3  O   UNL     1     -13.878 -45.704  31.020  1.00  0.00    -0.508 OA
ATOM      4  H   UNL     1     -13.849 -45.510  31.977  1.00  0.00     0.293 HD
ENDBRANCH   2   3
BRANCH   2   5
ATOM      5  C   UNL     1     -11.567 -45.039  31.336  1.00  0.00     0.017 A 
ATOM      6  C   UNL     1     -11.994 -44.068  32.281  1.00  0.00     0.017 A 
ATOM      7  C   UNL     1     -10.191 -45.265  31.115  1.00  0.00     0.018 A 
ATOM      8  C   UNL     1     -11.063 -43.318  33.002  1.00  0.00    -0.023 A 
ATOM      9  C   UNL     1      -9.280 -44.528  31.844  1.00  0.00    -0.014 A 
ATOM     10  C   UNL     1      -9.734 -43.588  32.755  1.00  0.00     0.051 A 
ATOM     11  C   UNL     1     -11.410 -42.299  34.050  1.00  0.00     0.039 C 
ATOM     12  C   UNL     1      -7.780 -44.536  31.868  1.00  0.00     0.138 C 
ATOM     13  N   UNL     1      -8.668 -42.959  33.380  1.00  0.00    -0.312 N 
ATOM     14  C   UNL     1     -10.256 -41.301  34.267  1.00  0.00     0.027 C 
ATOM     15  C   UNL     1      -7.455 -43.487  32.952  1.00  0.00     0.231 C 
ATOM     16  C   UNL     1      -8.903 -42.005  34.441  1.00  0.00     0.126 C 
ATOM     17  O   UNL     1      -6.341 -43.191  33.351  1.00  0.00    -0.274 OA
ENDBRANCH   2   5
ENDBRANCH   1   2
BRANCH   1  18
ATOM     18  C   UNL     1     -11.350 -46.136  28.411  1.00  0.00     0.035 C 
BRANCH  18  19
ATOM     19  C   UNL     1     -12.032 -45.184  27.410  1.00  0.00     0.004 C 
ATOM     20  C   UNL     1     -13.475 -45.639  27.151  1.00  0.00     0.065 C 
ATOM     21  C   UNL     1     -12.025 -43.725  27.891  1.00  0.00     0.065 C 
ATOM     22  C   UNL     1     -14.189 -44.716  26.176  1.00  0.00     0.262 C 
ATOM     23  C   UNL     1     -12.751 -42.807  26.917  1.00  0.00     0.262 C 
ATOM     24  N   UNL     1     -14.161 -43.303  26.702  1.00  0.00    -0.331 N 
ATOM     25  H   UNL     1     -14.623 -43.301  27.620  1.00  0.00     0.348 HD
BRANCH  24  26
ATOM     26  C   UNL     1     -14.977 -42.375  25.824  1.00  0.00     0.299 C 
BRANCH  26  27
ATOM     27  C   UNL     1     -16.454 -42.449  26.103  1.00  0.00     0.006 A 
ATOM     28  C   UNL     1     -17.378 -42.507  25.050  1.00  0.00     0.009 A 
ATOM     29  C   UNL     1     -16.929 -42.441  27.425  1.00  0.00     0.009 A 
ATOM     30  C   UNL     1     -18.748 -42.549  25.313  1.00  0.00     0.001 A 
ATOM     31  C   UNL     1     -18.300 -42.483  27.683  1.00  0.00     0.001 A 
ATOM     32  C   UNL     1     -19.207 -42.534  26.627  1.00  0.00     0.000 A 
ENDBRANCH  26  27
ENDBRANCH  24  26
ENDBRANCH  18  19
ENDBRANCH   1  18
TORSDOF 7
ENDMDL
MODEL 8
REMARK VINA RESULT:   -11.461      2.585     11.163
REMARK INTER + INTRA:         -16.638
REMARK INTER:                 -15.831
REMARK INTRA:                  -0.807
REMARK UNBOUND:                -0.821
REMARK SMILES O=C1Cc2cc(C(O)=CC[C@H]3CC[N@H+](Cc4ccccc4)CC3)cc3c2N1CCC3
REMARK SMILES IDX 9 1 7 2 8 3 6 5 24 6 5 7 25 8 4 9 26 10 30 11 3 12 27 13
REMARK SMILES IDX 29 14 2 15 28 16 1 17 10 18 11 19 23 20 12 21 22 22 13 23
REMARK SMILES IDX 14 24 15 26 16 27 17 28 21 29 18 30 20 31 19 32
REMARK H PARENT 8 4 14 25
ROOT
ATOM      1  C   UNL     1     -14.828 -42.577  26.300  1.00  0.00     0.020 C 
ENDROOT
BRANCH   1   2
ATOM      2  C   UNL     1     -14.089 -43.694  26.367  1.00  0.00     0.118 C 
BRANCH   2   3
ATOM      3  O   UNL     1     -14.335 -44.757  25.525  1.00  0.00    -0.508 OA
ATOM      4  H   UNL     1     -13.571 -44.838  24.923  1.00  0.00     0.293 HD
ENDBRANCH   2   3
BRANCH   2   5
ATOM      5  C   UNL     1     -12.963 -43.845  27.304  1.00  0.00     0.017 A 
ATOM      6  C   UNL     1     -12.987 -44.901  28.253  1.00  0.00     0.017 A 
ATOM      7  C   UNL     1     -11.881 -42.940  27.270  1.00  0.00     0.018 A 
ATOM      8  C   UNL     1     -11.946 -45.060  29.170  1.00  0.00    -0.023 A 
ATOM      9  C   UNL     1     -10.850 -43.115  28.171  1.00  0.00    -0.014 A 
ATOM     10  C   UNL     1     -10.909 -44.156  29.083  1.00  0.00     0.051 A 
ATOM     11  C   UNL     1     -11.857 -46.165  30.183  1.00  0.00     0.039 C 
ATOM     12  C   UNL     1      -9.570 -42.362  28.383  1.00  0.00     0.138 C 
ATOM     13  N   UNL     1      -9.785 -44.159  29.894  1.00  0.00    -0.312 N 
ATOM     14  C   UNL     1     -10.924 -45.785  31.349  1.00  0.00     0.027 C 
ATOM     15  C   UNL     1      -8.899 -43.153  29.526  1.00  0.00     0.231 C 
ATOM     16  C   UNL     1      -9.585 -45.217  30.861  1.00  0.00     0.126 C 
ATOM     17  O   UNL     1      -7.799 -42.928  30.003  1.00  0.00    -0.274 OA
ENDBRANCH   2   5
ENDBRANCH   1   2
BRANCH   1  18
ATOM     18  C   UNL     1     -16.243 -42.474  26.792  1.00  0.00     0.035 C 
BRANCH  18  19
ATOM     19  C   UNL     1     -17.283 -42.790  25.701  1.00  0.00     0.004 C 
ATOM     20  C   UNL     1     -18.614 -42.099  26.026  1.00  0.00     0.065 C 
ATOM     21  C   UNL     1     -16.809 -42.372  24.301  1.00  0.00     0.065 C 
ATOM     22  C   UNL     1     -19.667 -42.376  24.964  1.00  0.00     0.262 C 
ATOM     23  C   UNL     1     -17.870 -42.641  23.242  1.00  0.00     0.262 C 
ATOM     24  N   UNL     1     -19.154 -41.938  23.615  1.00  0.00    -0.331 N 
ATOM     25  H   UNL     1     -18.940 -40.934  23.672  1.00  0.00     0.348 HD
BRANCH  24  26
ATOM     26  C   UNL     1     -20.224 -42.075  22.551  1.00  0.00     0.299 C 
BRANCH  26  27
ATOM     27  C   UNL     1     -20.378 -40.838  21.708  1.00  0.00     0.006 A 
ATOM     28  C   UNL     1     -20.470 -39.573  22.306  1.00  0.00     0.009 A 
ATOM     29  C   UNL     1     -20.448 -40.936  20.309  1.00  0.00     0.009 A 
ATOM     30  C   UNL     1     -20.638 -38.431  21.521  1.00  0.00     0.001 A 
ATOM     31  C   UNL     1     -20.617 -39.791  19.529  1.00  0.00     0.001 A 
ATOM     32  C   UNL     1     -20.714 -38.541  20.136  1.00  0.00     0.000 A 
ENDBRANCH  26  27
ENDBRANCH  24  26
ENDBRANCH  18  19
ENDBRANCH   1  18
TORSDOF 7
ENDMDL
MODEL 9
REMARK VINA RESULT:   -10.862      2.515     10.867
REMARK INTER + INTRA:         -15.810
REMARK INTER:                 -15.339
REMARK INTRA:                  -0.472
REMARK UNBOUND:                -0.821
REMARK SMILES O=C1Cc2cc(C(O)=CC[C@H]3CC[N@H+](Cc4ccccc4)CC3)cc3c2N1CCC3
REMARK SMILES IDX 9 1 7 2 8 3 6 5 24 6 5 7 25 8 4 9 26 10 30 11 3 12 27 13
REMARK SMILES IDX 29 14 2 15 28 16 1 17 10 18 11 19 23 20 12 21 22 22 13 23
REMARK SMILES IDX 14 24 15 26 16 27 17 28 21 29 18 30 20 31 19 32
REMARK H PARENT 8 4 14 25
ROOT
ATOM      1  C   UNL     1     -15.451 -42.514  25.682  1.00  0.00     0.020 C 
ENDROOT
BRANCH   1   2
ATOM      2  C   UNL     1     -14.501 -43.453  25.569  1.00  0.00     0.118 C 
BRANCH   2   3
ATOM      3  O   UNL     1     -14.327 -44.148  24.391  1.00  0.00    -0.508 OA
ATOM      4  H   UNL     1     -14.698 -43.602  23.672  1.00  0.00     0.293 HD
ENDBRANCH   2   3
BRANCH   2   5
ATOM      5  C   UNL     1     -13.573 -43.778  26.666  1.00  0.00     0.017 A 
ATOM      6  C   UNL     1     -12.430 -42.961  26.873  1.00  0.00     0.017 A 
ATOM      7  C   UNL     1     -13.811 -44.897  27.492  1.00  0.00     0.018 A 
ATOM      8  C   UNL     1     -11.519 -43.254  27.891  1.00  0.00    -0.023 A 
ATOM      9  C   UNL     1     -12.913 -45.168  28.505  1.00  0.00    -0.014 A 
ATOM     10  C   UNL     1     -11.808 -44.351  28.675  1.00  0.00     0.051 A 
ATOM     11  C   UNL     1     -10.305 -42.432  28.218  1.00  0.00     0.039 C 
ATOM     12  C   UNL     1     -12.882 -46.242  29.552  1.00  0.00     0.138 C 
ATOM     13  N   UNL     1     -11.034 -44.790  29.738  1.00  0.00    -0.312 N 
ATOM     14  C   UNL     1      -9.258 -43.259  28.989  1.00  0.00     0.027 C 
ATOM     15  C   UNL     1     -11.615 -45.890  30.360  1.00  0.00     0.231 C 
ATOM     16  C   UNL     1      -9.876 -44.032  30.162  1.00  0.00     0.126 C 
ATOM     17  O   UNL     1     -11.214 -46.472  31.354  1.00  0.00    -0.274 OA
ENDBRANCH   2   5
ENDBRANCH   1   2
BRANCH   1  18
ATOM     18  C   UNL     1     -16.818 -42.764  26.250  1.00  0.00     0.035 C 
BRANCH  18  19
ATOM     19  C   UNL     1     -17.951 -42.275  25.329  1.00  0.00     0.004 C 
ATOM     20  C   UNL     1     -17.569 -42.500  23.860  1.00  0.00     0.065 C 
ATOM     21  C   UNL     1     -19.290 -42.965  25.629  1.00  0.00     0.065 C 
ATOM     22  C   UNL     1     -18.669 -42.042  22.915  1.00  0.00     0.262 C 
ATOM     23  C   UNL     1     -20.386 -42.512  24.674  1.00  0.00     0.262 C 
ATOM     24  N   UNL     1     -19.953 -42.757  23.248  1.00  0.00    -0.331 N 
ATOM     25  H   UNL     1     -19.783 -43.767  23.155  1.00  0.00     0.348 HD
BRANCH  24  26
ATOM     26  C   UNL     1     -21.040 -42.427  22.244  1.00  0.00     0.299 C 
BRANCH  26  27
ATOM     27  C   UNL     1     -20.849 -41.086  21.589  1.00  0.00     0.006 A 
ATOM     28  C   UNL     1     -21.006 -39.903  22.324  1.00  0.00     0.009 A 
ATOM     29  C   UNL     1     -20.527 -41.002  20.224  1.00  0.00     0.009 A 
ATOM     30  C   UNL     1     -20.853 -38.661  21.706  1.00  0.00     0.001 A 
ATOM     31  C   UNL     1     -20.375 -39.758  19.610  1.00  0.00     0.001 A 
ATOM     32  C   UNL     1     -20.541 -38.589  20.351  1.00  0.00     0.000 A 
ENDBRANCH  26  27
ENDBRANCH  24  26
ENDBRANCH  18  19
ENDBRANCH   1  18
TORSDOF 7
ENDMDL
