MODEL 1
REMARK VINA RESULT:   -13.142      0.000      0.000
REMARK INTER + INTRA:         -18.136
REMARK INTER:                 -16.984
REMARK INTRA:                  -1.152
REMARK UNBOUND:                -1.152
REMARK SMILES COc1ccccc1C(=O)Nc1ccc2c(c1)CN(C(=O)c1cccc(C)c1)C(=O)C2
REMARK SMILES IDX 12 1 13 2 14 3 15 4 16 5 17 6 18 7 19 8 29 9 30 10 31 11
REMARK SMILES IDX 11 12 9 13 10 14 8 16 3 17 4 18 5 19 7 20 6 21 2 22 1 23
REMARK SMILES IDX 20 24 21 25 22 26 23 27 28 28 24 29 26 30 25 31 27 32
REMARK H PARENT 11 15
ROOT
ATOM      1  C   UNL     1     -13.462 -44.653  27.065  1.00  0.00     0.041 A 
ATOM      2  C   UNL     1     -13.324 -46.047  27.052  1.00  0.00     0.026 A 
ATOM      3  C   UNL     1     -12.208 -46.662  27.622  1.00  0.00     0.007 A 
ATOM      4  C   UNL     1     -11.219 -45.888  28.231  1.00  0.00    -0.033 A 
ATOM      5  C   UNL     1     -11.347 -44.496  28.250  1.00  0.00    -0.022 A 
ATOM      6  C   UNL     1     -12.463 -43.883  27.662  1.00  0.00     0.032 A 
ATOM      7  C   UNL     1     -10.236 -43.692  28.863  1.00  0.00     0.164 C 
ATOM      8  N   UNL     1      -9.679 -44.351  30.035  1.00  0.00    -0.274 N 
ATOM      9  C   UNL     1      -9.315 -45.692  29.920  1.00  0.00     0.234 C 
ATOM     10  O   UNL     1      -8.494 -46.248  30.655  1.00  0.00    -0.274 OA
ATOM     11  C   UNL     1      -9.981 -46.505  28.817  1.00  0.00     0.136 C 
ENDROOT
BRANCH   1  12
ATOM     12  N   UNL     1     -14.617 -44.118  26.460  1.00  0.00    -0.322 N 
ATOM     13  C   UNL     1     -14.719 -43.417  25.277  1.00  0.00     0.259 C 
ATOM     14  O   UNL     1     -13.777 -43.141  24.539  1.00  0.00    -0.269 OA
ATOM     15  H   UNL     1     -15.490 -44.265  26.957  1.00  0.00     0.170 HD
BRANCH  13  16
ATOM     16  C   UNL     1     -16.101 -42.962  24.874  1.00  0.00     0.082 A 
ATOM     17  C   UNL     1     -17.104 -42.518  25.766  1.00  0.00     0.131 A 
ATOM     18  C   UNL     1     -18.350 -42.123  25.251  1.00  0.00     0.047 A 
ATOM     19  C   UNL     1     -18.607 -42.162  23.879  1.00  0.00     0.004 A 
ATOM     20  C   UNL     1     -16.383 -42.994  23.494  1.00  0.00     0.018 A 
ATOM     21  C   UNL     1     -17.625 -42.598  22.999  1.00  0.00     0.001 A 
BRANCH  17  22
ATOM     22  O   UNL     1     -16.808 -42.496  27.107  1.00  0.00    -0.496 OA
ATOM     23  C   UNL     1     -17.892 -42.484  28.031  1.00  0.00     0.278 C 
ENDBRANCH  17  22
ENDBRANCH  13  16
ENDBRANCH   1  12
BRANCH   8  24
ATOM     24  C   UNL     1      -8.991 -43.508  30.909  1.00  0.00     0.260 C 
ATOM     25  O   UNL     1      -7.845 -43.116  30.687  1.00  0.00    -0.269 OA
BRANCH  24  26
ATOM     26  C   UNL     1      -9.680 -43.044  32.146  1.00  0.00     0.040 A 
ATOM     27  C   UNL     1      -8.965 -42.735  33.310  1.00  0.00     0.014 A 
ATOM     28  C   UNL     1     -11.080 -42.986  32.154  1.00  0.00     0.017 A 
ATOM     29  C   UNL     1      -9.648 -42.337  34.460  1.00  0.00     0.001 A 
ATOM     30  C   UNL     1     -11.771 -42.601  33.310  1.00  0.00    -0.050 A 
ATOM     31  C   UNL     1     -11.042 -42.262  34.458  1.00  0.00     0.003 A 
ATOM     32  C   UNL     1     -13.267 -42.495  33.300  1.00  0.00     0.044 C 
ENDBRANCH  24  26
ENDBRANCH   8  24
TORSDOF 5
ENDMDL
MODEL 2
REMARK VINA RESULT:   -12.759      0.838      1.800
REMARK INTER + INTRA:         -17.641
REMARK INTER:                 -16.629
REMARK INTRA:                  -1.012
REMARK UNBOUND:                -1.152
REMARK SMILES COc1ccccc1C(=O)Nc1ccc2c(c1)CN(C(=O)c1cccc(C)c1)C(=O)C2
REMARK SMILES IDX 12 1 13 2 14 3 15 4 16 5 17 6 18 7 19 8 29 9 30 10 31 11
REMARK SMILES IDX 11 12 9 13 10 14 8 16 3 17 4 18 5 19 7 20 6 21 2 22 1 23
REMARK SMILES IDX 20 24 21 25 22 26 23 27 28 28 24 29 26 30 25 31 27 32
REMARK H PARENT 11 15
ROOT
ATOM      1  C   UNL     1     -13.500 -44.501  27.186  1.00  0.00     0.041 A 
ATOM      2  C   UNL     1     -13.422 -45.900  27.164  1.00  0.00     0.026 A 
ATOM      3  C   UNL     1     -12.309 -46.565  27.684  1.00  0.00     0.007 A 
ATOM      4  C   UNL     1     -11.263 -45.836  28.251  1.00  0.00    -0.033 A 
ATOM      5  C   UNL     1     -11.330 -44.440  28.279  1.00  0.00    -0.022 A 
ATOM      6  C   UNL     1     -12.443 -43.778  27.741  1.00  0.00     0.032 A 
ATOM      7  C   UNL     1     -10.160 -43.686  28.845  1.00  0.00     0.164 C 
ATOM      8  N   UNL     1      -9.583 -44.374  29.991  1.00  0.00    -0.274 N 
ATOM      9  C   UNL     1      -9.281 -45.728  29.857  1.00  0.00     0.234 C 
ATOM     10  O   UNL     1      -8.455 -46.322  30.555  1.00  0.00    -0.274 OA
ATOM     11  C   UNL     1     -10.029 -46.508  28.782  1.00  0.00     0.136 C 
ENDROOT
BRANCH   1  12
ATOM     12  N   UNL     1     -14.655 -43.916  26.633  1.00  0.00    -0.322 N 
ATOM     13  C   UNL     1     -15.702 -43.300  27.287  1.00  0.00     0.259 C 
ATOM     14  O   UNL     1     -15.787 -43.163  28.505  1.00  0.00    -0.269 OA
ATOM     15  H   UNL     1     -14.733 -43.949  25.622  1.00  0.00     0.170 HD
BRANCH  13  16
ATOM     16  C   UNL     1     -16.818 -42.760  26.426  1.00  0.00     0.082 A 
ATOM     17  C   UNL     1     -16.735 -42.536  25.033  1.00  0.00     0.131 A 
ATOM     18  C   UNL     1     -17.856 -42.027  24.355  1.00  0.00     0.047 A 
ATOM     19  C   UNL     1     -19.041 -41.743  25.037  1.00  0.00     0.004 A 
ATOM     20  C   UNL     1     -18.024 -42.465  27.093  1.00  0.00     0.018 A 
ATOM     21  C   UNL     1     -19.127 -41.960  26.405  1.00  0.00     0.001 A 
BRANCH  17  22
ATOM     22  O   UNL     1     -15.551 -42.830  24.404  1.00  0.00    -0.496 OA
ATOM     23  C   UNL     1     -14.961 -41.826  23.583  1.00  0.00     0.278 C 
ENDBRANCH  17  22
ENDBRANCH  13  16
ENDBRANCH   1  12
BRANCH   8  24
ATOM     24  C   UNL     1      -8.822 -43.564  30.836  1.00  0.00     0.260 C 
ATOM     25  O   UNL     1      -7.681 -43.197  30.553  1.00  0.00    -0.269 OA
BRANCH  24  26
ATOM     26  C   UNL     1      -9.425 -43.105  32.119  1.00  0.00     0.040 A 
ATOM     27  C   UNL     1      -8.634 -42.832  33.243  1.00  0.00     0.014 A 
ATOM     28  C   UNL     1     -10.820 -43.017  32.213  1.00  0.00     0.017 A 
ATOM     29  C   UNL     1      -9.238 -42.438  34.437  1.00  0.00     0.001 A 
ATOM     30  C   UNL     1     -11.431 -42.636  33.415  1.00  0.00    -0.050 A 
ATOM     31  C   UNL     1     -10.627 -42.332  34.521  1.00  0.00     0.003 A 
ATOM     32  C   UNL     1     -12.922 -42.497  33.497  1.00  0.00     0.044 C 
ENDBRANCH  24  26
ENDBRANCH   8  24
TORSDOF 5
ENDMDL
MODEL 3
REMARK VINA RESULT:   -11.363      1.476      9.207
REMARK INTER + INTRA:         -15.837
REMARK INTER:                 -15.134
REMARK INTRA:                  -0.703
REMARK UNBOUND:                -1.152
REMARK SMILES COc1ccccc1C(=O)Nc1ccc2c(c1)CN(C(=O)c1cccc(C)c1)C(=O)C2
REMARK SMILES IDX 12 1 13 2 14 3 15 4 16 5 17 6 18 7 19 8 29 9 30 10 31 11
REMARK SMILES IDX 11 12 9 13 10 14 8 16 3 17 4 18 5 19 7 20 6 21 2 22 1 23
REMARK SMILES IDX 20 24 21 25 22 26 23 27 28 28 24 29 26 30 25 31 27 32
REMARK H PARENT 11 15
ROOT
ATOM      1  C   UNL     1     -11.752 -44.364  29.014  1.00  0.00     0.041 A 
ATOM      2  C   UNL     1     -11.505 -45.666  28.560  1.00  0.00     0.026 A 
ATOM      3  C   UNL     1     -12.196 -46.186  27.462  1.00  0.00     0.007 A 
ATOM      4  C   UNL     1     -13.133 -45.399  26.791  1.00  0.00    -0.033 A 
ATOM      5  C   UNL     1     -13.387 -44.098  27.236  1.00  0.00    -0.022 A 
ATOM      6  C   UNL     1     -12.702 -43.588  28.348  1.00  0.00     0.032 A 
ATOM      7  C   UNL     1     -14.444 -43.301  26.525  1.00  0.00     0.164 C 
ATOM      8  N   UNL     1     -14.431 -43.552  25.091  1.00  0.00    -0.274 N 
ATOM      9  C   UNL     1     -14.437 -44.877  24.659  1.00  0.00     0.234 C 
ATOM     10  O   UNL     1     -14.823 -45.236  23.544  1.00  0.00    -0.274 OA
ATOM     11  C   UNL     1     -13.930 -45.933  25.635  1.00  0.00     0.136 C 
ENDROOT
BRANCH   1  12
ATOM     12  N   UNL     1     -11.015 -43.926  30.132  1.00  0.00    -0.322 N 
ATOM     13  C   UNL     1     -11.321 -44.066  31.470  1.00  0.00     0.259 C 
ATOM     14  O   UNL     1     -12.327 -44.618  31.907  1.00  0.00    -0.269 OA
ATOM     15  H   UNL     1     -10.145 -43.443  29.931  1.00  0.00     0.170 HD
BRANCH  13  16
ATOM     16  C   UNL     1     -10.334 -43.489  32.456  1.00  0.00     0.082 A 
ATOM     17  C   UNL     1      -8.933 -43.672  32.407  1.00  0.00     0.131 A 
ATOM     18  C   UNL     1      -8.132 -43.076  33.394  1.00  0.00     0.047 A 
ATOM     19  C   UNL     1      -8.698 -42.309  34.415  1.00  0.00     0.004 A 
ATOM     20  C   UNL     1     -10.884 -42.712  33.495  1.00  0.00     0.018 A 
ATOM     21  C   UNL     1     -10.073 -42.127  34.468  1.00  0.00     0.001 A 
BRANCH  17  22
ATOM     22  O   UNL     1      -8.420 -44.433  31.385  1.00  0.00    -0.496 OA
ATOM     23  C   UNL     1      -7.374 -45.349  31.694  1.00  0.00     0.278 C 
ENDBRANCH  17  22
ENDBRANCH  13  16
ENDBRANCH   1  12
BRANCH   8  24
ATOM     24  C   UNL     1     -15.035 -42.558  24.319  1.00  0.00     0.260 C 
ATOM     25  O   UNL     1     -14.389 -41.781  23.615  1.00  0.00    -0.269 OA
BRANCH  24  26
ATOM     26  C   UNL     1     -16.521 -42.452  24.327  1.00  0.00     0.040 A 
ATOM     27  C   UNL     1     -17.252 -42.320  23.139  1.00  0.00     0.014 A 
ATOM     28  C   UNL     1     -17.187 -42.415  25.560  1.00  0.00     0.017 A 
ATOM     29  C   UNL     1     -18.640 -42.188  23.188  1.00  0.00     0.001 A 
ATOM     30  C   UNL     1     -18.579 -42.268  25.614  1.00  0.00    -0.050 A 
ATOM     31  C   UNL     1     -19.301 -42.171  24.418  1.00  0.00     0.003 A 
ATOM     32  C   UNL     1     -19.291 -42.277  26.934  1.00  0.00     0.044 C 
ENDBRANCH  24  26
ENDBRANCH   8  24
TORSDOF 5
ENDMDL
MODEL 4
REMARK VINA RESULT:   -11.041      1.628      2.249
REMARK INTER + INTRA:         -15.421
REMARK INTER:                 -15.406
REMARK INTRA:                  -0.015
REMARK UNBOUND:                -1.152
REMARK SMILES COc1ccccc1C(=O)Nc1ccc2c(c1)CN(C(=O)c1cccc(C)c1)C(=O)C2
REMARK SMILES IDX 12 1 13 2 14 3 15 4 16 5 17 6 18 7 19 8 29 9 30 10 31 11
REMARK SMILES IDX 11 12 9 13 10 14 8 16 3 17 4 18 5 19 7 20 6 21 2 22 1 23
REMARK SMILES IDX 20 24 21 25 22 26 23 27 28 28 24 29 26 30 25 31 27 32
REMARK H PARENT 11 15
ROOT
ATOM      1  C   UNL     1     -14.184 -44.335  26.420  1.00  0.00     0.041 A 
ATOM      2  C   UNL     1     -13.817 -45.633  26.040  1.00  0.00     0.026 A 
ATOM      3  C   UNL     1     -12.880 -46.359  26.778  1.00  0.00     0.007 A 
ATOM      4  C   UNL     1     -12.308 -45.799  27.922  1.00  0.00    -0.033 A 
ATOM      5  C   UNL     1     -12.667 -44.505  28.310  1.00  0.00    -0.022 A 
ATOM      6  C   UNL     1     -13.597 -43.776  27.556  1.00  0.00     0.032 A 
ATOM      7  C   UNL     1     -11.988 -43.914  29.513  1.00  0.00     0.164 C 
ATOM      8  N   UNL     1     -11.769 -44.912  30.550  1.00  0.00    -0.274 N 
ATOM      9  C   UNL     1     -11.167 -46.115  30.184  1.00  0.00     0.234 C 
ATOM     10  O   UNL     1     -10.570 -46.854  30.971  1.00  0.00    -0.274 OA
ATOM     11  C   UNL     1     -11.264 -46.527  28.720  1.00  0.00     0.136 C 
ENDROOT
BRANCH   1  12
ATOM     12  N   UNL     1     -15.131 -43.675  25.613  1.00  0.00    -0.322 N 
ATOM     13  C   UNL     1     -14.910 -42.759  24.605  1.00  0.00     0.259 C 
ATOM     14  O   UNL     1     -13.804 -42.364  24.244  1.00  0.00    -0.269 OA
ATOM     15  H   UNL     1     -16.104 -43.899  25.792  1.00  0.00     0.170 HD
BRANCH  13  16
ATOM     16  C   UNL     1     -16.130 -42.212  23.905  1.00  0.00     0.082 A 
ATOM     17  C   UNL     1     -17.460 -42.346  24.363  1.00  0.00     0.131 A 
ATOM     18  C   UNL     1     -18.503 -41.785  23.608  1.00  0.00     0.047 A 
ATOM     19  C   UNL     1     -18.242 -41.099  22.419  1.00  0.00     0.004 A 
ATOM     20  C   UNL     1     -15.890 -41.516  22.703  1.00  0.00     0.018 A 
ATOM     21  C   UNL     1     -16.937 -40.965  21.965  1.00  0.00     0.001 A 
BRANCH  17  22
ATOM     22  O   UNL     1     -17.670 -43.028  25.537  1.00  0.00    -0.496 OA
ATOM     23  C   UNL     1     -18.344 -42.349  26.593  1.00  0.00     0.278 C 
ENDBRANCH  17  22
ENDBRANCH  13  16
ENDBRANCH   1  12
BRANCH   8  24
ATOM     24  C   UNL     1     -11.576 -44.392  31.831  1.00  0.00     0.260 C 
ATOM     25  O   UNL     1     -12.482 -44.324  32.663  1.00  0.00    -0.269 OA
BRANCH  24  26
ATOM     26  C   UNL     1     -10.214 -43.923  32.214  1.00  0.00     0.040 A 
ATOM     27  C   UNL     1      -9.079 -44.298  31.484  1.00  0.00     0.014 A 
ATOM     28  C   UNL     1     -10.070 -43.150  33.374  1.00  0.00     0.017 A 
ATOM     29  C   UNL     1      -7.817 -43.868  31.893  1.00  0.00     0.001 A 
ATOM     30  C   UNL     1      -8.803 -42.729  33.797  1.00  0.00    -0.050 A 
ATOM     31  C   UNL     1      -7.680 -43.081  33.038  1.00  0.00     0.003 A 
ATOM     32  C   UNL     1      -8.659 -41.861  35.012  1.00  0.00     0.044 C 
ENDBRANCH  24  26
ENDBRANCH   8  24
TORSDOF 5
ENDMDL
MODEL 5
REMARK VINA RESULT:   -11.002      3.513     10.500
REMARK INTER + INTRA:         -15.371
REMARK INTER:                 -14.462
REMARK INTRA:                  -0.909
REMARK UNBOUND:                -1.152
REMARK SMILES COc1ccccc1C(=O)Nc1ccc2c(c1)CN(C(=O)c1cccc(C)c1)C(=O)C2
REMARK SMILES IDX 12 1 13 2 14 3 15 4 16 5 17 6 18 7 19 8 29 9 30 10 31 11
REMARK SMILES IDX 11 12 9 13 10 14 8 16 3 17 4 18 5 19 7 20 6 21 2 22 1 23
REMARK SMILES IDX 20 24 21 25 22 26 23 27 28 28 24 29 26 30 25 31 27 32
REMARK H PARENT 11 15
ROOT
ATOM      1  C   UNL     1     -15.384 -42.847  24.348  1.00  0.00     0.041 A 
ATOM      2  C   UNL     1     -14.862 -41.787  23.597  1.00  0.00     0.026 A 
ATOM      3  C   UNL     1     -15.684 -41.025  22.764  1.00  0.00     0.007 A 
ATOM      4  C   UNL     1     -17.049 -41.304  22.685  1.00  0.00    -0.033 A 
ATOM      5  C   UNL     1     -17.581 -42.360  23.432  1.00  0.00    -0.022 A 
ATOM      6  C   UNL     1     -16.748 -43.131  24.254  1.00  0.00     0.032 A 
ATOM      7  C   UNL     1     -19.044 -42.668  23.278  1.00  0.00     0.164 C 
ATOM      8  N   UNL     1     -19.835 -41.454  23.134  1.00  0.00    -0.274 N 
ATOM      9  C   UNL     1     -19.426 -40.514  22.189  1.00  0.00     0.234 C 
ATOM     10  O   UNL     1     -20.175 -39.675  21.684  1.00  0.00    -0.274 OA
ATOM     11  C   UNL     1     -17.961 -40.538  21.769  1.00  0.00     0.136 C 
ENDROOT
BRANCH   1  12
ATOM     12  N   UNL     1     -14.481 -43.566  25.155  1.00  0.00    -0.322 N 
ATOM     13  C   UNL     1     -14.311 -43.498  26.523  1.00  0.00     0.259 C 
ATOM     14  O   UNL     1     -14.952 -42.769  27.276  1.00  0.00    -0.269 OA
ATOM     15  H   UNL     1     -13.873 -44.219  24.672  1.00  0.00     0.170 HD
BRANCH  13  16
ATOM     16  C   UNL     1     -13.254 -44.395  27.121  1.00  0.00     0.082 A 
ATOM     17  C   UNL     1     -12.115 -43.951  27.829  1.00  0.00     0.131 A 
ATOM     18  C   UNL     1     -11.210 -44.900  28.333  1.00  0.00     0.047 A 
ATOM     19  C   UNL     1     -11.423 -46.268  28.144  1.00  0.00     0.004 A 
ATOM     20  C   UNL     1     -13.448 -45.780  26.943  1.00  0.00     0.018 A 
ATOM     21  C   UNL     1     -12.540 -46.710  27.449  1.00  0.00     0.001 A 
BRANCH  17  22
ATOM     22  O   UNL     1     -11.946 -42.597  27.991  1.00  0.00    -0.496 OA
ATOM     23  C   UNL     1     -10.616 -42.095  28.078  1.00  0.00     0.278 C 
ENDBRANCH  17  22
ENDBRANCH  13  16
ENDBRANCH   1  12
BRANCH   8  24
ATOM     24  C   UNL     1     -21.190 -41.600  23.439  1.00  0.00     0.260 C 
ATOM     25  O   UNL     1     -21.976 -42.193  22.700  1.00  0.00    -0.269 OA
BRANCH  24  26
ATOM     26  C   UNL     1     -21.697 -41.038  24.723  1.00  0.00     0.040 A 
ATOM     27  C   UNL     1     -21.055 -41.299  25.941  1.00  0.00     0.014 A 
ATOM     28  C   UNL     1     -22.883 -40.292  24.709  1.00  0.00     0.017 A 
ATOM     29  C   UNL     1     -21.579 -40.785  27.127  1.00  0.00     0.001 A 
ATOM     30  C   UNL     1     -23.420 -39.785  25.899  1.00  0.00    -0.050 A 
ATOM     31  C   UNL     1     -22.750 -40.025  27.106  1.00  0.00     0.003 A 
ATOM     32  C   UNL     1     -24.663 -38.947  25.873  1.00  0.00     0.044 C 
ENDBRANCH  24  26
ENDBRANCH   8  24
TORSDOF 5
ENDMDL
MODEL 6
REMARK VINA RESULT:   -10.818      3.396     10.802
REMARK INTER + INTRA:         -15.133
REMARK INTER:                 -14.657
REMARK INTRA:                  -0.476
REMARK UNBOUND:                -1.152
REMARK SMILES COc1ccccc1C(=O)Nc1ccc2c(c1)CN(C(=O)c1cccc(C)c1)C(=O)C2
REMARK SMILES IDX 12 1 13 2 14 3 15 4 16 5 17 6 18 7 19 8 29 9 30 10 31 11
REMARK SMILES IDX 11 12 9 13 10 14 8 16 3 17 4 18 5 19 7 20 6 21 2 22 1 23
REMARK SMILES IDX 20 24 21 25 22 26 23 27 28 28 24 29 26 30 25 31 27 32
REMARK H PARENT 11 15
ROOT
ATOM      1  C   UNL     1     -16.248 -43.104  27.496  1.00  0.00     0.041 A 
ATOM      2  C   UNL     1     -17.024 -42.767  28.613  1.00  0.00     0.026 A 
ATOM      3  C   UNL     1     -18.285 -42.185  28.460  1.00  0.00     0.007 A 
ATOM      4  C   UNL     1     -18.793 -41.946  27.182  1.00  0.00    -0.033 A 
ATOM      5  C   UNL     1     -18.026 -42.279  26.062  1.00  0.00    -0.022 A 
ATOM      6  C   UNL     1     -16.756 -42.849  26.221  1.00  0.00     0.032 A 
ATOM      7  C   UNL     1     -18.582 -41.955  24.703  1.00  0.00     0.164 C 
ATOM      8  N   UNL     1     -20.020 -42.171  24.646  1.00  0.00    -0.274 N 
ATOM      9  C   UNL     1     -20.807 -41.606  25.650  1.00  0.00     0.234 C 
ATOM     10  O   UNL     1     -22.010 -41.362  25.526  1.00  0.00    -0.274 OA
ATOM     11  C   UNL     1     -20.124 -41.281  26.973  1.00  0.00     0.136 C 
ENDROOT
BRANCH   1  12
ATOM     12  N   UNL     1     -14.987 -43.681  27.745  1.00  0.00    -0.322 N 
ATOM     13  C   UNL     1     -14.135 -44.299  26.852  1.00  0.00     0.259 C 
ATOM     14  O   UNL     1     -14.358 -44.444  25.652  1.00  0.00    -0.269 OA
ATOM     15  H   UNL     1     -14.658 -43.640  28.704  1.00  0.00     0.170 HD
BRANCH  13  16
ATOM     16  C   UNL     1     -12.837 -44.829  27.408  1.00  0.00     0.082 A 
ATOM     17  C   UNL     1     -11.799 -44.037  27.951  1.00  0.00     0.131 A 
ATOM     18  C   UNL     1     -10.641 -44.667  28.435  1.00  0.00     0.047 A 
ATOM     19  C   UNL     1     -10.503 -46.056  28.388  1.00  0.00     0.004 A 
ATOM     20  C   UNL     1     -12.676 -46.229  27.371  1.00  0.00     0.018 A 
ATOM     21  C   UNL     1     -11.519 -46.839  27.856  1.00  0.00     0.001 A 
BRANCH  17  22
ATOM     22  O   UNL     1     -11.977 -42.676  27.977  1.00  0.00    -0.496 OA
ATOM     23  C   UNL     1     -10.817 -41.850  28.031  1.00  0.00     0.278 C 
ENDBRANCH  17  22
ENDBRANCH  13  16
ENDBRANCH   1  12
BRANCH   8  24
ATOM     24  C   UNL     1     -20.536 -42.338  23.360  1.00  0.00     0.260 C 
ATOM     25  O   UNL     1     -21.028 -43.399  22.975  1.00  0.00    -0.269 OA
BRANCH  24  26
ATOM     26  C   UNL     1     -20.512 -41.178  22.425  1.00  0.00     0.040 A 
ATOM     27  C   UNL     1     -19.382 -40.886  21.650  1.00  0.00     0.014 A 
ATOM     28  C   UNL     1     -21.624 -40.326  22.380  1.00  0.00     0.017 A 
ATOM     29  C   UNL     1     -19.384 -39.771  20.811  1.00  0.00     0.001 A 
ATOM     30  C   UNL     1     -21.624 -39.198  21.551  1.00  0.00    -0.050 A 
ATOM     31  C   UNL     1     -20.502 -38.936  20.755  1.00  0.00     0.003 A 
ATOM     32  C   UNL     1     -22.835 -38.316  21.471  1.00  0.00     0.044 C 
ENDBRANCH  24  26
ENDBRANCH   8  24
TORSDOF 5
ENDMDL
MODEL 7
REMARK VINA RESULT:   -10.648      2.832      9.716
REMARK INTER + INTRA:         -14.912
REMARK INTER:                 -14.327
REMARK INTRA:                  -0.585
REMARK UNBOUND:                -1.152
REMARK SMILES COc1ccccc1C(=O)Nc1ccc2c(c1)CN(C(=O)c1cccc(C)c1)C(=O)C2
REMARK SMILES IDX 12 1 13 2 14 3 15 4 16 5 17 6 18 7 19 8 29 9 30 10 31 11
REMARK SMILES IDX 11 12 9 13 10 14 8 16 3 17 4 18 5 19 7 20 6 21 2 22 1 23
REMARK SMILES IDX 20 24 21 25 22 26 23 27 28 28 24 29 26 30 25 31 27 32
REMARK H PARENT 11 15
ROOT
ATOM      1  C   UNL     1     -14.111 -43.186  26.611  1.00  0.00     0.041 A 
ATOM      2  C   UNL     1     -13.500 -42.711  25.444  1.00  0.00     0.026 A 
ATOM      3  C   UNL     1     -14.260 -42.382  24.319  1.00  0.00     0.007 A 
ATOM      4  C   UNL     1     -15.650 -42.510  24.355  1.00  0.00    -0.033 A 
ATOM      5  C   UNL     1     -16.270 -42.983  25.515  1.00  0.00    -0.022 A 
ATOM      6  C   UNL     1     -15.499 -43.326  26.635  1.00  0.00     0.032 A 
ATOM      7  C   UNL     1     -17.761 -43.162  25.497  1.00  0.00     0.164 C 
ATOM      8  N   UNL     1     -18.419 -42.105  24.743  1.00  0.00    -0.274 N 
ATOM      9  C   UNL     1     -17.940 -41.817  23.465  1.00  0.00     0.234 C 
ATOM     10  O   UNL     1     -18.609 -41.266  22.587  1.00  0.00    -0.274 OA
ATOM     11  C   UNL     1     -16.502 -42.210  23.154  1.00  0.00     0.136 C 
ENDROOT
BRANCH   1  12
ATOM     12  N   UNL     1     -13.266 -43.499  27.694  1.00  0.00    -0.322 N 
ATOM     13  C   UNL     1     -12.634 -44.694  27.972  1.00  0.00     0.259 C 
ATOM     14  O   UNL     1     -12.717 -45.709  27.286  1.00  0.00    -0.269 OA
ATOM     15  H   UNL     1     -13.097 -42.751  28.359  1.00  0.00     0.170 HD
BRANCH  13  16
ATOM     16  C   UNL     1     -11.782 -44.737  29.217  1.00  0.00     0.082 A 
ATOM     17  C   UNL     1     -11.015 -43.660  29.717  1.00  0.00     0.131 A 
ATOM     18  C   UNL     1     -10.266 -43.842  30.891  1.00  0.00     0.047 A 
ATOM     19  C   UNL     1     -10.269 -45.065  31.565  1.00  0.00     0.004 A 
ATOM     20  C   UNL     1     -11.769 -45.963  29.913  1.00  0.00     0.018 A 
ATOM     21  C   UNL     1     -11.019 -46.127  31.077  1.00  0.00     0.001 A 
BRANCH  17  22
ATOM     22  O   UNL     1     -11.042 -42.475  29.023  1.00  0.00    -0.496 OA
ATOM     23  C   UNL     1      -9.949 -42.183  28.157  1.00  0.00     0.278 C 
ENDBRANCH  17  22
ENDBRANCH  13  16
ENDBRANCH   1  12
BRANCH   8  24
ATOM     24  C   UNL     1     -19.771 -41.927  25.043  1.00  0.00     0.260 C 
ATOM     25  O   UNL     1     -20.383 -40.895  24.764  1.00  0.00    -0.269 OA
BRANCH  24  26
ATOM     26  C   UNL     1     -20.508 -43.041  25.704  1.00  0.00     0.040 A 
ATOM     27  C   UNL     1     -20.763 -43.034  27.082  1.00  0.00     0.014 A 
ATOM     28  C   UNL     1     -20.888 -44.148  24.933  1.00  0.00     0.017 A 
ATOM     29  C   UNL     1     -21.425 -44.110  27.672  1.00  0.00     0.001 A 
ATOM     30  C   UNL     1     -21.540 -45.238  25.524  1.00  0.00    -0.050 A 
ATOM     31  C   UNL     1     -21.819 -45.202  26.896  1.00  0.00     0.003 A 
ATOM     32  C   UNL     1     -21.987 -46.398  24.686  1.00  0.00     0.044 C 
ENDBRANCH  24  26
ENDBRANCH   8  24
TORSDOF 5
ENDMDL
MODEL 8
REMARK VINA RESULT:   -10.379      3.216      9.917
REMARK INTER + INTRA:         -14.566
REMARK INTER:                 -14.141
REMARK INTRA:                  -0.425
REMARK UNBOUND:                -1.152
REMARK SMILES COc1ccccc1C(=O)Nc1ccc2c(c1)CN(C(=O)c1cccc(C)c1)C(=O)C2
REMARK SMILES IDX 12 1 13 2 14 3 15 4 16 5 17 6 18 7 19 8 29 9 30 10 31 11
REMARK SMILES IDX 11 12 9 13 10 14 8 16 3 17 4 18 5 19 7 20 6 21 2 22 1 23
REMARK SMILES IDX 20 24 21 25 22 26 23 27 28 28 24 29 26 30 25 31 27 32
REMARK H PARENT 11 15
ROOT
ATOM      1  C   UNL     1     -14.626 -42.653  26.204  1.00  0.00     0.041 A 
ATOM      2  C   UNL     1     -14.540 -42.404  24.828  1.00  0.00     0.026 A 
ATOM      3  C   UNL     1     -15.692 -42.314  24.043  1.00  0.00     0.007 A 
ATOM      4  C   UNL     1     -16.950 -42.457  24.630  1.00  0.00    -0.033 A 
ATOM      5  C   UNL     1     -17.046 -42.705  26.003  1.00  0.00    -0.022 A 
ATOM      6  C   UNL     1     -15.886 -42.809  26.783  1.00  0.00     0.032 A 
ATOM      7  C   UNL     1     -18.414 -42.910  26.590  1.00  0.00     0.164 C 
ATOM      8  N   UNL     1     -19.399 -42.032  25.975  1.00  0.00    -0.274 N 
ATOM      9  C   UNL     1     -19.460 -41.991  24.583  1.00  0.00     0.234 C 
ATOM     10  O   UNL     1     -20.455 -41.634  23.947  1.00  0.00    -0.274 OA
ATOM     11  C   UNL     1     -18.212 -42.412  23.816  1.00  0.00     0.136 C 
ENDROOT
BRANCH   1  12
ATOM     12  N   UNL     1     -13.413 -42.733  26.916  1.00  0.00    -0.322 N 
ATOM     13  C   UNL     1     -12.756 -43.860  27.368  1.00  0.00     0.259 C 
ATOM     14  O   UNL     1     -13.148 -45.014  27.209  1.00  0.00    -0.269 OA
ATOM     15  H   UNL     1     -12.959 -41.851  27.127  1.00  0.00     0.170 HD
BRANCH  13  16
ATOM     16  C   UNL     1     -11.461 -43.639  28.111  1.00  0.00     0.082 A 
ATOM     17  C   UNL     1     -11.088 -44.289  29.309  1.00  0.00     0.131 A 
ATOM     18  C   UNL     1      -9.848 -43.985  29.894  1.00  0.00     0.047 A 
ATOM     19  C   UNL     1      -8.984 -43.056  29.309  1.00  0.00     0.004 A 
ATOM     20  C   UNL     1     -10.574 -42.705  27.538  1.00  0.00     0.018 A 
ATOM     21  C   UNL     1      -9.346 -42.415  28.132  1.00  0.00     0.001 A 
BRANCH  17  22
ATOM     22  O   UNL     1     -11.968 -45.196  29.849  1.00  0.00    -0.496 OA
ATOM     23  C   UNL     1     -11.522 -45.990  30.944  1.00  0.00     0.278 C 
ENDBRANCH  17  22
ENDBRANCH  13  16
ENDBRANCH   1  12
BRANCH   8  24
ATOM     24  C   UNL     1     -20.551 -41.823  26.735  1.00  0.00     0.260 C 
ATOM     25  O   UNL     1     -20.857 -40.719  27.186  1.00  0.00    -0.269 OA
BRANCH  24  26
ATOM     26  C   UNL     1     -21.459 -42.978  26.988  1.00  0.00     0.040 A 
ATOM     27  C   UNL     1     -21.085 -44.031  27.832  1.00  0.00     0.014 A 
ATOM     28  C   UNL     1     -22.682 -43.034  26.306  1.00  0.00     0.017 A 
ATOM     29  C   UNL     1     -21.947 -45.112  28.017  1.00  0.00     0.001 A 
ATOM     30  C   UNL     1     -23.544 -44.124  26.478  1.00  0.00    -0.050 A 
ATOM     31  C   UNL     1     -23.174 -45.155  27.351  1.00  0.00     0.003 A 
ATOM     32  C   UNL     1     -24.873 -44.157  25.783  1.00  0.00     0.044 C 
ENDBRANCH  24  26
ENDBRANCH   8  24
TORSDOF 5
ENDMDL
