MODEL 1
REMARK VINA RESULT:   -11.489      0.000      0.000
REMARK INTER + INTRA:         -16.399
REMARK INTER:                 -15.854
REMARK INTRA:                  -0.545
REMARK UNBOUND:                -0.545
REMARK SMILES COc1cc2c(cc1OC)C(O)=C(C[C@H]1CC[N@H+](Cc3ccccc3)CC1)C2
REMARK SMILES IDX 14 1 13 2 11 3 6 4 28 5 7 6 5 7 8 8 4 9 3 10 12 11 9 13
REMARK SMILES IDX 10 14 2 15 1 16 15 17 27 18 16 19 26 20 17 21 18 22 19 24
REMARK SMILES IDX 20 25 21 26 25 27 22 28 24 29 23 30
REMARK H PARENT 12 12 18 23
ROOT
ATOM      1  C   UNL     1     -13.457 -44.049  26.324  1.00  0.00     0.039 C 
ENDROOT
BRANCH   1   2
ATOM      2  C   UNL     1     -14.819 -43.509  25.999  1.00  0.00    -0.023 C 
ATOM      3  C   UNL     1     -15.430 -43.298  24.819  1.00  0.00     0.122 C 
ATOM      4  C   UNL     1     -16.771 -42.774  25.048  1.00  0.00     0.024 A 
ATOM      5  C   UNL     1     -15.740 -43.143  27.153  1.00  0.00     0.071 C 
ATOM      6  C   UNL     1     -17.771 -42.389  24.175  1.00  0.00     0.062 A 
ATOM      7  C   UNL     1     -16.968 -42.677  26.427  1.00  0.00    -0.029 A 
ATOM      8  C   UNL     1     -18.988 -41.920  24.695  1.00  0.00     0.161 A 
ATOM      9  C   UNL     1     -18.154 -42.195  26.964  1.00  0.00     0.055 A 
ATOM     10  C   UNL     1     -19.180 -41.796  26.094  1.00  0.00     0.161 A 
BRANCH   3  11
ATOM     11  O   UNL     1     -14.943 -43.542  23.573  1.00  0.00    -0.507 OA
ATOM     12  H   UNL     1     -15.699 -43.777  23.005  1.00  0.00     0.293 HD
ENDBRANCH   3  11
BRANCH   8  13
ATOM     13  O   UNL     1     -19.883 -41.566  23.714  1.00  0.00    -0.493 OA
ATOM     14  C   UNL     1     -19.326 -41.205  22.454  1.00  0.00     0.278 C 
ENDBRANCH   8  13
BRANCH  10  15
ATOM     15  O   UNL     1     -20.365 -41.260  26.523  1.00  0.00    -0.493 OA
ATOM     16  C   UNL     1     -21.450 -42.143  26.773  1.00  0.00     0.278 C 
ENDBRANCH  10  15
ENDBRANCH   1   2
BRANCH   1  17
ATOM     17  C   UNL     1     -13.143 -44.341  27.804  1.00  0.00     0.004 C 
ATOM     18  C   UNL     1     -13.110 -45.848  28.098  1.00  0.00     0.065 C 
ATOM     19  C   UNL     1     -11.793 -43.727  28.202  1.00  0.00     0.065 C 
ATOM     20  C   UNL     1     -12.803 -46.118  29.564  1.00  0.00     0.262 C 
ATOM     21  C   UNL     1     -11.471 -43.999  29.665  1.00  0.00     0.262 C 
ATOM     22  N   UNL     1     -11.479 -45.482  29.926  1.00  0.00    -0.331 N 
ATOM     23  H   UNL     1     -10.769 -45.913  29.321  1.00  0.00     0.348 HD
BRANCH  22  24
ATOM     24  C   UNL     1     -11.060 -45.793  31.349  1.00  0.00     0.299 C 
BRANCH  24  25
ATOM     25  C   UNL     1      -9.736 -45.182  31.721  1.00  0.00     0.006 A 
ATOM     26  C   UNL     1      -8.534 -45.808  31.358  1.00  0.00     0.009 A 
ATOM     27  C   UNL     1      -9.685 -43.965  32.419  1.00  0.00     0.009 A 
ATOM     28  C   UNL     1      -7.308 -45.224  31.681  1.00  0.00     0.001 A 
ATOM     29  C   UNL     1      -8.457 -43.387  32.741  1.00  0.00     0.001 A 
ATOM     30  C   UNL     1      -7.270 -44.015  32.370  1.00  0.00     0.000 A 
ENDBRANCH  24  25
ENDBRANCH  22  24
ENDBRANCH   1  17
TORSDOF 7
ENDMDL
MODEL 2
REMARK VINA RESULT:   -11.188      1.121      2.163
REMARK INTER + INTRA:         -15.985
REMARK INTER:                 -15.780
REMARK INTRA:                  -0.204
REMARK UNBOUND:                -0.545
REMARK SMILES COc1cc2c(cc1OC)C(O)=C(C[C@H]1CC[N@H+](Cc3ccccc3)CC1)C2
REMARK SMILES IDX 14 1 13 2 11 3 6 4 28 5 7 6 5 7 8 8 4 9 3 10 12 11 9 13
REMARK SMILES IDX 10 14 2 15 1 16 15 17 27 18 16 19 26 20 17 21 18 22 19 24
REMARK SMILES IDX 20 25 21 26 25 27 22 28 24 29 23 30
REMARK H PARENT 12 12 18 23
ROOT
ATOM      1  C   UNL     1     -13.448 -43.513  26.136  1.00  0.00     0.039 C 
ENDROOT
BRANCH   1   2
ATOM      2  C   UNL     1     -14.867 -43.199  25.764  1.00  0.00    -0.023 C 
ATOM      3  C   UNL     1     -15.933 -42.884  26.522  1.00  0.00     0.122 C 
ATOM      4  C   UNL     1     -17.090 -42.647  25.667  1.00  0.00     0.024 A 
ATOM      5  C   UNL     1     -15.235 -43.185  24.288  1.00  0.00     0.071 C 
ATOM      6  C   UNL     1     -18.400 -42.315  25.960  1.00  0.00     0.062 A 
ATOM      7  C   UNL     1     -16.690 -42.822  24.340  1.00  0.00    -0.029 A 
ATOM      8  C   UNL     1     -19.311 -42.140  24.907  1.00  0.00     0.161 A 
ATOM      9  C   UNL     1     -17.579 -42.676  23.285  1.00  0.00     0.055 A 
ATOM     10  C   UNL     1     -18.914 -42.343  23.561  1.00  0.00     0.161 A 
BRANCH   3  11
ATOM     11  O   UNL     1     -15.985 -42.758  27.875  1.00  0.00    -0.507 OA
ATOM     12  H   UNL     1     -15.851 -41.816  28.085  1.00  0.00     0.293 HD
ENDBRANCH   3  11
BRANCH   8  13
ATOM     13  O   UNL     1     -20.574 -41.823  25.346  1.00  0.00    -0.493 OA
ATOM     14  C   UNL     1     -20.664 -41.256  26.648  1.00  0.00     0.278 C 
ENDBRANCH   8  13
BRANCH  10  15
ATOM     15  O   UNL     1     -19.878 -42.227  22.595  1.00  0.00    -0.493 OA
ATOM     16  C   UNL     1     -20.066 -40.959  21.982  1.00  0.00     0.278 C 
ENDBRANCH  10  15
ENDBRANCH   1   2
BRANCH   1  17
ATOM     17  C   UNL     1     -13.176 -43.963  27.585  1.00  0.00     0.004 C 
ATOM     18  C   UNL     1     -13.346 -45.480  27.758  1.00  0.00     0.065 C 
ATOM     19  C   UNL     1     -11.755 -43.571  28.015  1.00  0.00     0.065 C 
ATOM     20  C   UNL     1     -13.079 -45.906  29.193  1.00  0.00     0.262 C 
ATOM     21  C   UNL     1     -11.473 -44.000  29.449  1.00  0.00     0.262 C 
ATOM     22  N   UNL     1     -11.681 -45.485  29.591  1.00  0.00    -0.331 N 
ATOM     23  H   UNL     1     -11.036 -45.957  28.946  1.00  0.00     0.348 HD
BRANCH  22  24
ATOM     24  C   UNL     1     -11.307 -45.962  30.979  1.00  0.00     0.299 C 
BRANCH  24  25
ATOM     25  C   UNL     1      -9.932 -45.524  31.404  1.00  0.00     0.006 A 
ATOM     26  C   UNL     1      -8.805 -46.294  31.079  1.00  0.00     0.009 A 
ATOM     27  C   UNL     1      -9.755 -44.325  32.115  1.00  0.00     0.009 A 
ATOM     28  C   UNL     1      -7.528 -45.870  31.452  1.00  0.00     0.001 A 
ATOM     29  C   UNL     1      -8.477 -43.907  32.485  1.00  0.00     0.001 A 
ATOM     30  C   UNL     1      -7.365 -44.677  32.152  1.00  0.00     0.000 A 
ENDBRANCH  24  25
ENDBRANCH  22  24
ENDBRANCH   1  17
TORSDOF 7
ENDMDL
MODEL 3
REMARK VINA RESULT:   -10.078      4.082     10.283
REMARK INTER + INTRA:         -14.452
REMARK INTER:                 -13.778
REMARK INTRA:                  -0.674
REMARK UNBOUND:                -0.545
REMARK SMILES COc1cc2c(cc1OC)C(O)=C(C[C@H]1CC[N@H+](Cc3ccccc3)CC1)C2
REMARK SMILES IDX 14 1 13 2 11 3 6 4 28 5 7 6 5 7 8 8 4 9 3 10 12 11 9 13
REMARK SMILES IDX 10 14 2 15 1 16 15 17 27 18 16 19 26 20 17 21 18 22 19 24
REMARK SMILES IDX 20 25 21 26 25 27 22 28 24 29 23 30
REMARK H PARENT 12 12 18 23
ROOT
ATOM      1  C   UNL     1     -11.286 -46.182  29.151  1.00  0.00     0.039 C 
ENDROOT
BRANCH   1   2
ATOM      2  C   UNL     1     -10.632 -45.356  30.220  1.00  0.00    -0.023 C 
ATOM      3  C   UNL     1     -11.155 -44.676  31.257  1.00  0.00     0.122 C 
ATOM      4  C   UNL     1     -10.083 -44.049  32.022  1.00  0.00     0.024 A 
ATOM      5  C   UNL     1      -9.115 -45.247  30.216  1.00  0.00     0.071 C 
ATOM      6  C   UNL     1     -10.102 -43.246  33.147  1.00  0.00     0.062 A 
ATOM      7  C   UNL     1      -8.869 -44.380  31.416  1.00  0.00    -0.029 A 
ATOM      8  C   UNL     1      -8.886 -42.786  33.678  1.00  0.00     0.161 A 
ATOM      9  C   UNL     1      -7.657 -43.919  31.910  1.00  0.00     0.055 A 
ATOM     10  C   UNL     1      -7.655 -43.100  33.049  1.00  0.00     0.161 A 
BRANCH   3  11
ATOM     11  O   UNL     1     -12.464 -44.572  31.611  1.00  0.00    -0.507 OA
ATOM     12  H   UNL     1     -12.525 -44.776  32.562  1.00  0.00     0.293 HD
ENDBRANCH   3  11
BRANCH   8  13
ATOM     13  O   UNL     1      -9.058 -41.993  34.786  1.00  0.00    -0.493 OA
ATOM     14  C   UNL     1     -10.401 -41.654  35.116  1.00  0.00     0.278 C 
ENDBRANCH   8  13
BRANCH  10  15
ATOM     15  O   UNL     1      -6.518 -42.553  33.582  1.00  0.00    -0.493 OA
ATOM     16  C   UNL     1      -5.308 -43.291  33.487  1.00  0.00     0.278 C 
ENDBRANCH  10  15
ENDBRANCH   1   2
BRANCH   1  17
ATOM     17  C   UNL     1     -11.910 -45.434  27.958  1.00  0.00     0.004 C 
ATOM     18  C   UNL     1     -13.391 -45.794  27.764  1.00  0.00     0.065 C 
ATOM     19  C   UNL     1     -11.789 -43.915  28.148  1.00  0.00     0.065 C 
ATOM     20  C   UNL     1     -13.990 -45.051  26.580  1.00  0.00     0.262 C 
ATOM     21  C   UNL     1     -12.394 -43.160  26.972  1.00  0.00     0.262 C 
ATOM     22  N   UNL     1     -13.834 -43.561  26.790  1.00  0.00    -0.331 N 
ATOM     23  H   UNL     1     -14.337 -43.330  27.656  1.00  0.00     0.348 HD
BRANCH  22  24
ATOM     24  C   UNL     1     -14.496 -42.751  25.695  1.00  0.00     0.299 C 
BRANCH  24  25
ATOM     25  C   UNL     1     -15.987 -42.636  25.863  1.00  0.00     0.006 A 
ATOM     26  C   UNL     1     -16.555 -42.527  27.142  1.00  0.00     0.009 A 
ATOM     27  C   UNL     1     -16.831 -42.614  24.740  1.00  0.00     0.009 A 
ATOM     28  C   UNL     1     -17.936 -42.393  27.292  1.00  0.00     0.001 A 
ATOM     29  C   UNL     1     -18.210 -42.481  24.897  1.00  0.00     0.001 A 
ATOM     30  C   UNL     1     -18.762 -42.369  26.170  1.00  0.00     0.000 A 
ENDBRANCH  24  25
ENDBRANCH  22  24
ENDBRANCH   1  17
TORSDOF 7
ENDMDL
MODEL 4
REMARK VINA RESULT:   -10.056      3.741     10.313
REMARK INTER + INTRA:         -14.422
REMARK INTER:                 -13.729
REMARK INTRA:                  -0.692
REMARK UNBOUND:                -0.545
REMARK SMILES COc1cc2c(cc1OC)C(O)=C(C[C@H]1CC[N@H+](Cc3ccccc3)CC1)C2
REMARK SMILES IDX 14 1 13 2 11 3 6 4 28 5 7 6 5 7 8 8 4 9 3 10 12 11 9 13
REMARK SMILES IDX 10 14 2 15 1 16 15 17 27 18 16 19 26 20 17 21 18 22 19 24
REMARK SMILES IDX 20 25 21 26 25 27 22 28 24 29 23 30
REMARK H PARENT 12 12 18 23
ROOT
ATOM      1  C   UNL     1     -13.434 -45.409  27.555  1.00  0.00     0.039 C 
ENDROOT
BRANCH   1   2
ATOM      2  C   UNL     1     -12.581 -44.936  28.696  1.00  0.00    -0.023 C 
ATOM      3  C   UNL     1     -12.881 -44.691  29.984  1.00  0.00     0.122 C 
ATOM      4  C   UNL     1     -11.681 -44.266  30.695  1.00  0.00     0.024 A 
ATOM      5  C   UNL     1     -11.101 -44.698  28.435  1.00  0.00     0.071 C 
ATOM      6  C   UNL     1     -11.473 -43.891  32.010  1.00  0.00     0.062 A 
ATOM      7  C   UNL     1     -10.619 -44.266  29.789  1.00  0.00    -0.029 A 
ATOM      8  C   UNL     1     -10.180 -43.531  32.419  1.00  0.00     0.161 A 
ATOM      9  C   UNL     1      -9.337 -43.891  30.166  1.00  0.00     0.055 A 
ATOM     10  C   UNL     1      -9.106 -43.505  31.495  1.00  0.00     0.161 A 
BRANCH   3  11
ATOM     11  O   UNL     1     -14.086 -44.829  30.600  1.00  0.00    -0.507 OA
ATOM     12  H   UNL     1     -14.380 -43.939  30.867  1.00  0.00     0.293 HD
ENDBRANCH   3  11
BRANCH   8  13
ATOM     13  O   UNL     1     -10.124 -43.173  33.745  1.00  0.00    -0.493 OA
ATOM     14  C   UNL     1     -10.875 -42.023  34.119  1.00  0.00     0.278 C 
ENDBRANCH   8  13
BRANCH  10  15
ATOM     15  O   UNL     1      -7.890 -43.070  31.953  1.00  0.00    -0.493 OA
ATOM     16  C   UNL     1      -7.009 -44.024  32.530  1.00  0.00     0.278 C 
ENDBRANCH  10  15
ENDBRANCH   1   2
BRANCH   1  17
ATOM     17  C   UNL     1     -13.828 -44.374  26.485  1.00  0.00     0.004 C 
ATOM     18  C   UNL     1     -14.277 -45.042  25.176  1.00  0.00     0.065 C 
ATOM     19  C   UNL     1     -14.959 -43.471  26.996  1.00  0.00     0.065 C 
ATOM     20  C   UNL     1     -14.657 -44.005  24.130  1.00  0.00     0.262 C 
ATOM     21  C   UNL     1     -15.355 -42.434  25.952  1.00  0.00     0.262 C 
ATOM     22  N   UNL     1     -15.757 -43.121  24.674  1.00  0.00    -0.331 N 
ATOM     23  H   UNL     1     -16.554 -43.735  24.883  1.00  0.00     0.348 HD
BRANCH  22  24
ATOM     24  C   UNL     1     -16.257 -42.124  23.648  1.00  0.00     0.299 C 
BRANCH  24  25
ATOM     25  C   UNL     1     -17.754 -41.975  23.650  1.00  0.00     0.006 A 
ATOM     26  C   UNL     1     -18.533 -42.602  24.633  1.00  0.00     0.009 A 
ATOM     27  C   UNL     1     -18.391 -41.187  22.676  1.00  0.00     0.009 A 
ATOM     28  C   UNL     1     -19.919 -42.439  24.646  1.00  0.00     0.001 A 
ATOM     29  C   UNL     1     -19.777 -41.029  22.694  1.00  0.00     0.001 A 
ATOM     30  C   UNL     1     -20.540 -41.652  23.679  1.00  0.00     0.000 A 
ENDBRANCH  24  25
ENDBRANCH  22  24
ENDBRANCH   1  17
TORSDOF 7
ENDMDL
MODEL 5
REMARK VINA RESULT:    -9.656      1.533      2.186
REMARK INTER + INTRA:         -13.870
REMARK INTER:                 -14.056
REMARK INTRA:                   0.186
REMARK UNBOUND:                -0.545
REMARK SMILES COc1cc2c(cc1OC)C(O)=C(C[C@H]1CC[N@H+](Cc3ccccc3)CC1)C2
REMARK SMILES IDX 14 1 13 2 11 3 6 4 28 5 7 6 5 7 8 8 4 9 3 10 12 11 9 13
REMARK SMILES IDX 10 14 2 15 1 16 15 17 27 18 16 19 26 20 17 21 18 22 19 24
REMARK SMILES IDX 20 25 21 26 25 27 22 28 24 29 23 30
REMARK H PARENT 12 12 18 23
ROOT
ATOM      1  C   UNL     1     -14.091 -42.449  25.500  1.00  0.00     0.039 C 
ENDROOT
BRANCH   1   2
ATOM      2  C   UNL     1     -15.483 -42.390  24.942  1.00  0.00    -0.023 C 
ATOM      3  C   UNL     1     -15.948 -41.929  23.766  1.00  0.00     0.122 C 
ATOM      4  C   UNL     1     -17.392 -42.121  23.700  1.00  0.00     0.024 A 
ATOM      5  C   UNL     1     -16.618 -42.959  25.781  1.00  0.00     0.071 C 
ATOM      6  C   UNL     1     -18.319 -41.806  22.725  1.00  0.00     0.062 A 
ATOM      7  C   UNL     1     -17.802 -42.730  24.888  1.00  0.00    -0.029 A 
ATOM      8  C   UNL     1     -19.670 -42.123  22.940  1.00  0.00     0.161 A 
ATOM      9  C   UNL     1     -19.134 -43.033  25.132  1.00  0.00     0.055 A 
ATOM     10  C   UNL     1     -20.091 -42.718  24.156  1.00  0.00     0.161 A 
BRANCH   3  11
ATOM     11  O   UNL     1     -15.234 -41.387  22.743  1.00  0.00    -0.507 OA
ATOM     12  H   UNL     1     -15.699 -41.607  21.915  1.00  0.00     0.293 HD
ENDBRANCH   3  11
BRANCH   8  13
ATOM     13  O   UNL     1     -20.477 -41.744  21.894  1.00  0.00    -0.493 OA
ATOM     14  C   UNL     1     -20.824 -42.766  20.965  1.00  0.00     0.278 C 
ENDBRANCH   8  13
BRANCH  10  15
ATOM     15  O   UNL     1     -21.435 -42.929  24.322  1.00  0.00    -0.493 OA
ATOM     16  C   UNL     1     -21.888 -44.264  24.499  1.00  0.00     0.278 C 
ENDBRANCH  10  15
ENDBRANCH   1   2
BRANCH   1  17
ATOM     17  C   UNL     1     -13.787 -43.549  26.535  1.00  0.00     0.004 C 
ATOM     18  C   UNL     1     -12.359 -43.436  27.090  1.00  0.00     0.065 C 
ATOM     19  C   UNL     1     -14.781 -43.482  27.704  1.00  0.00     0.065 C 
ATOM     20  C   UNL     1     -12.074 -44.531  28.107  1.00  0.00     0.262 C 
ATOM     21  C   UNL     1     -14.500 -44.569  28.732  1.00  0.00     0.262 C 
ATOM     22  N   UNL     1     -13.083 -44.450  29.231  1.00  0.00    -0.331 N 
ATOM     23  H   UNL     1     -12.976 -43.521  29.658  1.00  0.00     0.348 HD
BRANCH  22  24
ATOM     24  C   UNL     1     -12.803 -45.451  30.333  1.00  0.00     0.299 C 
BRANCH  24  25
ATOM     25  C   UNL     1     -11.442 -45.281  30.953  1.00  0.00     0.006 A 
ATOM     26  C   UNL     1     -10.491 -46.309  30.878  1.00  0.00     0.009 A 
ATOM     27  C   UNL     1     -11.099 -44.081  31.598  1.00  0.00     0.009 A 
ATOM     28  C   UNL     1      -9.220 -46.137  31.430  1.00  0.00     0.001 A 
ATOM     29  C   UNL     1      -9.829 -43.916  32.149  1.00  0.00     0.001 A 
ATOM     30  C   UNL     1      -8.890 -44.941  32.063  1.00  0.00     0.000 A 
ENDBRANCH  24  25
ENDBRANCH  22  24
ENDBRANCH   1  17
TORSDOF 7
ENDMDL
MODEL 6
REMARK VINA RESULT:    -9.343      3.591     10.252
REMARK INTER + INTRA:         -13.439
REMARK INTER:                 -13.018
REMARK INTRA:                  -0.420
REMARK UNBOUND:                -0.545
REMARK SMILES COc1cc2c(cc1OC)C(O)=C(C[C@H]1CC[N@H+](Cc3ccccc3)CC1)C2
REMARK SMILES IDX 14 1 13 2 11 3 6 4 28 5 7 6 5 7 8 8 4 9 3 10 12 11 9 13
REMARK SMILES IDX 10 14 2 15 1 16 15 17 27 18 16 19 26 20 17 21 18 22 19 24
REMARK SMILES IDX 20 25 21 26 25 27 22 28 24 29 23 30
REMARK H PARENT 12 12 18 23
ROOT
ATOM      1  C   UNL     1     -13.786 -43.157  25.326  1.00  0.00     0.039 C 
ENDROOT
BRANCH   1   2
ATOM      2  C   UNL     1     -13.307 -43.651  26.660  1.00  0.00    -0.023 C 
ATOM      3  C   UNL     1     -12.236 -43.310  27.398  1.00  0.00     0.122 C 
ATOM      4  C   UNL     1     -12.232 -44.075  28.640  1.00  0.00     0.024 A 
ATOM      5  C   UNL     1     -14.144 -44.700  27.379  1.00  0.00     0.071 C 
ATOM      6  C   UNL     1     -11.352 -44.098  29.705  1.00  0.00     0.062 A 
ATOM      7  C   UNL     1     -13.358 -44.902  28.641  1.00  0.00    -0.029 A 
ATOM      8  C   UNL     1     -11.615 -44.950  30.790  1.00  0.00     0.161 A 
ATOM      9  C   UNL     1     -13.626 -45.768  29.692  1.00  0.00     0.055 A 
ATOM     10  C   UNL     1     -12.743 -45.809  30.781  1.00  0.00     0.161 A 
BRANCH   3  11
ATOM     11  O   UNL     1     -11.284 -42.383  27.107  1.00  0.00    -0.507 OA
ATOM     12  H   UNL     1     -11.025 -41.959  27.945  1.00  0.00     0.293 HD
ENDBRANCH   3  11
BRANCH   8  13
ATOM     13  O   UNL     1     -10.654 -44.876  31.768  1.00  0.00    -0.493 OA
ATOM     14  C   UNL     1     -10.667 -43.704  32.577  1.00  0.00     0.278 C 
ENDBRANCH   8  13
BRANCH  10  15
ATOM     15  O   UNL     1     -12.892 -46.664  31.841  1.00  0.00    -0.493 OA
ATOM     16  C   UNL     1     -14.132 -46.663  32.535  1.00  0.00     0.278 C 
ENDBRANCH  10  15
ENDBRANCH   1   2
BRANCH   1  17
ATOM     17  C   UNL     1     -15.286 -43.311  25.007  1.00  0.00     0.004 C 
ATOM     18  C   UNL     1     -16.162 -42.470  25.948  1.00  0.00     0.065 C 
ATOM     19  C   UNL     1     -15.576 -42.898  23.557  1.00  0.00     0.065 C 
ATOM     20  C   UNL     1     -17.639 -42.636  25.622  1.00  0.00     0.262 C 
ATOM     21  C   UNL     1     -17.053 -43.053  23.222  1.00  0.00     0.262 C 
ATOM     22  N   UNL     1     -17.884 -42.243  24.183  1.00  0.00    -0.331 N 
ATOM     23  H   UNL     1     -17.602 -41.260  24.093  1.00  0.00     0.348 HD
BRANCH  22  24
ATOM     24  C   UNL     1     -19.353 -42.290  23.813  1.00  0.00     0.299 C 
BRANCH  24  25
ATOM     25  C   UNL     1     -19.791 -41.117  22.979  1.00  0.00     0.006 A 
ATOM     26  C   UNL     1     -19.056 -40.731  21.848  1.00  0.00     0.009 A 
ATOM     27  C   UNL     1     -20.955 -40.404  23.311  1.00  0.00     0.009 A 
ATOM     28  C   UNL     1     -19.481 -39.659  21.062  1.00  0.00     0.001 A 
ATOM     29  C   UNL     1     -21.374 -39.333  22.521  1.00  0.00     0.001 A 
ATOM     30  C   UNL     1     -20.639 -38.963  21.397  1.00  0.00     0.000 A 
ENDBRANCH  24  25
ENDBRANCH  22  24
ENDBRANCH   1  17
TORSDOF 7
ENDMDL
MODEL 7
REMARK VINA RESULT:    -9.155      3.621     10.688
REMARK INTER + INTRA:         -13.178
REMARK INTER:                 -13.028
REMARK INTRA:                  -0.150
REMARK UNBOUND:                -0.545
REMARK SMILES COc1cc2c(cc1OC)C(O)=C(C[C@H]1CC[N@H+](Cc3ccccc3)CC1)C2
REMARK SMILES IDX 14 1 13 2 11 3 6 4 28 5 7 6 5 7 8 8 4 9 3 10 12 11 9 13
REMARK SMILES IDX 10 14 2 15 1 16 15 17 27 18 16 19 26 20 17 21 18 22 19 24
REMARK SMILES IDX 20 25 21 26 25 27 22 28 24 29 23 30
REMARK H PARENT 12 12 18 23
ROOT
ATOM      1  C   UNL     1     -16.461 -42.438  25.336  1.00  0.00     0.039 C 
ENDROOT
BRANCH   1   2
ATOM      2  C   UNL     1     -15.597 -43.221  26.282  1.00  0.00    -0.023 C 
ATOM      3  C   UNL     1     -15.596 -43.293  27.625  1.00  0.00     0.122 C 
ATOM      4  C   UNL     1     -14.561 -44.222  28.065  1.00  0.00     0.024 A 
ATOM      5  C   UNL     1     -14.536 -44.138  25.693  1.00  0.00     0.071 C 
ATOM      6  C   UNL     1     -14.158 -44.623  29.325  1.00  0.00     0.062 A 
ATOM      7  C   UNL     1     -13.926 -44.730  26.929  1.00  0.00    -0.029 A 
ATOM      8  C   UNL     1     -13.116 -45.557  29.443  1.00  0.00     0.161 A 
ATOM      9  C   UNL     1     -12.880 -45.637  27.023  1.00  0.00     0.055 A 
ATOM     10  C   UNL     1     -12.453 -46.054  28.293  1.00  0.00     0.161 A 
BRANCH   3  11
ATOM     11  O   UNL     1     -16.421 -42.652  28.496  1.00  0.00    -0.507 OA
ATOM     12  H   UNL     1     -16.147 -41.718  28.523  1.00  0.00     0.293 HD
ENDBRANCH   3  11
BRANCH   8  13
ATOM     13  O   UNL     1     -12.816 -45.854  30.750  1.00  0.00    -0.493 OA
ATOM     14  C   UNL     1     -13.256 -44.916  31.726  1.00  0.00     0.278 C 
ENDBRANCH   8  13
BRANCH  10  15
ATOM     15  O   UNL     1     -11.398 -46.904  28.492  1.00  0.00    -0.493 OA
ATOM     16  C   UNL     1     -10.114 -46.340  28.723  1.00  0.00     0.278 C 
ENDBRANCH  10  15
ENDBRANCH   1   2
BRANCH   1  17
ATOM     17  C   UNL     1     -17.981 -42.683  25.393  1.00  0.00     0.004 C 
ATOM     18  C   UNL     1     -18.621 -42.036  26.630  1.00  0.00     0.065 C 
ATOM     19  C   UNL     1     -18.665 -42.133  24.133  1.00  0.00     0.065 C 
ATOM     20  C   UNL     1     -20.120 -42.291  26.673  1.00  0.00     0.262 C 
ATOM     21  C   UNL     1     -20.168 -42.375  24.169  1.00  0.00     0.262 C 
ATOM     22  N   UNL     1     -20.758 -41.756  25.409  1.00  0.00    -0.331 N 
ATOM     23  H   UNL     1     -20.562 -40.748  25.383  1.00  0.00     0.348 HD
BRANCH  22  24
ATOM     24  C   UNL     1     -22.268 -41.888  25.424  1.00  0.00     0.299 C 
BRANCH  24  25
ATOM     25  C   UNL     1     -22.964 -40.647  25.913  1.00  0.00     0.006 A 
ATOM     26  C   UNL     1     -23.622 -39.796  25.012  1.00  0.00     0.009 A 
ATOM     27  C   UNL     1     -22.982 -40.334  27.282  1.00  0.00     0.009 A 
ATOM     28  C   UNL     1     -24.290 -38.661  25.473  1.00  0.00     0.001 A 
ATOM     29  C   UNL     1     -23.650 -39.197  27.736  1.00  0.00     0.001 A 
ATOM     30  C   UNL     1     -24.306 -38.363  26.834  1.00  0.00     0.000 A 
ENDBRANCH  24  25
ENDBRANCH  22  24
ENDBRANCH   1  17
TORSDOF 7
ENDMDL
MODEL 8
REMARK VINA RESULT:    -9.118      2.075      3.320
REMARK INTER + INTRA:         -13.128
REMARK INTER:                 -12.666
REMARK INTRA:                  -0.462
REMARK UNBOUND:                -0.545
REMARK SMILES COc1cc2c(cc1OC)C(O)=C(C[C@H]1CC[N@H+](Cc3ccccc3)CC1)C2
REMARK SMILES IDX 14 1 13 2 11 3 6 4 28 5 7 6 5 7 8 8 4 9 3 10 12 11 9 13
REMARK SMILES IDX 10 14 2 15 1 16 15 17 27 18 16 19 26 20 17 21 18 22 19 24
REMARK SMILES IDX 20 25 21 26 25 27 22 28 24 29 23 30
REMARK H PARENT 12 12 18 23
ROOT
ATOM      1  C   UNL     1     -14.874 -42.019  24.428  1.00  0.00     0.039 C 
ENDROOT
BRANCH   1   2
ATOM      2  C   UNL     1     -16.362 -42.180  24.544  1.00  0.00    -0.023 C 
ATOM      3  C   UNL     1     -17.329 -42.171  23.608  1.00  0.00     0.122 C 
ATOM      4  C   UNL     1     -18.624 -42.393  24.241  1.00  0.00     0.024 A 
ATOM      5  C   UNL     1     -16.952 -42.430  25.924  1.00  0.00     0.071 C 
ATOM      6  C   UNL     1     -19.904 -42.456  23.722  1.00  0.00     0.062 A 
ATOM      7  C   UNL     1     -18.415 -42.548  25.613  1.00  0.00    -0.029 A 
ATOM      8  C   UNL     1     -20.981 -42.695  24.590  1.00  0.00     0.161 A 
ATOM      9  C   UNL     1     -19.467 -42.762  26.492  1.00  0.00     0.055 A 
ATOM     10  C   UNL     1     -20.773 -42.826  25.986  1.00  0.00     0.161 A 
BRANCH   3  11
ATOM     11  O   UNL     1     -17.188 -42.018  22.264  1.00  0.00    -0.507 OA
ATOM     12  H   UNL     1     -17.139 -41.062  22.084  1.00  0.00     0.293 HD
ENDBRANCH   3  11
BRANCH   8  13
ATOM     13  O   UNL     1     -22.191 -42.721  23.939  1.00  0.00    -0.493 OA
ATOM     14  C   UNL     1     -22.674 -44.006  23.559  1.00  0.00     0.278 C 
ENDBRANCH   8  13
BRANCH  10  15
ATOM     15  O   UNL     1     -21.881 -42.982  26.776  1.00  0.00    -0.493 OA
ATOM     16  C   UNL     1     -21.987 -44.162  27.560  1.00  0.00     0.278 C 
ENDBRANCH  10  15
ENDBRANCH   1   2
BRANCH   1  17
ATOM     17  C   UNL     1     -13.991 -43.128  25.031  1.00  0.00     0.004 C 
ATOM     18  C   UNL     1     -13.613 -42.832  26.490  1.00  0.00     0.065 C 
ATOM     19  C   UNL     1     -14.707 -44.485  24.968  1.00  0.00     0.065 C 
ATOM     20  C   UNL     1     -12.738 -43.935  27.068  1.00  0.00     0.262 C 
ATOM     21  C   UNL     1     -13.843 -45.594  25.551  1.00  0.00     0.262 C 
ATOM     22  N   UNL     1     -13.464 -45.258  26.970  1.00  0.00    -0.331 N 
ATOM     23  H   UNL     1     -14.330 -45.160  27.513  1.00  0.00     0.348 HD
BRANCH  22  24
ATOM     24  C   UNL     1     -12.691 -46.390  27.615  1.00  0.00     0.299 C 
BRANCH  24  25
ATOM     25  C   UNL     1     -12.316 -46.109  29.045  1.00  0.00     0.006 A 
ATOM     26  C   UNL     1     -10.978 -46.177  29.459  1.00  0.00     0.009 A 
ATOM     27  C   UNL     1     -13.302 -45.755  29.982  1.00  0.00     0.009 A 
ATOM     28  C   UNL     1     -10.631 -45.889  30.780  1.00  0.00     0.001 A 
ATOM     29  C   UNL     1     -12.949 -45.469  31.301  1.00  0.00     0.001 A 
ATOM     30  C   UNL     1     -11.616 -45.534  31.699  1.00  0.00     0.000 A 
ENDBRANCH  24  25
ENDBRANCH  22  24
ENDBRANCH   1  17
TORSDOF 7
ENDMDL
MODEL 9
REMARK VINA RESULT:    -9.081      3.562     10.460
REMARK INTER + INTRA:         -13.076
REMARK INTER:                 -12.756
REMARK INTRA:                  -0.320
REMARK UNBOUND:                -0.545
REMARK SMILES COc1cc2c(cc1OC)C(O)=C(C[C@H]1CC[N@H+](Cc3ccccc3)CC1)C2
REMARK SMILES IDX 14 1 13 2 11 3 6 4 28 5 7 6 5 7 8 8 4 9 3 10 12 11 9 13
REMARK SMILES IDX 10 14 2 15 1 16 15 17 27 18 16 19 26 20 17 21 18 22 19 24
REMARK SMILES IDX 20 25 21 26 25 27 22 28 24 29 23 30
REMARK H PARENT 12 12 18 23
ROOT
ATOM      1  C   UNL     1     -16.489 -42.408  24.963  1.00  0.00     0.039 C 
ENDROOT
BRANCH   1   2
ATOM      2  C   UNL     1     -15.598 -43.254  25.826  1.00  0.00    -0.023 C 
ATOM      3  C   UNL     1     -14.643 -44.146  25.507  1.00  0.00     0.122 C 
ATOM      4  C   UNL     1     -14.051 -44.687  26.724  1.00  0.00     0.024 A 
ATOM      5  C   UNL     1     -15.717 -43.112  27.336  1.00  0.00     0.071 C 
ATOM      6  C   UNL     1     -13.059 -45.628  26.927  1.00  0.00     0.062 A 
ATOM      7  C   UNL     1     -14.678 -44.083  27.816  1.00  0.00    -0.029 A 
ATOM      8  C   UNL     1     -12.682 -45.951  28.240  1.00  0.00     0.161 A 
ATOM      9  C   UNL     1     -14.338 -44.403  29.123  1.00  0.00     0.055 A 
ATOM     10  C   UNL     1     -13.336 -45.358  29.349  1.00  0.00     0.161 A 
BRANCH   3  11
ATOM     11  O   UNL     1     -14.223 -44.509  24.265  1.00  0.00    -0.507 OA
ATOM     12  H   UNL     1     -13.264 -44.672  24.318  1.00  0.00     0.293 HD
ENDBRANCH   3  11
BRANCH   8  13
ATOM     13  O   UNL     1     -11.695 -46.906  28.290  1.00  0.00    -0.493 OA
ATOM     14  C   UNL     1     -10.363 -46.427  28.443  1.00  0.00     0.278 C 
ENDBRANCH   8  13
BRANCH  10  15
ATOM     15  O   UNL     1     -12.965 -45.780  30.599  1.00  0.00    -0.493 OA
ATOM     16  C   UNL     1     -12.785 -44.801  31.612  1.00  0.00     0.278 C 
ENDBRANCH  10  15
ENDBRANCH   1   2
BRANCH   1  17
ATOM     17  C   UNL     1     -18.007 -42.658  25.048  1.00  0.00     0.004 C 
ATOM     18  C   UNL     1     -18.576 -42.280  26.424  1.00  0.00     0.065 C 
ATOM     19  C   UNL     1     -18.748 -41.859  23.966  1.00  0.00     0.065 C 
ATOM     20  C   UNL     1     -20.074 -42.537  26.491  1.00  0.00     0.262 C 
ATOM     21  C   UNL     1     -20.250 -42.102  24.030  1.00  0.00     0.262 C 
ATOM     22  N   UNL     1     -20.769 -41.752  25.400  1.00  0.00    -0.331 N 
ATOM     23  H   UNL     1     -20.563 -40.761  25.572  1.00  0.00     0.348 HD
BRANCH  22  24
ATOM     24  C   UNL     1     -22.277 -41.883  25.466  1.00  0.00     0.299 C 
BRANCH  24  25
ATOM     25  C   UNL     1     -22.958 -40.631  25.950  1.00  0.00     0.006 A 
ATOM     26  C   UNL     1     -23.644 -39.799  25.052  1.00  0.00     0.009 A 
ATOM     27  C   UNL     1     -22.933 -40.289  27.312  1.00  0.00     0.009 A 
ATOM     28  C   UNL     1     -24.297 -38.654  25.510  1.00  0.00     0.001 A 
ATOM     29  C   UNL     1     -23.587 -39.143  27.763  1.00  0.00     0.001 A 
ATOM     30  C   UNL     1     -24.270 -38.327  26.864  1.00  0.00     0.000 A 
ENDBRANCH  24  25
ENDBRANCH  22  24
ENDBRANCH   1  17
TORSDOF 7
ENDMDL
