MODEL 1
REMARK VINA RESULT:    -9.930      0.000      0.000
REMARK INTER + INTRA:         -10.220
REMARK INTER:                 -10.220
REMARK INTRA:                   0.000
REMARK UNBOUND:                 0.000
REMARK SMILES CC1=C[C@H]2Cc3nc4cc(Cl)ccc4c(N)c3[C@@H](C1)C2
REMARK SMILES IDX 1 1 2 2 3 3 4 4 5 5 6 6 7 7 8 8 9 9 10 10 11 11 12 12 13 13
REMARK SMILES IDX 14 14 15 15 17 16 18 17 19 18 20 19 16 20
REMARK H PARENT 16 21 16 22
ROOT
ATOM      1  C   UNL     1      -9.853 -43.729  31.333  1.00  0.00     0.039 C 
ATOM      2  C   UNL     1     -11.144 -44.488  31.231  1.00  0.00    -0.076 C 
ATOM      3  C   UNL     1     -12.236 -44.148  31.941  1.00  0.00    -0.024 C 
ATOM      4  C   UNL     1     -13.538 -44.914  31.865  1.00  0.00     0.018 C 
ATOM      5  C   UNL     1     -14.529 -44.215  30.925  1.00  0.00     0.064 C 
ATOM      6  C   UNL     1     -14.256 -44.449  29.455  1.00  0.00     0.047 A 
ATOM      7  N   UNL     1     -14.995 -43.687  28.616  1.00  0.00    -0.252 NA
ATOM      8  C   UNL     1     -14.886 -43.881  27.298  1.00  0.00     0.074 A 
ATOM      9  C   UNL     1     -15.695 -43.114  26.472  1.00  0.00     0.049 A 
ATOM     10  C   UNL     1     -15.669 -43.268  25.090  1.00  0.00     0.043 A 
ATOM     11  Cl  UNL     1     -16.692 -42.302  24.099  1.00  0.00    -0.084 Cl
ATOM     12  C   UNL     1     -14.830 -44.203  24.506  1.00  0.00     0.021 A 
ATOM     13  C   UNL     1     -14.004 -44.978  25.322  1.00  0.00     0.014 A 
ATOM     14  C   UNL     1     -14.004 -44.826  26.731  1.00  0.00     0.024 A 
ATOM     15  C   UNL     1     -13.170 -45.564  27.620  1.00  0.00     0.046 A 
ATOM     16  C   UNL     1     -13.351 -45.422  29.010  1.00  0.00     0.001 A 
ATOM     17  C   UNL     1     -12.567 -46.252  30.024  1.00  0.00     0.028 C 
ATOM     18  C   UNL     1     -11.159 -45.656  30.268  1.00  0.00     0.039 C 
ATOM     19  C   UNL     1     -13.314 -46.340  31.359  1.00  0.00     0.017 C 
ENDROOT
BRANCH  15  20
ATOM     20  N   UNL     1     -12.317 -46.577  27.117  1.00  0.00    -0.398 N 
ATOM     21  H   UNL     1     -11.674 -46.262  26.401  1.00  0.00     0.156 HD
ATOM     22  H   UNL     1     -12.814 -47.404  26.804  1.00  0.00     0.156 HD
ENDBRANCH  15  20
TORSDOF 1
ENDMDL
MODEL 2
REMARK VINA RESULT:    -9.720      4.390      7.972
REMARK INTER + INTRA:         -10.004
REMARK INTER:                 -10.004
REMARK INTRA:                   0.000
REMARK UNBOUND:                 0.000
REMARK SMILES CC1=C[C@H]2Cc3nc4cc(Cl)ccc4c(N)c3[C@@H](C1)C2
REMARK SMILES IDX 1 1 2 2 3 3 4 4 5 5 6 6 7 7 8 8 9 9 10 10 11 11 12 12 13 13
REMARK SMILES IDX 14 14 15 15 17 16 18 17 19 18 20 19 16 20
REMARK H PARENT 16 21 16 22
ROOT
ATOM      1  C   UNL     1     -22.477 -44.986  25.240  1.00  0.00     0.039 C 
ATOM      2  C   UNL     1     -21.819 -43.639  25.313  1.00  0.00    -0.076 C 
ATOM      3  C   UNL     1     -21.846 -42.885  26.428  1.00  0.00    -0.024 C 
ATOM      4  C   UNL     1     -21.206 -41.517  26.512  1.00  0.00     0.018 C 
ATOM      5  C   UNL     1     -19.828 -41.597  27.183  1.00  0.00     0.064 C 
ATOM      6  C   UNL     1     -18.728 -42.104  26.276  1.00  0.00     0.047 A 
ATOM      7  N   UNL     1     -17.557 -42.366  26.902  1.00  0.00    -0.252 NA
ATOM      8  C   UNL     1     -16.501 -42.738  26.173  1.00  0.00     0.074 A 
ATOM      9  C   UNL     1     -15.306 -42.951  26.845  1.00  0.00     0.049 A 
ATOM     10  C   UNL     1     -14.148 -43.312  26.164  1.00  0.00     0.043 A 
ATOM     11  Cl  UNL     1     -12.684 -43.561  27.033  1.00  0.00    -0.084 Cl
ATOM     12  C   UNL     1     -14.166 -43.462  24.787  1.00  0.00     0.021 A 
ATOM     13  C   UNL     1     -15.361 -43.259  24.096  1.00  0.00     0.014 A 
ATOM     14  C   UNL     1     -16.555 -42.906  24.773  1.00  0.00     0.024 A 
ATOM     15  C   UNL     1     -17.813 -42.708  24.134  1.00  0.00     0.046 A 
ATOM     16  C   UNL     1     -18.902 -42.230  24.892  1.00  0.00     0.001 A 
ATOM     17  C   UNL     1     -20.251 -41.898  24.260  1.00  0.00     0.028 C 
ATOM     18  C   UNL     1     -21.106 -43.173  24.060  1.00  0.00     0.039 C 
ATOM     19  C   UNL     1     -21.032 -40.900  25.123  1.00  0.00     0.017 C 
ENDROOT
BRANCH  15  20
ATOM     20  N   UNL     1     -17.915 -42.791  22.724  1.00  0.00    -0.398 N 
ATOM     21  H   UNL     1     -17.717 -41.923  22.241  1.00  0.00     0.156 HD
ATOM     22  H   UNL     1     -18.797 -43.179  22.405  1.00  0.00     0.156 HD
ENDBRANCH  15  20
TORSDOF 1
ENDMDL
MODEL 3
REMARK VINA RESULT:    -9.376      2.109      2.747
REMARK INTER + INTRA:          -9.650
REMARK INTER:                  -9.650
REMARK INTRA:                   0.000
REMARK UNBOUND:                 0.000
REMARK SMILES CC1=C[C@H]2Cc3nc4cc(Cl)ccc4c(N)c3[C@@H](C1)C2
REMARK SMILES IDX 1 1 2 2 3 3 4 4 5 5 6 6 7 7 8 8 9 9 10 10 11 11 12 12 13 13
REMARK SMILES IDX 14 14 15 15 17 16 18 17 19 18 20 19 16 20
REMARK H PARENT 16 21 16 22
ROOT
ATOM      1  C   UNL     1     -10.274 -42.407  29.019  1.00  0.00     0.039 C 
ATOM      2  C   UNL     1     -11.265 -43.534  29.009  1.00  0.00    -0.076 C 
ATOM      3  C   UNL     1     -11.819 -44.015  30.138  1.00  0.00    -0.024 C 
ATOM      4  C   UNL     1     -12.803 -45.163  30.148  1.00  0.00     0.018 C 
ATOM      5  C   UNL     1     -14.246 -44.647  30.236  1.00  0.00     0.064 C 
ATOM      6  C   UNL     1     -14.797 -44.128  28.927  1.00  0.00     0.047 A 
ATOM      7  N   UNL     1     -15.987 -43.493  29.028  1.00  0.00    -0.252 NA
ATOM      8  C   UNL     1     -16.596 -43.073  27.915  1.00  0.00     0.074 A 
ATOM      9  C   UNL     1     -17.837 -42.469  28.057  1.00  0.00     0.049 A 
ATOM     10  C   UNL     1     -18.556 -42.027  26.951  1.00  0.00     0.043 A 
ATOM     11  Cl  UNL     1     -20.095 -41.288  27.166  1.00  0.00    -0.084 Cl
ATOM     12  C   UNL     1     -18.043 -42.188  25.673  1.00  0.00     0.021 A 
ATOM     13  C   UNL     1     -16.793 -42.787  25.514  1.00  0.00     0.014 A 
ATOM     14  C   UNL     1     -16.038 -43.230  26.629  1.00  0.00     0.024 A 
ATOM     15  C   UNL     1     -14.746 -43.825  26.540  1.00  0.00     0.046 A 
ATOM     16  C   UNL     1     -14.148 -44.347  27.705  1.00  0.00     0.001 A 
ATOM     17  C   UNL     1     -12.814 -45.088  27.673  1.00  0.00     0.028 C 
ATOM     18  C   UNL     1     -11.622 -44.099  27.650  1.00  0.00     0.039 C 
ATOM     19  C   UNL     1     -12.671 -46.016  28.885  1.00  0.00     0.017 C 
ENDROOT
BRANCH  15  20
ATOM     20  N   UNL     1     -14.165 -44.075  25.272  1.00  0.00    -0.398 N 
ATOM     21  H   UNL     1     -14.831 -44.322  24.551  1.00  0.00     0.156 HD
ATOM     22  H   UNL     1     -13.410 -44.753  25.301  1.00  0.00     0.156 HD
ENDBRANCH  15  20
TORSDOF 1
ENDMDL
MODEL 4
REMARK VINA RESULT:    -9.326      1.941      2.875
REMARK INTER + INTRA:          -9.599
REMARK INTER:                  -9.599
REMARK INTRA:                   0.000
REMARK UNBOUND:                 0.000
REMARK SMILES CC1=C[C@H]2Cc3nc4cc(Cl)ccc4c(N)c3[C@@H](C1)C2
REMARK SMILES IDX 1 1 2 2 3 3 4 4 5 5 6 6 7 7 8 8 9 9 10 10 11 11 12 12 13 13
REMARK SMILES IDX 14 14 15 15 17 16 18 17 19 18 20 19 16 20
REMARK H PARENT 16 21 16 22
ROOT
ATOM      1  C   UNL     1      -7.879 -46.658  30.915  1.00  0.00     0.039 C 
ATOM      2  C   UNL     1      -8.933 -45.644  31.257  1.00  0.00    -0.076 C 
ATOM      3  C   UNL     1      -8.655 -44.333  31.382  1.00  0.00    -0.024 C 
ATOM      4  C   UNL     1      -9.700 -43.301  31.746  1.00  0.00     0.018 C 
ATOM      5  C   UNL     1     -10.212 -42.577  30.494  1.00  0.00     0.064 C 
ATOM      6  C   UNL     1     -11.215 -43.372  29.687  1.00  0.00     0.047 A 
ATOM      7  N   UNL     1     -11.526 -42.833  28.486  1.00  0.00    -0.252 NA
ATOM      8  C   UNL     1     -12.465 -43.418  27.736  1.00  0.00     0.074 A 
ATOM      9  C   UNL     1     -12.790 -42.809  26.532  1.00  0.00     0.049 A 
ATOM     10  C   UNL     1     -13.776 -43.331  25.701  1.00  0.00     0.043 A 
ATOM     11  Cl  UNL     1     -14.154 -42.544  24.219  1.00  0.00    -0.084 Cl
ATOM     12  C   UNL     1     -14.463 -44.478  26.066  1.00  0.00     0.021 A 
ATOM     13  C   UNL     1     -14.143 -45.107  27.270  1.00  0.00     0.014 A 
ATOM     14  C   UNL     1     -13.132 -44.600  28.124  1.00  0.00     0.024 A 
ATOM     15  C   UNL     1     -12.738 -45.205  29.352  1.00  0.00     0.046 A 
ATOM     16  C   UNL     1     -11.813 -44.539  30.181  1.00  0.00     0.001 A 
ATOM     17  C   UNL     1     -11.419 -45.073  31.556  1.00  0.00     0.028 C 
ATOM     18  C   UNL     1     -10.338 -46.176  31.441  1.00  0.00     0.039 C 
ATOM     19  C   UNL     1     -10.893 -43.947  32.454  1.00  0.00     0.017 C 
ENDROOT
BRANCH  15  20
ATOM     20  N   UNL     1     -13.419 -46.352  29.830  1.00  0.00    -0.398 N 
ATOM     21  H   UNL     1     -13.051 -47.229  29.482  1.00  0.00     0.156 HD
ATOM     22  H   UNL     1     -14.424 -46.311  29.691  1.00  0.00     0.156 HD
ENDBRANCH  15  20
TORSDOF 1
ENDMDL
MODEL 5
REMARK VINA RESULT:    -9.083      1.767      2.450
REMARK INTER + INTRA:          -9.349
REMARK INTER:                  -9.349
REMARK INTRA:                   0.000
REMARK UNBOUND:                 0.000
REMARK SMILES CC1=C[C@H]2Cc3nc4cc(Cl)ccc4c(N)c3[C@@H](C1)C2
REMARK SMILES IDX 1 1 2 2 3 3 4 4 5 5 6 6 7 7 8 8 9 9 10 10 11 11 12 12 13 13
REMARK SMILES IDX 14 14 15 15 17 16 18 17 19 18 20 19 16 20
REMARK H PARENT 16 21 16 22
ROOT
ATOM      1  C   UNL     1      -9.888 -43.057  32.716  1.00  0.00     0.039 C 
ATOM      2  C   UNL     1     -10.085 -44.091  31.647  1.00  0.00    -0.076 C 
ATOM      3  C   UNL     1     -10.727 -45.252  31.879  1.00  0.00    -0.024 C 
ATOM      4  C   UNL     1     -10.916 -46.314  30.818  1.00  0.00     0.018 C 
ATOM      5  C   UNL     1     -12.317 -46.223  30.198  1.00  0.00     0.064 C 
ATOM      6  C   UNL     1     -12.471 -45.116  29.179  1.00  0.00     0.047 A 
ATOM      7  N   UNL     1     -13.743 -44.898  28.770  1.00  0.00    -0.252 NA
ATOM      8  C   UNL     1     -13.971 -43.998  27.810  1.00  0.00     0.074 A 
ATOM      9  C   UNL     1     -15.282 -43.838  27.384  1.00  0.00     0.049 A 
ATOM     10  C   UNL     1     -15.608 -42.945  26.369  1.00  0.00     0.043 A 
ATOM     11  Cl  UNL     1     -17.245 -42.778  25.865  1.00  0.00    -0.084 Cl
ATOM     12  C   UNL     1     -14.619 -42.194  25.754  1.00  0.00     0.021 A 
ATOM     13  C   UNL     1     -13.296 -42.337  26.175  1.00  0.00     0.014 A 
ATOM     14  C   UNL     1     -12.945 -43.231  27.218  1.00  0.00     0.024 A 
ATOM     15  C   UNL     1     -11.621 -43.407  27.714  1.00  0.00     0.046 A 
ATOM     16  C   UNL     1     -11.371 -44.420  28.662  1.00  0.00     0.001 A 
ATOM     17  C   UNL     1      -9.965 -44.737  29.164  1.00  0.00     0.028 C 
ATOM     18  C   UNL     1      -9.532 -43.753  30.279  1.00  0.00     0.039 C 
ATOM     19  C   UNL     1      -9.882 -46.171  29.701  1.00  0.00     0.017 C 
ENDROOT
BRANCH  15  20
ATOM     20  N   UNL     1     -10.539 -42.719  27.111  1.00  0.00    -0.398 N 
ATOM     21  H   UNL     1     -10.726 -41.744  26.912  1.00  0.00     0.156 HD
ATOM     22  H   UNL     1     -10.175 -43.184  26.285  1.00  0.00     0.156 HD
ENDBRANCH  15  20
TORSDOF 1
ENDMDL
MODEL 6
REMARK VINA RESULT:    -9.046      4.360      6.023
REMARK INTER + INTRA:          -9.310
REMARK INTER:                  -9.310
REMARK INTRA:                   0.000
REMARK UNBOUND:                 0.000
REMARK SMILES CC1=C[C@H]2Cc3nc4cc(Cl)ccc4c(N)c3[C@@H](C1)C2
REMARK SMILES IDX 1 1 2 2 3 3 4 4 5 5 6 6 7 7 8 8 9 9 10 10 11 11 12 12 13 13
REMARK SMILES IDX 14 14 15 15 17 16 18 17 19 18 20 19 16 20
REMARK H PARENT 16 21 16 22
ROOT
ATOM      1  C   UNL     1      -8.769 -42.601  27.674  1.00  0.00     0.039 C 
ATOM      2  C   UNL     1      -8.940 -43.523  28.846  1.00  0.00    -0.076 C 
ATOM      3  C   UNL     1      -8.091 -43.523  29.891  1.00  0.00    -0.024 C 
ATOM      4  C   UNL     1      -8.237 -44.460  31.070  1.00  0.00     0.018 C 
ATOM      5  C   UNL     1      -8.921 -43.754  32.248  1.00  0.00     0.064 C 
ATOM      6  C   UNL     1     -10.422 -43.630  32.106  1.00  0.00     0.047 A 
ATOM      7  N   UNL     1     -11.013 -42.843  33.035  1.00  0.00    -0.252 NA
ATOM      8  C   UNL     1     -12.345 -42.737  33.044  1.00  0.00     0.074 A 
ATOM      9  C   UNL     1     -12.916 -41.960  34.041  1.00  0.00     0.049 A 
ATOM     10  C   UNL     1     -14.296 -41.817  34.145  1.00  0.00     0.043 A 
ATOM     11  Cl  UNL     1     -14.967 -40.848  35.399  1.00  0.00    -0.084 Cl
ATOM     12  C   UNL     1     -15.135 -42.460  33.248  1.00  0.00     0.021 A 
ATOM     13  C   UNL     1     -14.576 -43.240  32.235  1.00  0.00     0.014 A 
ATOM     14  C   UNL     1     -13.173 -43.386  32.102  1.00  0.00     0.024 A 
ATOM     15  C   UNL     1     -12.536 -44.145  31.078  1.00  0.00     0.046 A 
ATOM     16  C   UNL     1     -11.139 -44.327  31.125  1.00  0.00     0.001 A 
ATOM     17  C   UNL     1     -10.398 -45.209  30.123  1.00  0.00     0.028 C 
ATOM     18  C   UNL     1     -10.134 -44.453  28.798  1.00  0.00     0.039 C 
ATOM     19  C   UNL     1      -9.063 -45.693  30.698  1.00  0.00     0.017 C 
ENDROOT
BRANCH  15  20
ATOM     20  N   UNL     1     -13.315 -44.877  30.148  1.00  0.00    -0.398 N 
ATOM     21  H   UNL     1     -14.122 -44.376  29.797  1.00  0.00     0.156 HD
ATOM     22  H   UNL     1     -13.588 -45.794  30.485  1.00  0.00     0.156 HD
ENDBRANCH  15  20
TORSDOF 1
ENDMDL
MODEL 7
REMARK VINA RESULT:    -8.706      3.384      5.972
REMARK INTER + INTRA:          -8.960
REMARK INTER:                  -8.960
REMARK INTRA:                   0.000
REMARK UNBOUND:                 0.000
REMARK SMILES CC1=C[C@H]2Cc3nc4cc(Cl)ccc4c(N)c3[C@@H](C1)C2
REMARK SMILES IDX 1 1 2 2 3 3 4 4 5 5 6 6 7 7 8 8 9 9 10 10 11 11 12 12 13 13
REMARK SMILES IDX 14 14 15 15 17 16 18 17 19 18 20 19 16 20
REMARK H PARENT 16 21 16 22
ROOT
ATOM      1  C   UNL     1     -13.804 -45.018  26.251  1.00  0.00     0.039 C 
ATOM      2  C   UNL     1     -12.760 -45.141  27.323  1.00  0.00    -0.076 C 
ATOM      3  C   UNL     1     -11.679 -44.339  27.369  1.00  0.00    -0.024 C 
ATOM      4  C   UNL     1     -10.608 -44.463  28.430  1.00  0.00     0.018 C 
ATOM      5  C   UNL     1     -10.820 -43.428  29.543  1.00  0.00     0.064 C 
ATOM      6  C   UNL     1     -11.903 -43.799  30.532  1.00  0.00     0.047 A 
ATOM      7  N   UNL     1     -12.235 -42.815  31.400  1.00  0.00    -0.252 NA
ATOM      8  C   UNL     1     -13.122 -43.072  32.365  1.00  0.00     0.074 A 
ATOM      9  C   UNL     1     -13.400 -42.053  33.264  1.00  0.00     0.049 A 
ATOM     10  C   UNL     1     -14.288 -42.241  34.318  1.00  0.00     0.043 A 
ATOM     11  Cl  UNL     1     -14.603 -40.953  35.415  1.00  0.00    -0.084 Cl
ATOM     12  C   UNL     1     -14.915 -43.464  34.495  1.00  0.00     0.021 A 
ATOM     13  C   UNL     1     -14.652 -44.498  33.595  1.00  0.00     0.014 A 
ATOM     14  C   UNL     1     -13.762 -44.323  32.506  1.00  0.00     0.024 A 
ATOM     15  C   UNL     1     -13.468 -45.325  31.538  1.00  0.00     0.046 A 
ATOM     16  C   UNL     1     -12.467 -45.081  30.576  1.00  0.00     0.001 A 
ATOM     17  C   UNL     1     -12.025 -46.141  29.571  1.00  0.00     0.028 C 
ATOM     18  C   UNL     1     -12.995 -46.212  28.367  1.00  0.00     0.039 C 
ATOM     19  C   UNL     1     -10.609 -45.858  29.058  1.00  0.00     0.017 C 
ENDROOT
BRANCH  15  20
ATOM     20  N   UNL     1     -14.023 -46.623  31.668  1.00  0.00    -0.398 N 
ATOM     21  H   UNL     1     -13.808 -47.081  32.545  1.00  0.00     0.156 HD
ATOM     22  H   UNL     1     -13.804 -47.235  30.888  1.00  0.00     0.156 HD
ENDBRANCH  15  20
TORSDOF 1
ENDMDL
MODEL 8
REMARK VINA RESULT:    -8.265      3.243      6.183
REMARK INTER + INTRA:          -8.506
REMARK INTER:                  -8.506
REMARK INTRA:                   0.000
REMARK UNBOUND:                 0.000
REMARK SMILES CC1=C[C@H]2Cc3nc4cc(Cl)ccc4c(N)c3[C@@H](C1)C2
REMARK SMILES IDX 1 1 2 2 3 3 4 4 5 5 6 6 7 7 8 8 9 9 10 10 11 11 12 12 13 13
REMARK SMILES IDX 14 14 15 15 17 16 18 17 19 18 20 19 16 20
REMARK H PARENT 16 21 16 22
ROOT
ATOM      1  C   UNL     1     -16.792 -42.089  28.132  1.00  0.00     0.039 C 
ATOM      2  C   UNL     1     -15.677 -42.876  27.507  1.00  0.00    -0.076 C 
ATOM      3  C   UNL     1     -14.873 -42.357  26.560  1.00  0.00    -0.024 C 
ATOM      4  C   UNL     1     -13.758 -43.142  25.905  1.00  0.00     0.018 C 
ATOM      5  C   UNL     1     -12.405 -42.810  26.548  1.00  0.00     0.064 C 
ATOM      6  C   UNL     1     -12.167 -43.495  27.876  1.00  0.00     0.047 A 
ATOM      7  N   UNL     1     -11.073 -43.064  28.545  1.00  0.00    -0.252 NA
ATOM      8  C   UNL     1     -10.732 -43.666  29.688  1.00  0.00     0.074 A 
ATOM      9  C   UNL     1      -9.577 -43.227  30.320  1.00  0.00     0.049 A 
ATOM     10  C   UNL     1      -9.130 -43.816  31.498  1.00  0.00     0.043 A 
ATOM     11  Cl  UNL     1      -7.690 -43.247  32.249  1.00  0.00    -0.084 Cl
ATOM     12  C   UNL     1      -9.834 -44.865  32.067  1.00  0.00     0.021 A 
ATOM     13  C   UNL     1     -11.002 -45.314  31.448  1.00  0.00     0.014 A 
ATOM     14  C   UNL     1     -11.482 -44.718  30.255  1.00  0.00     0.024 A 
ATOM     15  C   UNL     1     -12.678 -45.109  29.587  1.00  0.00     0.046 A 
ATOM     16  C   UNL     1     -12.987 -44.534  28.337  1.00  0.00     0.001 A 
ATOM     17  C   UNL     1     -14.194 -44.974  27.513  1.00  0.00     0.028 C 
ATOM     18  C   UNL     1     -15.492 -44.292  28.012  1.00  0.00     0.039 C 
ATOM     19  C   UNL     1     -13.996 -44.649  26.029  1.00  0.00     0.017 C 
ENDROOT
BRANCH  15  20
ATOM     20  N   UNL     1     -13.435 -46.206  30.067  1.00  0.00    -0.398 N 
ATOM     21  H   UNL     1     -13.004 -47.109  29.912  1.00  0.00     0.156 HD
ATOM     22  H   UNL     1     -14.394 -46.211  29.734  1.00  0.00     0.156 HD
ENDBRANCH  15  20
TORSDOF 1
ENDMDL
MODEL 9
REMARK VINA RESULT:    -7.844      6.607     11.063
REMARK INTER + INTRA:          -8.073
REMARK INTER:                  -8.073
REMARK INTRA:                   0.000
REMARK UNBOUND:                 0.000
REMARK SMILES CC1=C[C@H]2Cc3nc4cc(Cl)ccc4c(N)c3[C@@H](C1)C2
REMARK SMILES IDX 1 1 2 2 3 3 4 4 5 5 6 6 7 7 8 8 9 9 10 10 11 11 12 12 13 13
REMARK SMILES IDX 14 14 15 15 17 16 18 17 19 18 20 19 16 20
REMARK H PARENT 16 21 16 22
ROOT
ATOM      1  C   UNL     1     -22.675 -42.202  19.113  1.00  0.00     0.039 C 
ATOM      2  C   UNL     1     -22.129 -41.042  19.893  1.00  0.00    -0.076 C 
ATOM      3  C   UNL     1     -22.921 -40.215  20.602  1.00  0.00    -0.024 C 
ATOM      4  C   UNL     1     -22.389 -39.030  21.376  1.00  0.00     0.018 C 
ATOM      5  C   UNL     1     -22.237 -39.373  22.865  1.00  0.00     0.064 C 
ATOM      6  C   UNL     1     -21.006 -40.191  23.187  1.00  0.00     0.047 A 
ATOM      7  N   UNL     1     -20.960 -40.665  24.454  1.00  0.00    -0.252 NA
ATOM      8  C   UNL     1     -19.873 -41.328  24.860  1.00  0.00     0.074 A 
ATOM      9  C   UNL     1     -19.844 -41.757  26.179  1.00  0.00     0.049 A 
ATOM     10  C   UNL     1     -18.741 -42.429  26.696  1.00  0.00     0.043 A 
ATOM     11  Cl  UNL     1     -18.740 -42.940  28.339  1.00  0.00    -0.084 Cl
ATOM     12  C   UNL     1     -17.638 -42.682  25.896  1.00  0.00     0.021 A 
ATOM     13  C   UNL     1     -17.654 -42.264  24.565  1.00  0.00     0.014 A 
ATOM     14  C   UNL     1     -18.774 -41.591  24.014  1.00  0.00     0.024 A 
ATOM     15  C   UNL     1     -18.868 -41.160  22.660  1.00  0.00     0.046 A 
ATOM     16  C   UNL     1     -19.974 -40.384  22.259  1.00  0.00     0.001 A 
ATOM     17  C   UNL     1     -20.095 -39.801  20.854  1.00  0.00     0.028 C 
ATOM     18  C   UNL     1     -20.626 -40.856  19.852  1.00  0.00     0.039 C 
ATOM     19  C   UNL     1     -21.027 -38.584  20.841  1.00  0.00     0.017 C 
ENDROOT
BRANCH  15  20
ATOM     20  N   UNL     1     -17.768 -41.331  21.782  1.00  0.00    -0.398 N 
ATOM     21  H   UNL     1     -18.026 -41.587  20.837  1.00  0.00     0.156 HD
ATOM     22  H   UNL     1     -17.062 -41.966  22.139  1.00  0.00     0.156 HD
ENDBRANCH  15  20
TORSDOF 1
ENDMDL
