MODEL 1
REMARK VINA RESULT:    -9.200      0.000      0.000
REMARK INTER + INTRA:         -11.005
REMARK INTER:                 -10.814
REMARK INTRA:                  -0.191
REMARK UNBOUND:                -0.191
REMARK SMILES CCNC(=O)Oc1ccc2c(c1)[C@]1(C)CCO[C@@H]1O2
REMARK SMILES IDX 3 1 4 2 5 3 2 5 1 6 6 7 7 8 8 9 12 10 9 11 11 12 10 13 13 14
REMARK SMILES IDX 19 15 15 16 18 17 16 18 17 19 14 20
REMARK H PARENT 3 4
ROOT
ATOM      1  N   UNL     1     -14.155 -43.897  26.403  1.00  0.00    -0.321 N 
ATOM      2  C   UNL     1     -13.453 -44.737  27.222  1.00  0.00     0.412 C 
ATOM      3  O   UNL     1     -13.059 -45.850  26.903  1.00  0.00    -0.224 OA
ATOM      4  H   UNL     1     -14.493 -43.040  26.821  1.00  0.00     0.167 HD
ENDROOT
BRANCH   1   5
ATOM      5  C   UNL     1     -14.589 -44.281  25.081  1.00  0.00     0.116 C 
ATOM      6  C   UNL     1     -15.051 -43.082  24.271  1.00  0.00     0.027 C 
ENDBRANCH   1   5
BRANCH   2   7
ATOM      7  O   UNL     1     -13.275 -44.125  28.455  1.00  0.00    -0.410 OA
BRANCH   7   8
ATOM      8  C   UNL     1     -11.963 -43.755  28.786  1.00  0.00     0.133 A 
ATOM      9  C   UNL     1     -11.321 -42.847  27.929  1.00  0.00     0.051 A 
ATOM     10  C   UNL     1     -11.302 -44.329  29.876  1.00  0.00     0.055 A 
ATOM     11  C   UNL     1     -10.000 -42.472  28.176  1.00  0.00     0.051 A 
ATOM     12  C   UNL     1      -9.991 -43.946  30.103  1.00  0.00     0.010 A 
ATOM     13  C   UNL     1      -9.360 -43.038  29.262  1.00  0.00     0.127 A 
ATOM     14  C   UNL     1      -9.057 -44.322  31.196  1.00  0.00     0.061 C 
ATOM     15  O   UNL     1      -8.072 -42.743  29.625  1.00  0.00    -0.464 OA
ATOM     16  C   UNL     1      -9.265 -43.519  32.470  1.00  0.00     0.047 C 
ATOM     17  C   UNL     1      -7.751 -43.725  30.642  1.00  0.00     0.317 C 
ATOM     18  C   UNL     1      -7.850 -43.215  32.912  1.00  0.00     0.166 C 
ATOM     19  O   UNL     1      -7.048 -43.112  31.733  1.00  0.00    -0.342 OA
ATOM     20  C   UNL     1      -8.951 -45.822  31.456  1.00  0.00     0.023 C 
ENDBRANCH   7   8
ENDBRANCH   2   7
TORSDOF 3
ENDMDL
MODEL 2
REMARK VINA RESULT:    -8.853      1.575      1.601
REMARK INTER + INTRA:         -10.597
REMARK INTER:                 -10.772
REMARK INTRA:                   0.175
REMARK UNBOUND:                -0.191
REMARK SMILES CCNC(=O)Oc1ccc2c(c1)[C@]1(C)CCO[C@@H]1O2
REMARK SMILES IDX 3 1 4 2 5 3 2 5 1 6 6 7 7 8 8 9 12 10 9 11 11 12 10 13 13 14
REMARK SMILES IDX 19 15 15 16 18 17 16 18 17 19 14 20
REMARK H PARENT 3 4
ROOT
ATOM      1  N   UNL     1     -15.054 -43.532  27.689  1.00  0.00    -0.321 N 
ATOM      2  C   UNL     1     -13.956 -43.772  26.909  1.00  0.00     0.412 C 
ATOM      3  O   UNL     1     -13.776 -43.294  25.797  1.00  0.00    -0.224 OA
ATOM      4  H   UNL     1     -15.116 -44.058  28.550  1.00  0.00     0.167 HD
ENDROOT
BRANCH   1   5
ATOM      5  C   UNL     1     -16.175 -42.746  27.235  1.00  0.00     0.116 C 
ATOM      6  C   UNL     1     -17.131 -42.423  28.369  1.00  0.00     0.027 C 
ENDBRANCH   1   5
BRANCH   2   7
ATOM      7  O   UNL     1     -13.105 -44.639  27.578  1.00  0.00    -0.410 OA
BRANCH   7   8
ATOM      8  C   UNL     1     -11.919 -44.086  28.083  1.00  0.00     0.133 A 
ATOM      9  C   UNL     1     -11.413 -42.953  27.424  1.00  0.00     0.051 A 
ATOM     10  C   UNL     1     -11.233 -44.685  29.143  1.00  0.00     0.055 A 
ATOM     11  C   UNL     1     -10.214 -42.380  27.848  1.00  0.00     0.051 A 
ATOM     12  C   UNL     1     -10.043 -44.103  29.547  1.00  0.00     0.010 A 
ATOM     13  C   UNL     1      -9.549 -42.975  28.903  1.00  0.00     0.127 A 
ATOM     14  C   UNL     1      -9.131 -44.460  30.664  1.00  0.00     0.061 C 
ATOM     15  O   UNL     1      -8.374 -42.504  29.428  1.00  0.00    -0.464 OA
ATOM     16  C   UNL     1      -9.582 -43.915  32.010  1.00  0.00     0.047 C 
ATOM     17  C   UNL     1      -7.935 -43.553  30.327  1.00  0.00     0.317 C 
ATOM     18  C   UNL     1      -8.289 -43.424  32.624  1.00  0.00     0.166 C 
ATOM     19  O   UNL     1      -7.445 -42.994  31.554  1.00  0.00    -0.342 OA
ATOM     20  C   UNL     1      -8.746 -45.936  30.726  1.00  0.00     0.023 C 
ENDBRANCH   7   8
ENDBRANCH   2   7
TORSDOF 3
ENDMDL
MODEL 3
REMARK VINA RESULT:    -8.654      2.554      6.280
REMARK INTER + INTRA:         -10.363
REMARK INTER:                 -10.209
REMARK INTRA:                  -0.154
REMARK UNBOUND:                -0.191
REMARK SMILES CCNC(=O)Oc1ccc2c(c1)[C@]1(C)CCO[C@@H]1O2
REMARK SMILES IDX 3 1 4 2 5 3 2 5 1 6 6 7 7 8 8 9 12 10 9 11 11 12 10 13 13 14
REMARK SMILES IDX 19 15 15 16 18 17 16 18 17 19 14 20
REMARK H PARENT 3 4
ROOT
ATOM      1  N   UNL     1      -8.479 -43.076  32.234  1.00  0.00    -0.321 N 
ATOM      2  C   UNL     1      -7.605 -43.926  31.615  1.00  0.00     0.412 C 
ATOM      3  O   UNL     1      -7.008 -44.837  32.175  1.00  0.00    -0.224 OA
ATOM      4  H   UNL     1      -8.838 -42.315  31.673  1.00  0.00     0.167 HD
ENDROOT
BRANCH   1   5
ATOM      5  C   UNL     1      -8.724 -43.109  33.655  1.00  0.00     0.116 C 
ATOM      6  C   UNL     1      -9.945 -42.289  34.034  1.00  0.00     0.027 C 
ENDBRANCH   1   5
BRANCH   2   7
ATOM      7  O   UNL     1      -7.507 -43.582  30.275  1.00  0.00    -0.410 OA
BRANCH   7   8
ATOM      8  C   UNL     1      -8.703 -43.570  29.543  1.00  0.00     0.133 A 
ATOM      9  C   UNL     1      -8.978 -42.418  28.789  1.00  0.00     0.051 A 
ATOM     10  C   UNL     1      -9.615 -44.626  29.628  1.00  0.00     0.055 A 
ATOM     11  C   UNL     1     -10.172 -42.323  28.073  1.00  0.00     0.051 A 
ATOM     12  C   UNL     1     -10.795 -44.512  28.913  1.00  0.00     0.010 A 
ATOM     13  C   UNL     1     -11.061 -43.377  28.156  1.00  0.00     0.127 A 
ATOM     14  C   UNL     1     -11.916 -45.474  28.750  1.00  0.00     0.061 C 
ATOM     15  O   UNL     1     -12.258 -43.419  27.491  1.00  0.00    -0.464 OA
ATOM     16  C   UNL     1     -11.652 -46.535  27.693  1.00  0.00     0.047 C 
ATOM     17  C   UNL     1     -12.944 -44.565  28.054  1.00  0.00     0.317 C 
ATOM     18  C   UNL     1     -12.978 -46.625  26.969  1.00  0.00     0.166 C 
ATOM     19  O   UNL     1     -13.582 -45.331  27.021  1.00  0.00    -0.342 OA
ATOM     20  C   UNL     1     -12.445 -46.063  30.055  1.00  0.00     0.023 C 
ENDBRANCH   7   8
ENDBRANCH   2   7
TORSDOF 3
ENDMDL
MODEL 4
REMARK VINA RESULT:    -8.585      2.444      3.261
REMARK INTER + INTRA:         -10.282
REMARK INTER:                 -10.072
REMARK INTRA:                  -0.210
REMARK UNBOUND:                -0.191
REMARK SMILES CCNC(=O)Oc1ccc2c(c1)[C@]1(C)CCO[C@@H]1O2
REMARK SMILES IDX 3 1 4 2 5 3 2 5 1 6 6 7 7 8 8 9 12 10 9 11 11 12 10 13 13 14
REMARK SMILES IDX 19 15 15 16 18 17 16 18 17 19 14 20
REMARK H PARENT 3 4
ROOT
ATOM      1  N   UNL     1     -15.282 -43.342  24.987  1.00  0.00    -0.321 N 
ATOM      2  C   UNL     1     -14.720 -43.278  26.232  1.00  0.00     0.412 C 
ATOM      3  O   UNL     1     -14.138 -42.300  26.682  1.00  0.00    -0.224 OA
ATOM      4  H   UNL     1     -15.658 -44.239  24.710  1.00  0.00     0.167 HD
ENDROOT
BRANCH   1   5
ATOM      5  C   UNL     1     -15.166 -42.274  24.024  1.00  0.00     0.116 C 
ATOM      6  C   UNL     1     -16.459 -42.069  23.254  1.00  0.00     0.027 C 
ENDBRANCH   1   5
BRANCH   2   7
ATOM      7  O   UNL     1     -14.913 -44.489  26.881  1.00  0.00    -0.410 OA
BRANCH   7   8
ATOM      8  C   UNL     1     -13.829 -44.980  27.625  1.00  0.00     0.133 A 
ATOM      9  C   UNL     1     -12.954 -45.862  26.970  1.00  0.00     0.051 A 
ATOM     10  C   UNL     1     -13.678 -44.666  28.978  1.00  0.00     0.055 A 
ATOM     11  C   UNL     1     -11.882 -46.421  27.665  1.00  0.00     0.051 A 
ATOM     12  C   UNL     1     -12.609 -45.233  29.651  1.00  0.00     0.010 A 
ATOM     13  C   UNL     1     -11.736 -46.096  29.000  1.00  0.00     0.127 A 
ATOM     14  C   UNL     1     -12.150 -45.049  31.053  1.00  0.00     0.061 C 
ATOM     15  O   UNL     1     -10.719 -46.562  29.791  1.00  0.00    -0.464 OA
ATOM     16  C   UNL     1     -11.309 -43.798  31.252  1.00  0.00     0.047 C 
ATOM     17  C   UNL     1     -11.098 -46.169  31.134  1.00  0.00     0.317 C 
ATOM     18  C   UNL     1     -10.197 -44.282  32.158  1.00  0.00     0.166 C 
ATOM     19  O   UNL     1      -9.964 -45.658  31.851  1.00  0.00    -0.342 OA
ATOM     20  C   UNL     1     -13.244 -45.196  32.106  1.00  0.00     0.023 C 
ENDBRANCH   7   8
ENDBRANCH   2   7
TORSDOF 3
ENDMDL
MODEL 5
REMARK VINA RESULT:    -8.241      4.317      9.369
REMARK INTER + INTRA:          -9.877
REMARK INTER:                  -9.599
REMARK INTRA:                  -0.278
REMARK UNBOUND:                -0.191
REMARK SMILES CCNC(=O)Oc1ccc2c(c1)[C@]1(C)CCO[C@@H]1O2
REMARK SMILES IDX 3 1 4 2 5 3 2 5 1 6 6 7 7 8 8 9 12 10 9 11 11 12 10 13 13 14
REMARK SMILES IDX 19 15 15 16 18 17 16 18 17 19 14 20
REMARK H PARENT 3 4
ROOT
ATOM      1  N   UNL     1     -13.342 -44.752  26.908  1.00  0.00    -0.321 N 
ATOM      2  C   UNL     1     -14.230 -43.959  27.582  1.00  0.00     0.412 C 
ATOM      3  O   UNL     1     -14.809 -44.282  28.610  1.00  0.00    -0.224 OA
ATOM      4  H   UNL     1     -13.001 -44.394  26.026  1.00  0.00     0.167 HD
ENDROOT
BRANCH   1   5
ATOM      5  C   UNL     1     -13.060 -46.112  27.299  1.00  0.00     0.116 C 
ATOM      6  C   UNL     1     -11.790 -46.206  28.126  1.00  0.00     0.027 C 
ENDBRANCH   1   5
BRANCH   2   7
ATOM      7  O   UNL     1     -14.364 -42.753  26.909  1.00  0.00    -0.410 OA
BRANCH   7   8
ATOM      8  C   UNL     1     -15.405 -42.671  25.973  1.00  0.00     0.133 A 
ATOM      9  C   UNL     1     -15.040 -42.561  24.621  1.00  0.00     0.051 A 
ATOM     10  C   UNL     1     -16.742 -42.621  26.378  1.00  0.00     0.055 A 
ATOM     11  C   UNL     1     -16.027 -42.431  23.643  1.00  0.00     0.051 A 
ATOM     12  C   UNL     1     -17.706 -42.489  25.393  1.00  0.00     0.010 A 
ATOM     13  C   UNL     1     -17.345 -42.392  24.055  1.00  0.00     0.127 A 
ATOM     14  C   UNL     1     -19.188 -42.470  25.497  1.00  0.00     0.061 C 
ATOM     15  O   UNL     1     -18.408 -42.285  23.197  1.00  0.00    -0.464 OA
ATOM     16  C   UNL     1     -19.804 -43.857  25.584  1.00  0.00     0.047 C 
ATOM     17  C   UNL     1     -19.546 -42.042  24.062  1.00  0.00     0.317 C 
ATOM     18  C   UNL     1     -21.007 -43.749  24.672  1.00  0.00     0.166 C 
ATOM     19  O   UNL     1     -20.677 -42.817  23.640  1.00  0.00    -0.342 OA
ATOM     20  C   UNL     1     -19.741 -41.512  26.548  1.00  0.00     0.023 C 
ENDBRANCH   7   8
ENDBRANCH   2   7
TORSDOF 3
ENDMDL
MODEL 6
REMARK VINA RESULT:    -8.219      2.523      3.571
REMARK INTER + INTRA:          -9.852
REMARK INTER:                  -9.806
REMARK INTRA:                  -0.046
REMARK UNBOUND:                -0.191
REMARK SMILES CCNC(=O)Oc1ccc2c(c1)[C@]1(C)CCO[C@@H]1O2
REMARK SMILES IDX 3 1 4 2 5 3 2 5 1 6 6 7 7 8 8 9 12 10 9 11 11 12 10 13 13 14
REMARK SMILES IDX 19 15 15 16 18 17 16 18 17 19 14 20
REMARK H PARENT 3 4
ROOT
ATOM      1  N   UNL     1     -13.685 -44.944  31.724  1.00  0.00    -0.321 N 
ATOM      2  C   UNL     1     -13.668 -46.202  31.190  1.00  0.00     0.412 C 
ATOM      3  O   UNL     1     -14.180 -47.185  31.709  1.00  0.00    -0.224 OA
ATOM      4  H   UNL     1     -13.151 -44.240  31.233  1.00  0.00     0.167 HD
ENDROOT
BRANCH   1   5
ATOM      5  C   UNL     1     -14.243 -44.657  33.024  1.00  0.00     0.116 C 
ATOM      6  C   UNL     1     -14.517 -43.174  33.203  1.00  0.00     0.027 C 
ENDBRANCH   1   5
BRANCH   2   7
ATOM      7  O   UNL     1     -12.977 -46.175  29.987  1.00  0.00    -0.410 OA
BRANCH   7   8
ATOM      8  C   UNL     1     -11.831 -45.368  29.941  1.00  0.00     0.133 A 
ATOM      9  C   UNL     1     -11.790 -44.375  28.948  1.00  0.00     0.051 A 
ATOM     10  C   UNL     1     -10.748 -45.597  30.795  1.00  0.00     0.055 A 
ATOM     11  C   UNL     1     -10.660 -43.567  28.820  1.00  0.00     0.051 A 
ATOM     12  C   UNL     1      -9.635 -44.786  30.650  1.00  0.00     0.010 A 
ATOM     13  C   UNL     1      -9.600 -43.796  29.676  1.00  0.00     0.127 A 
ATOM     14  C   UNL     1      -8.373 -44.740  31.433  1.00  0.00     0.061 C 
ATOM     15  O   UNL     1      -8.441 -43.065  29.667  1.00  0.00    -0.464 OA
ATOM     16  C   UNL     1      -8.493 -43.944  32.724  1.00  0.00     0.047 C 
ATOM     17  C   UNL     1      -7.546 -43.796  30.542  1.00  0.00     0.317 C 
ATOM     18  C   UNL     1      -7.201 -43.156  32.754  1.00  0.00     0.166 C 
ATOM     19  O   UNL     1      -6.828 -42.896  31.399  1.00  0.00    -0.342 OA
ATOM     20  C   UNL     1      -7.699 -46.094  31.636  1.00  0.00     0.023 C 
ENDBRANCH   7   8
ENDBRANCH   2   7
TORSDOF 3
ENDMDL
MODEL 7
REMARK VINA RESULT:    -8.198      1.935      2.857
REMARK INTER + INTRA:          -9.826
REMARK INTER:                  -9.721
REMARK INTRA:                  -0.106
REMARK UNBOUND:                -0.191
REMARK SMILES CCNC(=O)Oc1ccc2c(c1)[C@]1(C)CCO[C@@H]1O2
REMARK SMILES IDX 3 1 4 2 5 3 2 5 1 6 6 7 7 8 8 9 12 10 9 11 11 12 10 13 13 14
REMARK SMILES IDX 19 15 15 16 18 17 16 18 17 19 14 20
REMARK H PARENT 3 4
ROOT
ATOM      1  N   UNL     1     -13.752 -44.262  28.577  1.00  0.00    -0.321 N 
ATOM      2  C   UNL     1     -13.759 -44.942  29.763  1.00  0.00     0.412 C 
ATOM      3  O   UNL     1     -13.739 -46.161  29.865  1.00  0.00    -0.224 OA
ATOM      4  H   UNL     1     -13.856 -43.258  28.634  1.00  0.00     0.167 HD
ENDROOT
BRANCH   1   5
ATOM      5  C   UNL     1     -13.812 -44.927  27.297  1.00  0.00     0.116 C 
ATOM      6  C   UNL     1     -14.539 -44.088  26.261  1.00  0.00     0.027 C 
ENDBRANCH   1   5
BRANCH   2   7
ATOM      7  O   UNL     1     -13.799 -44.031  30.808  1.00  0.00    -0.410 OA
BRANCH   7   8
ATOM      8  C   UNL     1     -12.585 -43.777  31.465  1.00  0.00     0.133 A 
ATOM      9  C   UNL     1     -12.657 -43.137  32.713  1.00  0.00     0.051 A 
ATOM     10  C   UNL     1     -11.360 -44.076  30.863  1.00  0.00     0.055 A 
ATOM     11  C   UNL     1     -11.485 -42.815  33.397  1.00  0.00     0.051 A 
ATOM     12  C   UNL     1     -10.208 -43.747  31.557  1.00  0.00     0.010 A 
ATOM     13  C   UNL     1     -10.279 -43.125  32.798  1.00  0.00     0.127 A 
ATOM     14  C   UNL     1      -8.781 -43.990  31.220  1.00  0.00     0.061 C 
ATOM     15  O   UNL     1      -9.058 -42.880  33.369  1.00  0.00    -0.464 OA
ATOM     16  C   UNL     1      -8.309 -45.392  31.568  1.00  0.00     0.047 C 
ATOM     17  C   UNL     1      -8.105 -43.136  32.308  1.00  0.00     0.317 C 
ATOM     18  C   UNL     1      -6.940 -45.147  32.167  1.00  0.00     0.166 C 
ATOM     19  O   UNL     1      -6.977 -43.870  32.807  1.00  0.00    -0.342 OA
ATOM     20  C   UNL     1      -8.379 -43.566  29.810  1.00  0.00     0.023 C 
ENDBRANCH   7   8
ENDBRANCH   2   7
TORSDOF 3
ENDMDL
MODEL 8
REMARK VINA RESULT:    -8.133      3.832      4.824
REMARK INTER + INTRA:          -9.751
REMARK INTER:                  -9.758
REMARK INTRA:                   0.007
REMARK UNBOUND:                -0.191
REMARK SMILES CCNC(=O)Oc1ccc2c(c1)[C@]1(C)CCO[C@@H]1O2
REMARK SMILES IDX 3 1 4 2 5 3 2 5 1 6 6 7 7 8 8 9 12 10 9 11 11 12 10 13 13 14
REMARK SMILES IDX 19 15 15 16 18 17 16 18 17 19 14 20
REMARK H PARENT 3 4
ROOT
ATOM      1  N   UNL     1     -13.613 -44.253  33.046  1.00  0.00    -0.321 N 
ATOM      2  C   UNL     1     -13.990 -43.013  32.610  1.00  0.00     0.412 C 
ATOM      3  O   UNL     1     -14.887 -42.803  31.804  1.00  0.00    -0.224 OA
ATOM      4  H   UNL     1     -12.802 -44.289  33.649  1.00  0.00     0.167 HD
ENDROOT
BRANCH   1   5
ATOM      5  C   UNL     1     -14.184 -45.470  32.522  1.00  0.00     0.116 C 
ATOM      6  C   UNL     1     -13.351 -46.038  31.386  1.00  0.00     0.027 C 
ENDBRANCH   1   5
BRANCH   2   7
ATOM      7  O   UNL     1     -13.194 -42.055  33.221  1.00  0.00    -0.410 OA
BRANCH   7   8
ATOM      8  C   UNL     1     -11.826 -42.349  33.320  1.00  0.00     0.133 A 
ATOM      9  C   UNL     1     -11.163 -41.913  34.479  1.00  0.00     0.051 A 
ATOM     10  C   UNL     1     -11.142 -42.975  32.274  1.00  0.00     0.055 A 
ATOM     11  C   UNL     1      -9.792 -42.134  34.619  1.00  0.00     0.051 A 
ATOM     12  C   UNL     1      -9.782 -43.183  32.432  1.00  0.00     0.010 A 
ATOM     13  C   UNL     1      -9.128 -42.763  33.584  1.00  0.00     0.127 A 
ATOM     14  C   UNL     1      -8.806 -43.866  31.544  1.00  0.00     0.061 C 
ATOM     15  O   UNL     1      -7.789 -43.055  33.602  1.00  0.00    -0.464 OA
ATOM     16  C   UNL     1      -8.815 -45.379  31.689  1.00  0.00     0.047 C 
ATOM     17  C   UNL     1      -7.494 -43.477  32.248  1.00  0.00     0.317 C 
ATOM     18  C   UNL     1      -7.343 -45.728  31.672  1.00  0.00     0.166 C 
ATOM     19  O   UNL     1      -6.637 -44.629  32.252  1.00  0.00    -0.342 OA
ATOM     20  C   UNL     1      -8.845 -43.414  30.087  1.00  0.00     0.023 C 
ENDBRANCH   7   8
ENDBRANCH   2   7
TORSDOF 3
ENDMDL
MODEL 9
REMARK VINA RESULT:    -8.071      3.591      4.877
REMARK INTER + INTRA:          -9.677
REMARK INTER:                  -9.680
REMARK INTRA:                   0.003
REMARK UNBOUND:                -0.191
REMARK SMILES CCNC(=O)Oc1ccc2c(c1)[C@]1(C)CCO[C@@H]1O2
REMARK SMILES IDX 3 1 4 2 5 3 2 5 1 6 6 7 7 8 8 9 12 10 9 11 11 12 10 13 13 14
REMARK SMILES IDX 19 15 15 16 18 17 16 18 17 19 14 20
REMARK H PARENT 3 4
ROOT
ATOM      1  N   UNL     1     -15.035 -41.998  32.479  1.00  0.00    -0.321 N 
ATOM      2  C   UNL     1     -14.607 -43.295  32.549  1.00  0.00     0.412 C 
ATOM      3  O   UNL     1     -14.629 -43.981  33.562  1.00  0.00    -0.224 OA
ATOM      4  H   UNL     1     -14.882 -41.521  31.601  1.00  0.00     0.167 HD
ENDROOT
BRANCH   1   5
ATOM      5  C   UNL     1     -15.484 -41.263  33.637  1.00  0.00     0.116 C 
ATOM      6  C   UNL     1     -14.442 -41.264  34.742  1.00  0.00     0.027 C 
ENDBRANCH   1   5
BRANCH   2   7
ATOM      7  O   UNL     1     -14.145 -43.688  31.301  1.00  0.00    -0.410 OA
BRANCH   7   8
ATOM      8  C   UNL     1     -12.914 -44.361  31.273  1.00  0.00     0.133 A 
ATOM      9  C   UNL     1     -12.943 -45.731  30.966  1.00  0.00     0.051 A 
ATOM     10  C   UNL     1     -11.724 -43.711  31.614  1.00  0.00     0.055 A 
ATOM     11  C   UNL     1     -11.759 -46.469  30.965  1.00  0.00     0.051 A 
ATOM     12  C   UNL     1     -10.561 -44.461  31.609  1.00  0.00     0.010 A 
ATOM     13  C   UNL     1     -10.588 -45.814  31.294  1.00  0.00     0.127 A 
ATOM     14  C   UNL     1      -9.154 -44.052  31.860  1.00  0.00     0.061 C 
ATOM     15  O   UNL     1      -9.358 -46.416  31.314  1.00  0.00    -0.464 OA
ATOM     16  C   UNL     1      -8.481 -43.432  30.646  1.00  0.00     0.047 C 
ATOM     17  C   UNL     1      -8.487 -45.437  31.934  1.00  0.00     0.317 C 
ATOM     18  C   UNL     1      -7.102 -44.056  30.671  1.00  0.00     0.166 C 
ATOM     19  O   UNL     1      -7.234 -45.361  31.238  1.00  0.00    -0.342 OA
ATOM     20  C   UNL     1      -8.945 -43.233  33.131  1.00  0.00     0.023 C 
ENDBRANCH   7   8
ENDBRANCH   2   7
TORSDOF 3
ENDMDL
