MODEL 1
REMARK VINA RESULT:   -13.060      0.000      0.000
REMARK INTER + INTRA:         -17.882
REMARK INTER:                 -17.259
REMARK INTRA:                  -0.623
REMARK UNBOUND:                -0.623
REMARK SMILES O=C1C(=NCCN=c2c3c([nH]c4cc(Cl)ccc24)CCCC3)C=C(O)c2ccccc21
REMARK SMILES IDX 5 1 6 2 7 3 8 4 11 5 10 6 12 7 9 8 19 9 13 10 18 11 22 12
REMARK SMILES IDX 20 13 14 14 17 15 21 16 16 17 15 19 4 20 3 21 23 22 2 23
REMARK SMILES IDX 24 24 31 25 26 26 30 27 27 28 29 29 28 30 1 31 25 32
REMARK H PARENT 11 18 25 33
ROOT
ATOM      1  C   UNL     1     -13.417 -45.253  27.798  1.00  0.00     0.166 C 
ENDROOT
BRANCH   1   2
ATOM      2  C   UNL     1     -12.079 -45.004  28.517  1.00  0.00     0.166 C 
BRANCH   2   3
ATOM      3  N   UNL     1     -12.145 -45.541  29.868  1.00  0.00    -0.282 NA
BRANCH   3   4
ATOM      4  C   UNL     1     -11.725 -44.949  30.936  1.00  0.00     0.072 A 
ATOM      5  N   UNL     1     -10.355 -43.186  32.660  1.00  0.00    -0.358 N 
ATOM      6  C   UNL     1      -9.669 -44.230  32.074  1.00  0.00     0.021 A 
ATOM      7  C   UNL     1     -11.759 -43.191  32.702  1.00  0.00     0.049 A 
ATOM      8  C   UNL     1     -10.264 -45.127  31.264  1.00  0.00    -0.003 A 
ATOM      9  C   UNL     1      -8.188 -44.310  32.376  1.00  0.00     0.054 C 
ATOM     10  C   UNL     1     -12.432 -42.298  33.548  1.00  0.00     0.047 A 
ATOM     11  C   UNL     1     -12.495 -44.073  31.884  1.00  0.00     0.024 A 
ATOM     12  C   UNL     1      -9.541 -46.273  30.607  1.00  0.00     0.039 C 
ATOM     13  C   UNL     1      -7.411 -45.231  31.435  1.00  0.00     0.007 C 
ATOM     14  C   UNL     1     -13.820 -42.338  33.642  1.00  0.00     0.043 A 
ATOM     15  C   UNL     1     -13.884 -44.138  32.036  1.00  0.00     0.014 A 
ATOM     16  C   UNL     1      -8.162 -46.537  31.210  1.00  0.00     0.005 C 
ATOM     17  C   UNL     1     -14.548 -43.266  32.905  1.00  0.00     0.021 A 
ATOM     18  H   UNL     1      -9.872 -42.679  33.392  1.00  0.00     0.166 HD
ATOM     19  Cl  UNL     1     -14.638 -41.254  34.699  1.00  0.00    -0.084 Cl
ENDBRANCH   3   4
ENDBRANCH   2   3
ENDBRANCH   1   2
BRANCH   1  20
ATOM     20  N   UNL     1     -14.425 -44.264  28.185  1.00  0.00    -0.279 NA
BRANCH  20  21
ATOM     21  C   UNL     1     -15.107 -43.607  27.308  1.00  0.00     0.109 C 
ATOM     22  C   UNL     1     -14.649 -43.646  25.901  1.00  0.00     0.078 C 
ATOM     23  C   UNL     1     -16.357 -42.770  27.572  1.00  0.00     0.211 C 
ATOM     24  C   UNL     1     -15.439 -43.244  24.901  1.00  0.00     0.125 C 
ATOM     25  C   UNL     1     -17.268 -42.534  26.433  1.00  0.00     0.035 A 
ATOM     26  C   UNL     1     -16.823 -42.792  25.127  1.00  0.00     0.028 A 
ATOM     27  C   UNL     1     -18.564 -42.059  26.679  1.00  0.00     0.013 A 
ATOM     28  C   UNL     1     -17.736 -42.616  24.075  1.00  0.00     0.013 A 
ATOM     29  C   UNL     1     -19.445 -41.867  25.619  1.00  0.00     0.001 A 
ATOM     30  C   UNL     1     -19.035 -42.154  24.319  1.00  0.00     0.001 A 
ATOM     31  O   UNL     1     -16.598 -42.285  28.667  1.00  0.00    -0.287 OA
BRANCH  24  32
ATOM     32  O   UNL     1     -14.947 -43.248  23.612  1.00  0.00    -0.507 OA
ATOM     33  H   UNL     1     -14.448 -42.427  23.464  1.00  0.00     0.293 HD
ENDBRANCH  24  32
ENDBRANCH  20  21
ENDBRANCH   1  20
TORSDOF 6
ENDMDL
MODEL 2
REMARK VINA RESULT:   -11.660      1.857      3.880
REMARK INTER + INTRA:         -16.033
REMARK INTER:                 -15.452
REMARK INTRA:                  -0.581
REMARK UNBOUND:                -0.623
REMARK SMILES O=C1C(=NCCN=c2c3c([nH]c4cc(Cl)ccc24)CCCC3)C=C(O)c2ccccc21
REMARK SMILES IDX 5 1 6 2 7 3 8 4 11 5 10 6 12 7 9 8 19 9 13 10 18 11 22 12
REMARK SMILES IDX 20 13 14 14 17 15 21 16 16 17 15 19 4 20 3 21 23 22 2 23
REMARK SMILES IDX 24 24 31 25 26 26 30 27 27 28 29 29 28 30 1 31 25 32
REMARK H PARENT 11 18 25 33
ROOT
ATOM      1  C   UNL     1     -12.955 -44.726  28.924  1.00  0.00     0.166 C 
ENDROOT
BRANCH   1   2
ATOM      2  C   UNL     1     -12.643 -45.733  30.045  1.00  0.00     0.166 C 
BRANCH   2   3
ATOM      3  N   UNL     1     -13.053 -45.180  31.326  1.00  0.00    -0.282 NA
BRANCH   3   4
ATOM      4  C   UNL     1     -12.497 -44.183  31.930  1.00  0.00     0.072 A 
ATOM      5  N   UNL     1     -11.670 -42.397  33.950  1.00  0.00    -0.358 N 
ATOM      6  C   UNL     1     -12.975 -42.359  33.506  1.00  0.00     0.021 A 
ATOM      7  C   UNL     1     -10.677 -43.040  33.192  1.00  0.00     0.049 A 
ATOM      8  C   UNL     1     -13.434 -43.161  32.525  1.00  0.00    -0.003 A 
ATOM      9  C   UNL     1     -13.888 -41.369  34.197  1.00  0.00     0.054 C 
ATOM     10  C   UNL     1      -9.325 -42.821  33.488  1.00  0.00     0.047 A 
ATOM     11  C   UNL     1     -11.034 -43.919  32.149  1.00  0.00     0.024 A 
ATOM     12  C   UNL     1     -14.853 -43.145  32.023  1.00  0.00     0.039 C 
ATOM     13  C   UNL     1     -15.377 -41.614  33.944  1.00  0.00     0.007 C 
ATOM     14  C   UNL     1      -8.335 -43.404  32.703  1.00  0.00     0.043 A 
ATOM     15  C   UNL     1     -10.026 -44.450  31.336  1.00  0.00     0.014 A 
ATOM     16  C   UNL     1     -15.635 -41.912  32.472  1.00  0.00     0.005 C 
ATOM     17  C   UNL     1      -8.679 -44.202  31.617  1.00  0.00     0.021 A 
ATOM     18  H   UNL     1     -11.372 -41.639  34.554  1.00  0.00     0.166 HD
ATOM     19  Cl  UNL     1      -6.677 -43.112  33.059  1.00  0.00    -0.084 Cl
ENDBRANCH   3   4
ENDBRANCH   2   3
ENDBRANCH   1   2
BRANCH   1  20
ATOM     20  N   UNL     1     -14.396 -44.503  28.791  1.00  0.00    -0.279 NA
BRANCH  20  21
ATOM     21  C   UNL     1     -14.893 -43.822  27.814  1.00  0.00     0.109 C 
ATOM     22  C   UNL     1     -14.170 -43.832  26.522  1.00  0.00     0.078 C 
ATOM     23  C   UNL     1     -16.169 -42.983  27.848  1.00  0.00     0.211 C 
ATOM     24  C   UNL     1     -14.749 -43.402  25.398  1.00  0.00     0.125 C 
ATOM     25  C   UNL     1     -16.841 -42.715  26.560  1.00  0.00     0.035 A 
ATOM     26  C   UNL     1     -16.151 -42.947  25.360  1.00  0.00     0.028 A 
ATOM     27  C   UNL     1     -18.159 -42.238  26.561  1.00  0.00     0.013 A 
ATOM     28  C   UNL     1     -16.841 -42.741  24.155  1.00  0.00     0.013 A 
ATOM     29  C   UNL     1     -18.816 -42.016  25.353  1.00  0.00     0.001 A 
ATOM     30  C   UNL     1     -18.161 -42.277  24.153  1.00  0.00     0.001 A 
ATOM     31  O   UNL     1     -16.617 -42.521  28.887  1.00  0.00    -0.287 OA
BRANCH  24  32
ATOM     32  O   UNL     1     -14.016 -43.380  24.229  1.00  0.00    -0.507 OA
ATOM     33  H   UNL     1     -13.603 -44.251  24.102  1.00  0.00     0.293 HD
ENDBRANCH  24  32
ENDBRANCH  20  21
ENDBRANCH   1  20
TORSDOF 6
ENDMDL
MODEL 3
REMARK VINA RESULT:   -11.549      3.042      5.230
REMARK INTER + INTRA:         -15.886
REMARK INTER:                 -13.787
REMARK INTRA:                  -2.099
REMARK UNBOUND:                -0.623
REMARK SMILES O=C1C(=NCCN=c2c3c([nH]c4cc(Cl)ccc24)CCCC3)C=C(O)c2ccccc21
REMARK SMILES IDX 5 1 6 2 7 3 8 4 11 5 10 6 12 7 9 8 19 9 13 10 18 11 22 12
REMARK SMILES IDX 20 13 14 14 17 15 21 16 16 17 15 19 4 20 3 21 23 22 2 23
REMARK SMILES IDX 24 24 31 25 26 26 30 27 27 28 29 29 28 30 1 31 25 32
REMARK H PARENT 11 18 25 33
ROOT
ATOM      1  C   UNL     1      -8.969 -45.999  31.632  1.00  0.00     0.166 C 
ENDROOT
BRANCH   1   2
ATOM      2  C   UNL     1      -7.671 -45.234  31.318  1.00  0.00     0.166 C 
BRANCH   2   3
ATOM      3  N   UNL     1      -7.919 -43.803  31.394  1.00  0.00    -0.282 NA
BRANCH   3   4
ATOM      4  C   UNL     1      -9.028 -43.213  31.095  1.00  0.00     0.072 A 
ATOM      5  N   UNL     1     -11.566 -42.680  29.985  1.00  0.00    -0.358 N 
ATOM      6  C   UNL     1     -10.446 -42.602  29.183  1.00  0.00     0.021 A 
ATOM      7  C   UNL     1     -11.443 -42.667  31.384  1.00  0.00     0.049 A 
ATOM      8  C   UNL     1      -9.200 -42.814  29.651  1.00  0.00    -0.003 A 
ATOM      9  C   UNL     1     -10.688 -42.277  27.725  1.00  0.00     0.054 C 
ATOM     10  C   UNL     1     -12.576 -42.446  32.180  1.00  0.00     0.047 A 
ATOM     11  C   UNL     1     -10.191 -42.897  31.992  1.00  0.00     0.024 A 
ATOM     12  C   UNL     1      -7.960 -42.739  28.800  1.00  0.00     0.039 C 
ATOM     13  C   UNL     1      -9.491 -42.563  26.817  1.00  0.00     0.007 C 
ATOM     14  C   UNL     1     -12.452 -42.370  33.564  1.00  0.00     0.043 A 
ATOM     15  C   UNL     1     -10.078 -42.759  33.381  1.00  0.00     0.014 A 
ATOM     16  C   UNL     1      -8.199 -42.064  27.450  1.00  0.00     0.005 C 
ATOM     17  C   UNL     1     -11.207 -42.506  34.167  1.00  0.00     0.021 A 
ATOM     18  H   UNL     1     -12.431 -42.327  29.593  1.00  0.00     0.166 HD
ATOM     19  Cl  UNL     1     -13.844 -42.075  34.532  1.00  0.00    -0.084 Cl
ENDBRANCH   3   4
ENDBRANCH   2   3
ENDBRANCH   1   2
BRANCH   1  20
ATOM     20  N   UNL     1      -9.530 -46.619  30.429  1.00  0.00    -0.279 NA
BRANCH  20  21
ATOM     21  C   UNL     1     -10.752 -46.419  30.066  1.00  0.00     0.109 C 
ATOM     22  C   UNL     1     -11.774 -46.259  31.125  1.00  0.00     0.078 C 
ATOM     23  C   UNL     1     -11.271 -46.336  28.632  1.00  0.00     0.211 C 
ATOM     24  C   UNL     1     -12.987 -45.771  30.854  1.00  0.00     0.125 C 
ATOM     25  C   UNL     1     -12.539 -45.610  28.410  1.00  0.00     0.035 A 
ATOM     26  C   UNL     1     -13.365 -45.312  29.505  1.00  0.00     0.028 A 
ATOM     27  C   UNL     1     -12.891 -45.229  27.108  1.00  0.00     0.013 A 
ATOM     28  C   UNL     1     -14.530 -44.567  29.265  1.00  0.00     0.013 A 
ATOM     29  C   UNL     1     -14.065 -44.512  26.889  1.00  0.00     0.001 A 
ATOM     30  C   UNL     1     -14.878 -44.174  27.967  1.00  0.00     0.001 A 
ATOM     31  O   UNL     1     -10.688 -46.863  27.697  1.00  0.00    -0.287 OA
BRANCH  24  32
ATOM     32  O   UNL     1     -13.923 -45.692  31.865  1.00  0.00    -0.507 OA
ATOM     33  H   UNL     1     -14.795 -45.518  31.471  1.00  0.00     0.293 HD
ENDBRANCH  24  32
ENDBRANCH  20  21
ENDBRANCH   1  20
TORSDOF 6
ENDMDL
MODEL 4
REMARK VINA RESULT:   -10.526      3.112      7.628
REMARK INTER + INTRA:         -14.534
REMARK INTER:                 -13.296
REMARK INTRA:                  -1.238
REMARK UNBOUND:                -0.623
REMARK SMILES O=C1C(=NCCN=c2c3c([nH]c4cc(Cl)ccc24)CCCC3)C=C(O)c2ccccc21
REMARK SMILES IDX 5 1 6 2 7 3 8 4 11 5 10 6 12 7 9 8 19 9 13 10 18 11 22 12
REMARK SMILES IDX 20 13 14 14 17 15 21 16 16 17 15 19 4 20 3 21 23 22 2 23
REMARK SMILES IDX 24 24 31 25 26 26 30 27 27 28 29 29 28 30 1 31 25 32
REMARK H PARENT 11 18 25 33
ROOT
ATOM      1  C   UNL     1     -10.884 -42.734  27.679  1.00  0.00     0.166 C 
ENDROOT
BRANCH   1   2
ATOM      2  C   UNL     1     -12.046 -42.689  26.671  1.00  0.00     0.166 C 
BRANCH   2   3
ATOM      3  N   UNL     1     -12.872 -43.877  26.826  1.00  0.00    -0.282 NA
BRANCH   3   4
ATOM      4  C   UNL     1     -13.870 -44.000  27.635  1.00  0.00     0.072 A 
ATOM      5  N   UNL     1     -15.529 -43.747  29.903  1.00  0.00    -0.358 N 
ATOM      6  C   UNL     1     -14.421 -44.567  29.963  1.00  0.00     0.021 A 
ATOM      7  C   UNL     1     -16.039 -43.327  28.663  1.00  0.00     0.049 A 
ATOM      8  C   UNL     1     -13.601 -44.759  28.911  1.00  0.00    -0.003 A 
ATOM      9  C   UNL     1     -14.156 -45.238  31.293  1.00  0.00     0.054 C 
ATOM     10  C   UNL     1     -17.317 -42.754  28.595  1.00  0.00     0.047 A 
ATOM     11  C   UNL     1     -15.265 -43.458  27.492  1.00  0.00     0.024 A 
ATOM     12  C   UNL     1     -12.383 -45.644  28.947  1.00  0.00     0.039 C 
ATOM     13  C   UNL     1     -12.750 -45.823  31.426  1.00  0.00     0.007 C 
ATOM     14  C   UNL     1     -17.854 -42.392  27.364  1.00  0.00     0.043 A 
ATOM     15  C   UNL     1     -15.844 -43.143  26.258  1.00  0.00     0.014 A 
ATOM     16  C   UNL     1     -12.352 -46.573  30.160  1.00  0.00     0.005 C 
ATOM     17  C   UNL     1     -17.133 -42.601  26.193  1.00  0.00     0.021 A 
ATOM     18  H   UNL     1     -16.182 -43.808  30.675  1.00  0.00     0.166 HD
ATOM     19  Cl  UNL     1     -19.432 -41.711  27.285  1.00  0.00    -0.084 Cl
ENDBRANCH   3   4
ENDBRANCH   2   3
ENDBRANCH   1   2
BRANCH   1  20
ATOM     20  N   UNL     1     -11.304 -42.271  29.003  1.00  0.00    -0.279 NA
BRANCH  20  21
ATOM     21  C   UNL     1     -10.739 -42.692  30.084  1.00  0.00     0.109 C 
ATOM     22  C   UNL     1      -9.454 -43.417  29.958  1.00  0.00     0.078 C 
ATOM     23  C   UNL     1     -11.266 -42.528  31.508  1.00  0.00     0.211 C 
ATOM     24  C   UNL     1      -8.669 -43.630  31.018  1.00  0.00     0.125 C 
ATOM     25  C   UNL     1     -10.282 -42.597  32.608  1.00  0.00     0.035 A 
ATOM     26  C   UNL     1      -9.002 -43.114  32.358  1.00  0.00     0.028 A 
ATOM     27  C   UNL     1     -10.646 -42.141  33.882  1.00  0.00     0.013 A 
ATOM     28  C   UNL     1      -8.074 -43.107  33.411  1.00  0.00     0.013 A 
ATOM     29  C   UNL     1      -9.718 -42.167  34.919  1.00  0.00     0.001 A 
ATOM     30  C   UNL     1      -8.430 -42.640  34.682  1.00  0.00     0.001 A 
ATOM     31  O   UNL     1     -12.453 -42.369  31.749  1.00  0.00    -0.287 OA
BRANCH  24  32
ATOM     32  O   UNL     1      -7.508 -44.358  30.860  1.00  0.00    -0.507 OA
ATOM     33  H   UNL     1      -7.733 -45.234  30.504  1.00  0.00     0.293 HD
ENDBRANCH  24  32
ENDBRANCH  20  21
ENDBRANCH   1  20
TORSDOF 6
ENDMDL
MODEL 5
REMARK VINA RESULT:   -10.252      3.463      8.995
REMARK INTER + INTRA:         -14.171
REMARK INTER:                 -14.376
REMARK INTRA:                   0.205
REMARK UNBOUND:                -0.623
REMARK SMILES O=C1C(=NCCN=c2c3c([nH]c4cc(Cl)ccc24)CCCC3)C=C(O)c2ccccc21
REMARK SMILES IDX 5 1 6 2 7 3 8 4 11 5 10 6 12 7 9 8 19 9 13 10 18 11 22 12
REMARK SMILES IDX 20 13 14 14 17 15 21 16 16 17 15 19 4 20 3 21 23 22 2 23
REMARK SMILES IDX 24 24 31 25 26 26 30 27 27 28 29 29 28 30 1 31 25 32
REMARK H PARENT 11 18 25 33
ROOT
ATOM      1  C   UNL     1     -16.507 -43.576  29.675  1.00  0.00     0.166 C 
ENDROOT
BRANCH   1   2
ATOM      2  C   UNL     1     -16.898 -42.417  28.742  1.00  0.00     0.166 C 
BRANCH   2   3
ATOM      3  N   UNL     1     -18.053 -42.802  27.944  1.00  0.00    -0.282 NA
BRANCH   3   4
ATOM      4  C   UNL     1     -18.306 -42.403  26.743  1.00  0.00     0.072 A 
ATOM      5  N   UNL     1     -18.801 -42.410  23.965  1.00  0.00    -0.358 N 
ATOM      6  C   UNL     1     -17.515 -42.610  24.424  1.00  0.00     0.021 A 
ATOM      7  C   UNL     1     -19.781 -41.861  24.808  1.00  0.00     0.049 A 
ATOM      8  C   UNL     1     -17.199 -42.591  25.734  1.00  0.00    -0.003 A 
ATOM      9  C   UNL     1     -16.462 -42.873  23.370  1.00  0.00     0.054 C 
ATOM     10  C   UNL     1     -20.982 -41.386  24.262  1.00  0.00     0.047 A 
ATOM     11  C   UNL     1     -19.573 -41.804  26.202  1.00  0.00     0.024 A 
ATOM     12  C   UNL     1     -15.808 -42.810  26.265  1.00  0.00     0.039 C 
ATOM     13  C   UNL     1     -15.157 -43.448  23.924  1.00  0.00     0.007 C 
ATOM     14  C   UNL     1     -21.932 -40.785  25.081  1.00  0.00     0.043 A 
ATOM     15  C   UNL     1     -20.514 -41.144  27.001  1.00  0.00     0.014 A 
ATOM     16  C   UNL     1     -14.731 -42.708  25.186  1.00  0.00     0.005 C 
ATOM     17  C   UNL     1     -21.696 -40.644  26.444  1.00  0.00     0.021 A 
ATOM     18  H   UNL     1     -18.909 -42.258  22.969  1.00  0.00     0.166 HD
ATOM     19  Cl  UNL     1     -23.393 -40.184  24.399  1.00  0.00    -0.084 Cl
ENDBRANCH   3   4
ENDBRANCH   2   3
ENDBRANCH   1   2
BRANCH   1  20
ATOM     20  N   UNL     1     -15.125 -43.446  30.141  1.00  0.00    -0.279 NA
BRANCH  20  21
ATOM     21  C   UNL     1     -14.242 -44.361  29.923  1.00  0.00     0.109 C 
ATOM     22  C   UNL     1     -14.099 -44.872  28.541  1.00  0.00     0.078 C 
ATOM     23  C   UNL     1     -13.316 -44.995  30.959  1.00  0.00     0.211 C 
ATOM     24  C   UNL     1     -13.038 -45.595  28.174  1.00  0.00     0.125 C 
ATOM     25  C   UNL     1     -12.067 -45.612  30.466  1.00  0.00     0.035 A 
ATOM     26  C   UNL     1     -11.924 -45.881  29.097  1.00  0.00     0.028 A 
ATOM     27  C   UNL     1     -11.047 -45.914  31.378  1.00  0.00     0.013 A 
ATOM     28  C   UNL     1     -10.701 -46.410  28.656  1.00  0.00     0.013 A 
ATOM     29  C   UNL     1      -9.851 -46.463  30.922  1.00  0.00     0.001 A 
ATOM     30  C   UNL     1      -9.674 -46.701  29.562  1.00  0.00     0.001 A 
ATOM     31  O   UNL     1     -13.591 -45.022  32.150  1.00  0.00    -0.287 OA
BRANCH  24  32
ATOM     32  O   UNL     1     -12.975 -46.095  26.889  1.00  0.00    -0.507 OA
ATOM     33  H   UNL     1     -13.381 -45.452  26.283  1.00  0.00     0.293 HD
ENDBRANCH  24  32
ENDBRANCH  20  21
ENDBRANCH   1  20
TORSDOF 6
ENDMDL
MODEL 6
REMARK VINA RESULT:   -10.149      6.015      9.731
REMARK INTER + INTRA:         -14.036
REMARK INTER:                 -13.436
REMARK INTRA:                  -0.601
REMARK UNBOUND:                -0.623
REMARK SMILES O=C1C(=NCCN=c2c3c([nH]c4cc(Cl)ccc24)CCCC3)C=C(O)c2ccccc21
REMARK SMILES IDX 5 1 6 2 7 3 8 4 11 5 10 6 12 7 9 8 19 9 13 10 18 11 22 12
REMARK SMILES IDX 20 13 14 14 17 15 21 16 16 17 15 19 4 20 3 21 23 22 2 23
REMARK SMILES IDX 24 24 31 25 26 26 30 27 27 28 29 29 28 30 1 31 25 32
REMARK H PARENT 11 18 25 33
ROOT
ATOM      1  C   UNL     1     -18.574 -40.093  21.806  1.00  0.00     0.166 C 
ENDROOT
BRANCH   1   2
ATOM      2  C   UNL     1     -17.295 -40.922  22.013  1.00  0.00     0.166 C 
BRANCH   2   3
ATOM      3  N   UNL     1     -17.633 -42.189  22.645  1.00  0.00    -0.282 NA
BRANCH   3   4
ATOM      4  C   UNL     1     -17.819 -42.375  23.909  1.00  0.00     0.072 A 
ATOM      5  N   UNL     1     -17.630 -42.118  26.712  1.00  0.00    -0.358 N 
ATOM      6  C   UNL     1     -16.606 -42.729  26.017  1.00  0.00     0.021 A 
ATOM      7  C   UNL     1     -18.892 -41.948  26.118  1.00  0.00     0.049 A 
ATOM      8  C   UNL     1     -16.641 -42.912  24.682  1.00  0.00    -0.003 A 
ATOM      9  C   UNL     1     -15.414 -43.174  26.836  1.00  0.00     0.054 C 
ATOM     10  C   UNL     1     -19.995 -41.609  26.914  1.00  0.00     0.047 A 
ATOM     11  C   UNL     1     -19.050 -42.095  24.725  1.00  0.00     0.024 A 
ATOM     12  C   UNL     1     -15.538 -43.570  23.897  1.00  0.00     0.039 C 
ATOM     13  C   UNL     1     -14.172 -43.496  26.004  1.00  0.00     0.007 C 
ATOM     14  C   UNL     1     -21.259 -41.499  26.344  1.00  0.00     0.043 A 
ATOM     15  C   UNL     1     -20.338 -42.037  24.179  1.00  0.00     0.014 A 
ATOM     16  C   UNL     1     -14.540 -44.321  24.777  1.00  0.00     0.005 C 
ATOM     17  C   UNL     1     -21.440 -41.730  24.985  1.00  0.00     0.021 A 
ATOM     18  H   UNL     1     -17.600 -42.191  27.722  1.00  0.00     0.166 HD
ATOM     19  Cl  UNL     1     -22.612 -41.105  27.332  1.00  0.00    -0.084 Cl
ENDBRANCH   3   4
ENDBRANCH   2   3
ENDBRANCH   1   2
BRANCH   1  20
ATOM     20  N   UNL     1     -19.035 -40.154  20.418  1.00  0.00    -0.279 NA
BRANCH  20  21
ATOM     21  C   UNL     1     -20.230 -39.804  20.079  1.00  0.00     0.109 C 
ATOM     22  C   UNL     1     -20.531 -38.357  19.992  1.00  0.00     0.078 C 
ATOM     23  C   UNL     1     -21.394 -40.740  19.761  1.00  0.00     0.211 C 
ATOM     24  C   UNL     1     -21.632 -37.912  19.383  1.00  0.00     0.125 C 
ATOM     25  C   UNL     1     -22.484 -40.204  18.919  1.00  0.00     0.035 A 
ATOM     26  C   UNL     1     -22.582 -38.820  18.715  1.00  0.00     0.028 A 
ATOM     27  C   UNL     1     -23.399 -41.092  18.337  1.00  0.00     0.013 A 
ATOM     28  C   UNL     1     -23.593 -38.352  17.860  1.00  0.00     0.013 A 
ATOM     29  C   UNL     1     -24.409 -40.604  17.513  1.00  0.00     0.001 A 
ATOM     30  C   UNL     1     -24.500 -39.237  17.266  1.00  0.00     0.001 A 
ATOM     31  O   UNL     1     -21.452 -41.880  20.196  1.00  0.00    -0.287 OA
BRANCH  24  32
ATOM     32  O   UNL     1     -21.896 -36.557  19.375  1.00  0.00    -0.507 OA
ATOM     33  H   UNL     1     -21.520 -36.160  20.178  1.00  0.00     0.293 HD
ENDBRANCH  24  32
ENDBRANCH  20  21
ENDBRANCH   1  20
TORSDOF 6
ENDMDL
