MODEL 1
REMARK VINA RESULT:   -12.865      0.000      0.000
REMARK INTER + INTRA:         -19.021
REMARK INTER:                 -18.130
REMARK INTRA:                  -0.891
REMARK UNBOUND:                -0.891
REMARK SMILES Cc1cc(=O)[nH]c2c1C(=O)C(NCCCCN=c1c3c([nH]c4cc(Cl)ccc14)CCCC3)=CC2=O
REMARK SMILES IDX 15 1 16 2 17 3 18 4 21 5 20 6 22 7 19 8 29 9 23 10 28 11
REMARK SMILES IDX 32 12 30 13 24 14 27 15 31 16 26 17 25 19 14 20 13 21 12 22
REMARK SMILES IDX 11 24 33 25 9 26 34 27 8 28 7 29 2 30 6 31 3 32 4 33 10 34
REMARK SMILES IDX 35 35 1 36 5 38
REMARK H PARENT 21 18 12 23 6 37
ROOT
ATOM      1  C   UNL     1     -12.524 -46.418  29.244  1.00  0.00     0.025 C 
ENDROOT
BRANCH   1   2
ATOM      2  C   UNL     1     -11.152 -46.491  29.914  1.00  0.00     0.143 C 
BRANCH   2   3
ATOM      3  N   UNL     1     -11.255 -46.098  31.301  1.00  0.00    -0.284 NA
BRANCH   3   4
ATOM      4  C   UNL     1     -11.202 -44.913  31.806  1.00  0.00     0.072 A 
ATOM      5  N   UNL     1     -10.805 -42.850  33.677  1.00  0.00    -0.358 N 
ATOM      6  C   UNL     1      -9.711 -43.408  33.046  1.00  0.00     0.021 A 
ATOM      7  C   UNL     1     -12.089 -43.001  33.129  1.00  0.00     0.049 A 
ATOM      8  C   UNL     1      -9.823 -44.386  32.125  1.00  0.00    -0.003 A 
ATOM      9  C   UNL     1      -8.358 -42.852  33.436  1.00  0.00     0.054 C 
ATOM     10  C   UNL     1     -13.133 -42.169  33.557  1.00  0.00     0.047 A 
ATOM     11  C   UNL     1     -12.334 -43.991  32.157  1.00  0.00     0.024 A 
ATOM     12  C   UNL     1      -8.646 -45.040  31.448  1.00  0.00     0.039 C 
ATOM     13  C   UNL     1      -7.238 -43.217  32.461  1.00  0.00     0.007 C 
ATOM     14  C   UNL     1     -14.387 -42.262  32.959  1.00  0.00     0.043 A 
ATOM     15  C   UNL     1     -13.581 -44.027  31.523  1.00  0.00     0.014 A 
ATOM     16  C   UNL     1      -7.303 -44.692  32.092  1.00  0.00     0.005 C 
ATOM     17  C   UNL     1     -14.609 -43.171  31.930  1.00  0.00     0.021 A 
ATOM     18  H   UNL     1     -10.635 -42.010  34.220  1.00  0.00     0.166 HD
ATOM     19  Cl  UNL     1     -15.656 -41.220  33.469  1.00  0.00    -0.084 Cl
ENDBRANCH   3   4
ENDBRANCH   2   3
ENDBRANCH   1   2
BRANCH   1  20
ATOM     20  C   UNL     1     -12.534 -45.776  27.851  1.00  0.00     0.023 C 
BRANCH  20  21
ATOM     21  C   UNL     1     -12.486 -44.250  27.878  1.00  0.00     0.113 C 
BRANCH  21  22
ATOM     22  N   UNL     1     -13.832 -43.694  27.880  1.00  0.00    -0.382 N 
ATOM     23  H   UNL     1     -14.373 -43.922  28.722  1.00  0.00     0.160 HD
BRANCH  22  24
ATOM     24  C   UNL     1     -14.668 -43.505  26.784  1.00  0.00     0.087 C 
ATOM     25  C   UNL     1     -14.338 -43.724  25.508  1.00  0.00     0.084 C 
ATOM     26  C   UNL     1     -16.060 -43.007  27.115  1.00  0.00     0.211 C 
ATOM     27  C   UNL     1     -15.272 -43.492  24.403  1.00  0.00     0.205 C 
ATOM     28  C   UNL     1     -17.011 -42.712  25.996  1.00  0.00     0.055 A 
ATOM     29  C   UNL     1     -16.615 -42.955  24.735  1.00  0.00     0.101 A 
ATOM     30  C   UNL     1     -18.366 -42.175  26.214  1.00  0.00    -0.032 A 
ATOM     31  N   UNL     1     -17.452 -42.717  23.667  1.00  0.00    -0.319 N 
ATOM     32  C   UNL     1     -19.173 -41.947  25.159  1.00  0.00     0.075 A 
ATOM     33  C   UNL     1     -18.721 -42.226  23.776  1.00  0.00     0.248 A 
ATOM     34  O   UNL     1     -16.368 -42.876  28.300  1.00  0.00    -0.287 OA
ATOM     35  O   UNL     1     -14.948 -43.730  23.244  1.00  0.00    -0.288 OA
ATOM     36  C   UNL     1     -18.857 -41.873  27.602  1.00  0.00     0.045 C 
ATOM     37  H   UNL     1     -17.109 -42.919  22.731  1.00  0.00     0.170 HD
ATOM     38  O   UNL     1     -19.451 -42.024  22.816  1.00  0.00    -0.270 OA
ENDBRANCH  22  24
ENDBRANCH  21  22
ENDBRANCH  20  21
ENDBRANCH   1  20
TORSDOF 7
ENDMDL
MODEL 2
REMARK VINA RESULT:   -12.730      1.894      3.639
REMARK INTER + INTRA:         -18.830
REMARK INTER:                 -17.670
REMARK INTRA:                  -1.161
REMARK UNBOUND:                -0.891
REMARK SMILES Cc1cc(=O)[nH]c2c1C(=O)C(NCCCCN=c1c3c([nH]c4cc(Cl)ccc14)CCCC3)=CC2=O
REMARK SMILES IDX 15 1 16 2 17 3 18 4 21 5 20 6 22 7 19 8 29 9 23 10 28 11
REMARK SMILES IDX 32 12 30 13 24 14 27 15 31 16 26 17 25 19 14 20 13 21 12 22
REMARK SMILES IDX 11 24 33 25 9 26 34 27 8 28 7 29 2 30 6 31 3 32 4 33 10 34
REMARK SMILES IDX 35 35 1 36 5 38
REMARK H PARENT 21 18 12 23 6 37
ROOT
ATOM      1  C   UNL     1     -11.613 -46.556  27.781  1.00  0.00     0.025 C 
ENDROOT
BRANCH   1   2
ATOM      2  C   UNL     1     -10.505 -46.075  28.717  1.00  0.00     0.143 C 
BRANCH   2   3
ATOM      3  N   UNL     1     -10.950 -46.149  30.091  1.00  0.00    -0.284 NA
BRANCH   3   4
ATOM      4  C   UNL     1     -10.743 -45.309  31.048  1.00  0.00     0.072 A 
ATOM      5  N   UNL     1     -10.597 -42.869  32.441  1.00  0.00    -0.358 N 
ATOM      6  C   UNL     1     -11.825 -43.481  32.277  1.00  0.00     0.021 A 
ATOM      7  C   UNL     1      -9.414 -43.610  32.289  1.00  0.00     0.049 A 
ATOM      8  C   UNL     1     -11.971 -44.659  31.639  1.00  0.00    -0.003 A 
ATOM      9  C   UNL     1     -13.016 -42.758  32.869  1.00  0.00     0.054 C 
ATOM     10  C   UNL     1      -8.204 -43.102  32.780  1.00  0.00     0.047 A 
ATOM     11  C   UNL     1      -9.437 -44.859  31.635  1.00  0.00     0.024 A 
ATOM     12  C   UNL     1     -13.302 -45.329  31.413  1.00  0.00     0.039 C 
ATOM     13  C   UNL     1     -14.264 -43.632  33.000  1.00  0.00     0.007 C 
ATOM     14  C   UNL     1      -7.044 -43.869  32.703  1.00  0.00     0.043 A 
ATOM     15  C   UNL     1      -8.278 -45.641  31.624  1.00  0.00     0.014 A 
ATOM     16  C   UNL     1     -14.499 -44.431  31.727  1.00  0.00     0.005 C 
ATOM     17  C   UNL     1      -7.080 -45.144  32.147  1.00  0.00     0.021 A 
ATOM     18  H   UNL     1     -10.565 -42.082  33.079  1.00  0.00     0.166 HD
ATOM     19  Cl  UNL     1      -5.568 -43.252  33.332  1.00  0.00    -0.084 Cl
ENDBRANCH   3   4
ENDBRANCH   2   3
ENDBRANCH   1   2
BRANCH   1  20
ATOM     20  C   UNL     1     -12.927 -45.770  27.871  1.00  0.00     0.023 C 
BRANCH  20  21
ATOM     21  C   UNL     1     -12.747 -44.257  27.765  1.00  0.00     0.113 C 
BRANCH  21  22
ATOM     22  N   UNL     1     -14.038 -43.585  27.770  1.00  0.00    -0.382 N 
ATOM     23  H   UNL     1     -14.572 -43.719  28.637  1.00  0.00     0.160 HD
BRANCH  22  24
ATOM     24  C   UNL     1     -14.887 -43.381  26.687  1.00  0.00     0.087 C 
ATOM     25  C   UNL     1     -14.566 -43.565  25.403  1.00  0.00     0.084 C 
ATOM     26  C   UNL     1     -16.282 -42.909  27.042  1.00  0.00     0.211 C 
ATOM     27  C   UNL     1     -15.513 -43.319  24.312  1.00  0.00     0.205 C 
ATOM     28  C   UNL     1     -17.247 -42.600  25.939  1.00  0.00     0.055 A 
ATOM     29  C   UNL     1     -16.859 -42.808  24.669  1.00  0.00     0.101 A 
ATOM     30  C   UNL     1     -18.607 -42.087  26.182  1.00  0.00    -0.032 A 
ATOM     31  N   UNL     1     -17.709 -42.555  23.614  1.00  0.00    -0.319 N 
ATOM     32  C   UNL     1     -19.426 -41.844  25.140  1.00  0.00     0.075 A 
ATOM     33  C   UNL     1     -18.984 -42.084  23.747  1.00  0.00     0.248 A 
ATOM     34  O   UNL     1     -16.580 -42.811  28.233  1.00  0.00    -0.287 OA
ATOM     35  O   UNL     1     -15.196 -43.525  23.145  1.00  0.00    -0.288 OA
ATOM     36  C   UNL     1     -19.088 -41.824  27.582  1.00  0.00     0.045 C 
ATOM     37  H   UNL     1     -17.372 -42.730  22.671  1.00  0.00     0.170 HD
ATOM     38  O   UNL     1     -19.725 -41.868  22.798  1.00  0.00    -0.270 OA
ENDBRANCH  22  24
ENDBRANCH  21  22
ENDBRANCH  20  21
ENDBRANCH   1  20
TORSDOF 7
ENDMDL
MODEL 3
REMARK VINA RESULT:   -12.129      1.059      2.083
REMARK INTER + INTRA:         -17.983
REMARK INTER:                 -16.948
REMARK INTRA:                  -1.035
REMARK UNBOUND:                -0.891
REMARK SMILES Cc1cc(=O)[nH]c2c1C(=O)C(NCCCCN=c1c3c([nH]c4cc(Cl)ccc14)CCCC3)=CC2=O
REMARK SMILES IDX 15 1 16 2 17 3 18 4 21 5 20 6 22 7 19 8 29 9 23 10 28 11
REMARK SMILES IDX 32 12 30 13 24 14 27 15 31 16 26 17 25 19 14 20 13 21 12 22
REMARK SMILES IDX 11 24 33 25 9 26 34 27 8 28 7 29 2 30 6 31 3 32 4 33 10 34
REMARK SMILES IDX 35 35 1 36 5 38
REMARK H PARENT 21 18 12 23 6 37
ROOT
ATOM      1  C   UNL     1     -12.573 -46.532  28.904  1.00  0.00     0.025 C 
ENDROOT
BRANCH   1   2
ATOM      2  C   UNL     1     -11.173 -46.377  29.497  1.00  0.00     0.143 C 
BRANCH   2   3
ATOM      3  N   UNL     1     -11.263 -46.084  30.910  1.00  0.00    -0.284 NA
BRANCH   3   4
ATOM      4  C   UNL     1     -11.196 -44.939  31.499  1.00  0.00     0.072 A 
ATOM      5  N   UNL     1     -10.769 -43.020  33.511  1.00  0.00    -0.358 N 
ATOM      6  C   UNL     1      -9.684 -43.541  32.834  1.00  0.00     0.021 A 
ATOM      7  C   UNL     1     -12.058 -43.119  32.961  1.00  0.00     0.049 A 
ATOM      8  C   UNL     1      -9.811 -44.449  31.846  1.00  0.00    -0.003 A 
ATOM      9  C   UNL     1      -8.324 -43.026  33.255  1.00  0.00     0.054 C 
ATOM     10  C   UNL     1     -13.092 -42.311  33.455  1.00  0.00     0.047 A 
ATOM     11  C   UNL     1     -12.318 -44.035  31.922  1.00  0.00     0.024 A 
ATOM     12  C   UNL     1      -8.643 -45.062  31.117  1.00  0.00     0.039 C 
ATOM     13  C   UNL     1      -7.213 -43.330  32.249  1.00  0.00     0.007 C 
ATOM     14  C   UNL     1     -14.350 -42.350  32.859  1.00  0.00     0.043 A 
ATOM     15  C   UNL     1     -13.568 -44.014  31.295  1.00  0.00     0.014 A 
ATOM     16  C   UNL     1      -7.293 -44.774  31.776  1.00  0.00     0.005 C 
ATOM     17  C   UNL     1     -14.586 -43.180  31.769  1.00  0.00     0.021 A 
ATOM     18  H   UNL     1     -10.588 -42.223  34.112  1.00  0.00     0.166 HD
ATOM     19  Cl  UNL     1     -15.607 -41.337  33.451  1.00  0.00    -0.084 Cl
ENDBRANCH   3   4
ENDBRANCH   2   3
ENDBRANCH   1   2
BRANCH   1  20
ATOM     20  C   UNL     1     -12.769 -45.889  27.525  1.00  0.00     0.023 C 
BRANCH  20  21
ATOM     21  C   UNL     1     -12.746 -44.362  27.550  1.00  0.00     0.113 C 
BRANCH  21  22
ATOM     22  N   UNL     1     -13.595 -43.819  26.500  1.00  0.00    -0.382 N 
ATOM     23  H   UNL     1     -13.080 -43.306  25.774  1.00  0.00     0.160 HD
BRANCH  22  24
ATOM     24  C   UNL     1     -14.892 -43.333  26.630  1.00  0.00     0.087 C 
ATOM     25  C   UNL     1     -15.529 -43.119  27.785  1.00  0.00     0.084 C 
ATOM     26  C   UNL     1     -15.602 -43.037  25.325  1.00  0.00     0.211 C 
ATOM     27  C   UNL     1     -16.903 -42.614  27.844  1.00  0.00     0.205 C 
ATOM     28  C   UNL     1     -17.026 -42.571  25.363  1.00  0.00     0.055 A 
ATOM     29  C   UNL     1     -17.607 -42.376  26.559  1.00  0.00     0.101 A 
ATOM     30  C   UNL     1     -17.817 -42.308  24.148  1.00  0.00    -0.032 A 
ATOM     31  N   UNL     1     -18.909 -41.935  26.655  1.00  0.00    -0.319 N 
ATOM     32  C   UNL     1     -19.090 -41.877  24.258  1.00  0.00     0.075 A 
ATOM     33  C   UNL     1     -19.711 -41.662  25.585  1.00  0.00     0.248 A 
ATOM     34  O   UNL     1     -14.977 -43.175  24.274  1.00  0.00    -0.287 OA
ATOM     35  O   UNL     1     -17.450 -42.401  28.921  1.00  0.00    -0.288 OA
ATOM     36  C   UNL     1     -17.222 -42.521  22.784  1.00  0.00     0.045 C 
ATOM     37  H   UNL     1     -19.304 -41.799  27.583  1.00  0.00     0.170 HD
ATOM     38  O   UNL     1     -20.865 -41.268  25.691  1.00  0.00    -0.270 OA
ENDBRANCH  22  24
ENDBRANCH  21  22
ENDBRANCH  20  21
ENDBRANCH   1  20
TORSDOF 7
ENDMDL
MODEL 4
REMARK VINA RESULT:   -11.973      2.283      4.268
REMARK INTER + INTRA:         -17.764
REMARK INTER:                 -16.417
REMARK INTRA:                  -1.347
REMARK UNBOUND:                -0.891
REMARK SMILES Cc1cc(=O)[nH]c2c1C(=O)C(NCCCCN=c1c3c([nH]c4cc(Cl)ccc14)CCCC3)=CC2=O
REMARK SMILES IDX 15 1 16 2 17 3 18 4 21 5 20 6 22 7 19 8 29 9 23 10 28 11
REMARK SMILES IDX 32 12 30 13 24 14 27 15 31 16 26 17 25 19 14 20 13 21 12 22
REMARK SMILES IDX 11 24 33 25 9 26 34 27 8 28 7 29 2 30 6 31 3 32 4 33 10 34
REMARK SMILES IDX 35 35 1 36 5 38
REMARK H PARENT 21 18 12 23 6 37
ROOT
ATOM      1  C   UNL     1     -11.627 -45.207  28.054  1.00  0.00     0.025 C 
ENDROOT
BRANCH   1   2
ATOM      2  C   UNL     1     -10.634 -46.081  28.820  1.00  0.00     0.143 C 
BRANCH   2   3
ATOM      3  N   UNL     1     -11.006 -46.146  30.215  1.00  0.00    -0.284 NA
BRANCH   3   4
ATOM      4  C   UNL     1     -10.790 -45.280  31.145  1.00  0.00     0.072 A 
ATOM      5  N   UNL     1     -10.620 -42.799  32.463  1.00  0.00    -0.358 N 
ATOM      6  C   UNL     1     -11.853 -43.406  32.322  1.00  0.00     0.021 A 
ATOM      7  C   UNL     1      -9.443 -43.554  32.329  1.00  0.00     0.049 A 
ATOM      8  C   UNL     1     -12.010 -44.602  31.721  1.00  0.00    -0.003 A 
ATOM      9  C   UNL     1     -13.036 -42.657  32.896  1.00  0.00     0.054 C 
ATOM     10  C   UNL     1      -8.227 -43.040  32.800  1.00  0.00     0.047 A 
ATOM     11  C   UNL     1      -9.478 -44.821  31.714  1.00  0.00     0.024 A 
ATOM     12  C   UNL     1     -13.347 -45.269  31.520  1.00  0.00     0.039 C 
ATOM     13  C   UNL     1     -14.290 -43.517  33.059  1.00  0.00     0.007 C 
ATOM     14  C   UNL     1      -7.073 -43.817  32.742  1.00  0.00     0.043 A 
ATOM     15  C   UNL     1      -8.324 -45.612  31.722  1.00  0.00     0.014 A 
ATOM     16  C   UNL     1     -14.536 -44.353  31.811  1.00  0.00     0.005 C 
ATOM     17  C   UNL     1      -7.121 -45.108  32.226  1.00  0.00     0.021 A 
ATOM     18  H   UNL     1     -10.579 -41.993  33.076  1.00  0.00     0.166 HD
ATOM     19  Cl  UNL     1      -5.590 -43.192  33.346  1.00  0.00    -0.084 Cl
ENDBRANCH   3   4
ENDBRANCH   2   3
ENDBRANCH   1   2
BRANCH   1  20
ATOM     20  C   UNL     1     -12.971 -45.874  27.738  1.00  0.00     0.023 C 
BRANCH  20  21
ATOM     21  C   UNL     1     -13.537 -45.499  26.369  1.00  0.00     0.113 C 
BRANCH  21  22
ATOM     22  N   UNL     1     -13.914 -44.093  26.338  1.00  0.00    -0.382 N 
ATOM     23  H   UNL     1     -13.130 -43.450  26.499  1.00  0.00     0.160 HD
BRANCH  22  24
ATOM     24  C   UNL     1     -15.116 -43.532  26.759  1.00  0.00     0.087 C 
ATOM     25  C   UNL     1     -15.476 -43.332  28.030  1.00  0.00     0.084 C 
ATOM     26  C   UNL     1     -16.063 -43.131  25.648  1.00  0.00     0.211 C 
ATOM     27  C   UNL     1     -16.766 -42.743  28.399  1.00  0.00     0.205 C 
ATOM     28  C   UNL     1     -17.409 -42.578  26.005  1.00  0.00     0.055 A 
ATOM     29  C   UNL     1     -17.707 -42.402  27.305  1.00  0.00     0.101 A 
ATOM     30  C   UNL     1     -18.419 -42.208  24.998  1.00  0.00    -0.032 A 
ATOM     31  N   UNL     1     -18.923 -41.883  27.692  1.00  0.00    -0.319 N 
ATOM     32  C   UNL     1     -19.604 -41.702  25.393  1.00  0.00     0.075 A 
ATOM     33  C   UNL     1     -19.913 -41.511  26.829  1.00  0.00     0.248 A 
ATOM     34  O   UNL     1     -15.687 -43.260  24.483  1.00  0.00    -0.287 OA
ATOM     35  O   UNL     1     -17.055 -42.547  29.575  1.00  0.00    -0.288 OA
ATOM     36  C   UNL     1     -18.143 -42.395  23.532  1.00  0.00     0.045 C 
ATOM     37  H   UNL     1     -19.102 -41.766  28.687  1.00  0.00     0.170 HD
ATOM     38  O   UNL     1     -20.986 -41.049  27.192  1.00  0.00    -0.270 OA
ENDBRANCH  22  24
ENDBRANCH  21  22
ENDBRANCH  20  21
ENDBRANCH   1  20
TORSDOF 7
ENDMDL
MODEL 5
REMARK VINA RESULT:   -11.874      2.641      4.525
REMARK INTER + INTRA:         -17.624
REMARK INTER:                 -17.018
REMARK INTRA:                  -0.607
REMARK UNBOUND:                -0.891
REMARK SMILES Cc1cc(=O)[nH]c2c1C(=O)C(NCCCCN=c1c3c([nH]c4cc(Cl)ccc14)CCCC3)=CC2=O
REMARK SMILES IDX 15 1 16 2 17 3 18 4 21 5 20 6 22 7 19 8 29 9 23 10 28 11
REMARK SMILES IDX 32 12 30 13 24 14 27 15 31 16 26 17 25 19 14 20 13 21 12 22
REMARK SMILES IDX 11 24 33 25 9 26 34 27 8 28 7 29 2 30 6 31 3 32 4 33 10 34
REMARK SMILES IDX 35 35 1 36 5 38
REMARK H PARENT 21 18 12 23 6 37
ROOT
ATOM      1  C   UNL     1     -14.372 -44.422  27.898  1.00  0.00     0.025 C 
ENDROOT
BRANCH   1   2
ATOM      2  C   UNL     1     -13.018 -44.768  28.515  1.00  0.00     0.143 C 
BRANCH   2   3
ATOM      3  N   UNL     1     -13.173 -45.051  29.924  1.00  0.00    -0.284 NA
BRANCH   3   4
ATOM      4  C   UNL     1     -12.399 -44.716  30.900  1.00  0.00     0.072 A 
ATOM      5  N   UNL     1     -10.768 -43.135  32.561  1.00  0.00    -0.358 N 
ATOM      6  C   UNL     1     -12.141 -43.033  32.669  1.00  0.00     0.021 A 
ATOM      7  C   UNL     1     -10.190 -44.261  31.952  1.00  0.00     0.049 A 
ATOM      8  C   UNL     1     -12.987 -43.771  31.921  1.00  0.00    -0.003 A 
ATOM      9  C   UNL     1     -12.661 -42.045  33.692  1.00  0.00     0.054 C 
ATOM     10  C   UNL     1      -8.829 -44.535  32.142  1.00  0.00     0.047 A 
ATOM     11  C   UNL     1     -10.971 -45.110  31.143  1.00  0.00     0.024 A 
ATOM     12  C   UNL     1     -14.487 -43.653  31.991  1.00  0.00     0.039 C 
ATOM     13  C   UNL     1     -14.136 -42.238  34.041  1.00  0.00     0.007 C 
ATOM     14  C   UNL     1      -8.271 -45.693  31.607  1.00  0.00     0.043 A 
ATOM     15  C   UNL     1     -10.410 -46.300  30.668  1.00  0.00     0.014 A 
ATOM     16  C   UNL     1     -14.968 -42.435  32.782  1.00  0.00     0.005 C 
ATOM     17  C   UNL     1      -9.059 -46.587  30.890  1.00  0.00     0.021 A 
ATOM     18  H   UNL     1     -10.222 -42.672  33.279  1.00  0.00     0.166 HD
ATOM     19  Cl  UNL     1      -6.606 -46.038  31.866  1.00  0.00    -0.084 Cl
ENDBRANCH   3   4
ENDBRANCH   2   3
ENDBRANCH   1   2
BRANCH   1  20
ATOM     20  C   UNL     1     -14.329 -43.362  26.791  1.00  0.00     0.023 C 
BRANCH  20  21
ATOM     21  C   UNL     1     -15.047 -43.782  25.509  1.00  0.00     0.113 C 
BRANCH  21  22
ATOM     22  N   UNL     1     -16.278 -43.026  25.339  1.00  0.00    -0.382 N 
ATOM     23  H   UNL     1     -17.074 -43.405  25.865  1.00  0.00     0.160 HD
BRANCH  22  24
ATOM     24  C   UNL     1     -16.708 -42.358  24.196  1.00  0.00     0.087 C 
ATOM     25  C   UNL     1     -15.915 -41.866  23.240  1.00  0.00     0.084 C 
ATOM     26  C   UNL     1     -18.209 -42.202  24.068  1.00  0.00     0.211 C 
ATOM     27  C   UNL     1     -16.441 -41.164  22.066  1.00  0.00     0.205 C 
ATOM     28  C   UNL     1     -18.763 -41.440  22.903  1.00  0.00     0.055 A 
ATOM     29  C   UNL     1     -17.909 -40.971  21.977  1.00  0.00     0.101 A 
ATOM     30  C   UNL     1     -20.204 -41.190  22.720  1.00  0.00    -0.032 A 
ATOM     31  N   UNL     1     -18.363 -40.277  20.877  1.00  0.00    -0.319 N 
ATOM     32  C   UNL     1     -20.632 -40.508  21.638  1.00  0.00     0.075 A 
ATOM     33  C   UNL     1     -19.676 -40.003  20.625  1.00  0.00     0.248 A 
ATOM     34  O   UNL     1     -18.927 -42.722  24.923  1.00  0.00    -0.287 OA
ATOM     35  O   UNL     1     -15.688 -40.748  21.191  1.00  0.00    -0.288 OA
ATOM     36  C   UNL     1     -21.202 -41.681  23.730  1.00  0.00     0.045 C 
ATOM     37  H   UNL     1     -17.678 -39.943  20.202  1.00  0.00     0.170 HD
ATOM     38  O   UNL     1     -20.060 -39.386  19.641  1.00  0.00    -0.270 OA
ENDBRANCH  22  24
ENDBRANCH  21  22
ENDBRANCH  20  21
ENDBRANCH   1  20
TORSDOF 7
ENDMDL
MODEL 6
REMARK VINA RESULT:   -11.407      4.035     10.894
REMARK INTER + INTRA:         -16.966
REMARK INTER:                 -16.321
REMARK INTRA:                  -0.645
REMARK UNBOUND:                -0.891
REMARK SMILES Cc1cc(=O)[nH]c2c1C(=O)C(NCCCCN=c1c3c([nH]c4cc(Cl)ccc14)CCCC3)=CC2=O
REMARK SMILES IDX 15 1 16 2 17 3 18 4 21 5 20 6 22 7 19 8 29 9 23 10 28 11
REMARK SMILES IDX 32 12 30 13 24 14 27 15 31 16 26 17 25 19 14 20 13 21 12 22
REMARK SMILES IDX 11 24 33 25 9 26 34 27 8 28 7 29 2 30 6 31 3 32 4 33 10 34
REMARK SMILES IDX 35 35 1 36 5 38
REMARK H PARENT 21 18 12 23 6 37
ROOT
ATOM      1  C   UNL     1     -15.486 -43.275  23.624  1.00  0.00     0.025 C 
ENDROOT
BRANCH   1   2
ATOM      2  C   UNL     1     -16.333 -42.098  23.145  1.00  0.00     0.143 C 
BRANCH   2   3
ATOM      3  N   UNL     1     -17.737 -42.439  23.207  1.00  0.00    -0.284 NA
BRANCH   3   4
ATOM      4  C   UNL     1     -18.751 -41.650  23.309  1.00  0.00     0.072 A 
ATOM      5  N   UNL     1     -21.411 -40.787  23.620  1.00  0.00    -0.358 N 
ATOM      6  C   UNL     1     -20.695 -41.180  24.733  1.00  0.00     0.021 A 
ATOM      7  C   UNL     1     -20.740 -40.435  22.437  1.00  0.00     0.049 A 
ATOM      8  C   UNL     1     -19.411 -41.587  24.666  1.00  0.00    -0.003 A 
ATOM      9  C   UNL     1     -21.428 -41.120  26.056  1.00  0.00     0.054 C 
ATOM     10  C   UNL     1     -21.415 -39.720  21.438  1.00  0.00     0.047 A 
ATOM     11  C   UNL     1     -19.394 -40.806  22.247  1.00  0.00     0.024 A 
ATOM     12  C   UNL     1     -18.618 -42.057  25.858  1.00  0.00     0.039 C 
ATOM     13  C   UNL     1     -20.507 -41.191  27.275  1.00  0.00     0.007 C 
ATOM     14  C   UNL     1     -20.731 -39.299  20.300  1.00  0.00     0.043 A 
ATOM     15  C   UNL     1     -18.707 -40.320  21.129  1.00  0.00     0.014 A 
ATOM     16  C   UNL     1     -19.472 -42.293  27.104  1.00  0.00     0.005 C 
ATOM     17  C   UNL     1     -19.377 -39.577  20.152  1.00  0.00     0.021 A 
ATOM     18  H   UNL     1     -22.304 -40.337  23.791  1.00  0.00     0.166 HD
ATOM     19  Cl  UNL     1     -21.558 -38.399  19.091  1.00  0.00    -0.084 Cl
ENDBRANCH   3   4
ENDBRANCH   2   3
ENDBRANCH   1   2
BRANCH   1  20
ATOM     20  C   UNL     1     -15.421 -43.454  25.146  1.00  0.00     0.023 C 
BRANCH  20  21
ATOM     21  C   UNL     1     -14.151 -42.889  25.777  1.00  0.00     0.113 C 
BRANCH  21  22
ATOM     22  N   UNL     1     -13.632 -43.799  26.788  1.00  0.00    -0.382 N 
ATOM     23  H   UNL     1     -14.358 -44.342  27.269  1.00  0.00     0.160 HD
BRANCH  22  24
ATOM     24  C   UNL     1     -12.526 -43.606  27.610  1.00  0.00     0.087 C 
ATOM     25  C   UNL     1     -11.516 -42.766  27.368  1.00  0.00     0.084 C 
ATOM     26  C   UNL     1     -12.511 -44.440  28.875  1.00  0.00     0.211 C 
ATOM     27  C   UNL     1     -10.376 -42.623  28.278  1.00  0.00     0.205 C 
ATOM     28  C   UNL     1     -11.329 -44.348  29.791  1.00  0.00     0.055 A 
ATOM     29  C   UNL     1     -10.346 -43.482  29.487  1.00  0.00     0.101 A 
ATOM     30  C   UNL     1     -11.198 -45.157  31.015  1.00  0.00    -0.032 A 
ATOM     31  N   UNL     1      -9.242 -43.344  30.300  1.00  0.00    -0.319 N 
ATOM     32  C   UNL     1     -10.111 -45.011  31.800  1.00  0.00     0.075 A 
ATOM     33  C   UNL     1      -9.041 -44.048  31.452  1.00  0.00     0.248 A 
ATOM     34  O   UNL     1     -13.482 -45.157  29.114  1.00  0.00    -0.287 OA
ATOM     35  O   UNL     1      -9.477 -41.822  28.041  1.00  0.00    -0.288 OA
ATOM     36  C   UNL     1     -12.260 -46.149  31.397  1.00  0.00     0.045 C 
ATOM     37  H   UNL     1      -8.526 -42.675  30.030  1.00  0.00     0.170 HD
ATOM     38  O   UNL     1      -8.054 -43.910  32.163  1.00  0.00    -0.270 OA
ENDBRANCH  22  24
ENDBRANCH  21  22
ENDBRANCH  20  21
ENDBRANCH   1  20
TORSDOF 7
ENDMDL
MODEL 7
REMARK VINA RESULT:   -11.313      2.611      4.801
REMARK INTER + INTRA:         -16.834
REMARK INTER:                 -16.226
REMARK INTRA:                  -0.608
REMARK UNBOUND:                -0.891
REMARK SMILES Cc1cc(=O)[nH]c2c1C(=O)C(NCCCCN=c1c3c([nH]c4cc(Cl)ccc14)CCCC3)=CC2=O
REMARK SMILES IDX 15 1 16 2 17 3 18 4 21 5 20 6 22 7 19 8 29 9 23 10 28 11
REMARK SMILES IDX 32 12 30 13 24 14 27 15 31 16 26 17 25 19 14 20 13 21 12 22
REMARK SMILES IDX 11 24 33 25 9 26 34 27 8 28 7 29 2 30 6 31 3 32 4 33 10 34
REMARK SMILES IDX 35 35 1 36 5 38
REMARK H PARENT 21 18 12 23 6 37
ROOT
ATOM      1  C   UNL     1     -14.228 -44.639  27.605  1.00  0.00     0.025 C 
ENDROOT
BRANCH   1   2
ATOM      2  C   UNL     1     -12.929 -44.641  28.410  1.00  0.00     0.143 C 
BRANCH   2   3
ATOM      3  N   UNL     1     -13.217 -44.810  29.816  1.00  0.00    -0.284 NA
BRANCH   3   4
ATOM      4  C   UNL     1     -12.462 -44.545  30.828  1.00  0.00     0.072 A 
ATOM      5  N   UNL     1     -10.856 -43.090  32.621  1.00  0.00    -0.358 N 
ATOM      6  C   UNL     1     -12.230 -42.982  32.706  1.00  0.00     0.021 A 
ATOM      7  C   UNL     1     -10.273 -44.180  31.953  1.00  0.00     0.049 A 
ATOM      8  C   UNL     1     -13.064 -43.663  31.895  1.00  0.00    -0.003 A 
ATOM      9  C   UNL     1     -12.763 -42.057  33.779  1.00  0.00     0.054 C 
ATOM     10  C   UNL     1      -8.918 -44.478  32.154  1.00  0.00     0.047 A 
ATOM     11  C   UNL     1     -11.043 -44.968  31.075  1.00  0.00     0.024 A 
ATOM     12  C   UNL     1     -14.566 -43.536  31.940  1.00  0.00     0.039 C 
ATOM     13  C   UNL     1     -14.248 -42.259  34.084  1.00  0.00     0.007 C 
ATOM     14  C   UNL     1      -8.358 -45.604  31.557  1.00  0.00     0.043 A 
ATOM     15  C   UNL     1     -10.481 -46.130  30.536  1.00  0.00     0.014 A 
ATOM     16  C   UNL     1     -15.053 -42.367  32.797  1.00  0.00     0.005 C 
ATOM     17  C   UNL     1      -9.138 -46.443  30.767  1.00  0.00     0.021 A 
ATOM     18  H   UNL     1     -10.321 -42.679  33.379  1.00  0.00     0.166 HD
ATOM     19  Cl  UNL     1      -6.702 -45.981  31.828  1.00  0.00    -0.084 Cl
ENDBRANCH   3   4
ENDBRANCH   2   3
ENDBRANCH   1   2
BRANCH   1  20
ATOM     20  C   UNL     1     -14.168 -43.881  26.274  1.00  0.00     0.023 C 
BRANCH  20  21
ATOM     21  C   UNL     1     -15.140 -42.706  26.190  1.00  0.00     0.113 C 
BRANCH  21  22
ATOM     22  N   UNL     1     -16.248 -43.020  25.300  1.00  0.00    -0.382 N 
ATOM     23  H   UNL     1     -15.958 -43.256  24.344  1.00  0.00     0.160 HD
BRANCH  22  24
ATOM     24  C   UNL     1     -17.524 -42.464  25.312  1.00  0.00     0.087 C 
ATOM     25  C   UNL     1     -18.345 -42.428  26.365  1.00  0.00     0.084 C 
ATOM     26  C   UNL     1     -17.976 -41.863  23.997  1.00  0.00     0.211 C 
ATOM     27  C   UNL     1     -19.683 -41.833  26.300  1.00  0.00     0.205 C 
ATOM     28  C   UNL     1     -19.360 -41.299  23.895  1.00  0.00     0.055 A 
ATOM     29  C   UNL     1     -20.135 -41.294  24.993  1.00  0.00     0.101 A 
ATOM     30  C   UNL     1     -19.910 -40.741  22.646  1.00  0.00    -0.032 A 
ATOM     31  N   UNL     1     -21.411 -40.775  24.962  1.00  0.00    -0.319 N 
ATOM     32  C   UNL     1     -21.160 -40.238  22.632  1.00  0.00     0.075 A 
ATOM     33  C   UNL     1     -21.997 -40.235  23.853  1.00  0.00     0.248 A 
ATOM     34  O   UNL     1     -17.181 -41.846  23.058  1.00  0.00    -0.287 OA
ATOM     35  O   UNL     1     -20.403 -41.789  27.292  1.00  0.00    -0.288 OA
ATOM     36  C   UNL     1     -19.092 -40.734  21.385  1.00  0.00     0.045 C 
ATOM     37  H   UNL     1     -21.959 -40.790  25.819  1.00  0.00     0.170 HD
ATOM     38  O   UNL     1     -23.131 -39.776  23.846  1.00  0.00    -0.270 OA
ENDBRANCH  22  24
ENDBRANCH  21  22
ENDBRANCH  20  21
ENDBRANCH   1  20
TORSDOF 7
ENDMDL
MODEL 8
REMARK VINA RESULT:   -11.161      4.199     10.922
REMARK INTER + INTRA:         -16.619
REMARK INTER:                 -15.949
REMARK INTRA:                  -0.670
REMARK UNBOUND:                -0.891
REMARK SMILES Cc1cc(=O)[nH]c2c1C(=O)C(NCCCCN=c1c3c([nH]c4cc(Cl)ccc14)CCCC3)=CC2=O
REMARK SMILES IDX 15 1 16 2 17 3 18 4 21 5 20 6 22 7 19 8 29 9 23 10 28 11
REMARK SMILES IDX 32 12 30 13 24 14 27 15 31 16 26 17 25 19 14 20 13 21 12 22
REMARK SMILES IDX 11 24 33 25 9 26 34 27 8 28 7 29 2 30 6 31 3 32 4 33 10 34
REMARK SMILES IDX 35 35 1 36 5 38
REMARK H PARENT 21 18 12 23 6 37
ROOT
ATOM      1  C   UNL     1     -15.673 -43.463  23.559  1.00  0.00     0.025 C 
ENDROOT
BRANCH   1   2
ATOM      2  C   UNL     1     -16.485 -42.228  23.171  1.00  0.00     0.143 C 
BRANCH   2   3
ATOM      3  N   UNL     1     -17.898 -42.502  23.301  1.00  0.00    -0.284 NA
BRANCH   3   4
ATOM      4  C   UNL     1     -18.875 -41.664  23.367  1.00  0.00     0.072 A 
ATOM      5  N   UNL     1     -21.497 -40.671  23.603  1.00  0.00    -0.358 N 
ATOM      6  C   UNL     1     -20.825 -41.077  24.739  1.00  0.00     0.021 A 
ATOM      7  C   UNL     1     -20.785 -40.372  22.430  1.00  0.00     0.049 A 
ATOM      8  C   UNL     1     -19.561 -41.545  24.708  1.00  0.00    -0.003 A 
ATOM      9  C   UNL     1     -21.583 -40.958  26.044  1.00  0.00     0.054 C 
ATOM     10  C   UNL     1     -21.403 -39.644  21.404  1.00  0.00     0.047 A 
ATOM     11  C   UNL     1     -19.454 -40.810  22.277  1.00  0.00     0.024 A 
ATOM     12  C   UNL     1     -18.817 -42.031  25.925  1.00  0.00     0.039 C 
ATOM     13  C   UNL     1     -20.694 -41.051  27.284  1.00  0.00     0.007 C 
ATOM     14  C   UNL     1     -20.675 -39.277  20.275  1.00  0.00     0.043 A 
ATOM     15  C   UNL     1     -18.721 -40.378  21.167  1.00  0.00     0.014 A 
ATOM     16  C   UNL     1     -19.709 -42.204  27.156  1.00  0.00     0.005 C 
ATOM     17  C   UNL     1     -19.332 -39.621  20.162  1.00  0.00     0.021 A 
ATOM     18  H   UNL     1     -22.371 -40.175  23.747  1.00  0.00     0.166 HD
ATOM     19  Cl  UNL     1     -21.431 -38.361  19.032  1.00  0.00    -0.084 Cl
ENDBRANCH   3   4
ENDBRANCH   2   3
ENDBRANCH   1   2
BRANCH   1  20
ATOM     20  C   UNL     1     -14.462 -43.189  24.460  1.00  0.00     0.023 C 
BRANCH  20  21
ATOM     21  C   UNL     1     -14.829 -42.923  25.919  1.00  0.00     0.113 C 
BRANCH  21  22
ATOM     22  N   UNL     1     -13.631 -42.727  26.721  1.00  0.00    -0.382 N 
ATOM     23  H   UNL     1     -12.931 -42.119  26.281  1.00  0.00     0.160 HD
BRANCH  22  24
ATOM     24  C   UNL     1     -13.027 -43.646  27.574  1.00  0.00     0.087 C 
ATOM     25  C   UNL     1     -13.610 -44.737  28.078  1.00  0.00     0.084 C 
ATOM     26  C   UNL     1     -11.587 -43.341  27.933  1.00  0.00     0.211 C 
ATOM     27  C   UNL     1     -12.912 -45.657  28.981  1.00  0.00     0.205 C 
ATOM     28  C   UNL     1     -10.873 -44.239  28.897  1.00  0.00     0.055 A 
ATOM     29  C   UNL     1     -11.519 -45.321  29.367  1.00  0.00     0.101 A 
ATOM     30  C   UNL     1      -9.491 -43.996  29.347  1.00  0.00    -0.032 A 
ATOM     31  N   UNL     1     -10.908 -46.190  30.244  1.00  0.00    -0.319 N 
ATOM     32  C   UNL     1      -8.907 -44.856  30.207  1.00  0.00     0.075 A 
ATOM     33  C   UNL     1      -9.632 -46.045  30.710  1.00  0.00     0.248 A 
ATOM     34  O   UNL     1     -11.046 -42.370  27.405  1.00  0.00    -0.287 OA
ATOM     35  O   UNL     1     -13.466 -46.666  29.405  1.00  0.00    -0.288 OA
ATOM     36  C   UNL     1      -8.727 -42.796  28.864  1.00  0.00     0.045 C 
ATOM     37  H   UNL     1     -11.436 -46.996  30.570  1.00  0.00     0.170 HD
ATOM     38  O   UNL     1      -9.106 -46.829  31.487  1.00  0.00    -0.270 OA
ENDBRANCH  22  24
ENDBRANCH  21  22
ENDBRANCH  20  21
ENDBRANCH   1  20
TORSDOF 7
ENDMDL
MODEL 9
REMARK VINA RESULT:   -10.308      3.644     10.687
REMARK INTER + INTRA:         -15.418
REMARK INTER:                 -14.935
REMARK INTRA:                  -0.483
REMARK UNBOUND:                -0.891
REMARK SMILES Cc1cc(=O)[nH]c2c1C(=O)C(NCCCCN=c1c3c([nH]c4cc(Cl)ccc14)CCCC3)=CC2=O
REMARK SMILES IDX 15 1 16 2 17 3 18 4 21 5 20 6 22 7 19 8 29 9 23 10 28 11
REMARK SMILES IDX 32 12 30 13 24 14 27 15 31 16 26 17 25 19 14 20 13 21 12 22
REMARK SMILES IDX 11 24 33 25 9 26 34 27 8 28 7 29 2 30 6 31 3 32 4 33 10 34
REMARK SMILES IDX 35 35 1 36 5 38
REMARK H PARENT 21 18 12 23 6 37
ROOT
ATOM      1  C   UNL     1     -15.932 -42.707  24.442  1.00  0.00     0.025 C 
ENDROOT
BRANCH   1   2
ATOM      2  C   UNL     1     -17.398 -43.031  24.159  1.00  0.00     0.143 C 
BRANCH   2   3
ATOM      3  N   UNL     1     -18.252 -42.043  24.778  1.00  0.00    -0.284 NA
BRANCH   3   4
ATOM      4  C   UNL     1     -19.539 -41.965  24.753  1.00  0.00     0.072 A 
ATOM      5  N   UNL     1     -22.131 -40.897  24.999  1.00  0.00    -0.358 N 
ATOM      6  C   UNL     1     -21.373 -40.581  23.889  1.00  0.00     0.021 A 
ATOM      7  C   UNL     1     -21.806 -42.021  25.778  1.00  0.00     0.049 A 
ATOM      8  C   UNL     1     -20.132 -41.069  23.692  1.00  0.00    -0.003 A 
ATOM      9  C   UNL     1     -22.019 -39.653  22.881  1.00  0.00     0.054 C 
ATOM     10  C   UNL     1     -22.746 -42.541  26.679  1.00  0.00     0.047 A 
ATOM     11  C   UNL     1     -20.536 -42.620  25.664  1.00  0.00     0.024 A 
ATOM     12  C   UNL     1     -19.269 -40.710  22.510  1.00  0.00     0.039 C 
ATOM     13  C   UNL     1     -21.319 -39.638  21.522  1.00  0.00     0.007 C 
ATOM     14  C   UNL     1     -22.457 -43.701  27.393  1.00  0.00     0.043 A 
ATOM     15  C   UNL     1     -20.289 -43.820  26.340  1.00  0.00     0.014 A 
ATOM     16  C   UNL     1     -19.811 -39.536  21.693  1.00  0.00     0.005 C 
ATOM     17  C   UNL     1     -21.243 -44.354  27.212  1.00  0.00     0.021 A 
ATOM     18  H   UNL     1     -23.107 -40.625  24.974  1.00  0.00     0.166 HD
ATOM     19  Cl  UNL     1     -23.625 -44.350  28.476  1.00  0.00    -0.084 Cl
ENDBRANCH   3   4
ENDBRANCH   2   3
ENDBRANCH   1   2
BRANCH   1  20
ATOM     20  C   UNL     1     -15.517 -42.803  25.915  1.00  0.00     0.023 C 
BRANCH  20  21
ATOM     21  C   UNL     1     -14.045 -42.476  26.162  1.00  0.00     0.113 C 
BRANCH  21  22
ATOM     22  N   UNL     1     -13.397 -43.555  26.893  1.00  0.00    -0.382 N 
ATOM     23  H   UNL     1     -14.049 -44.257  27.261  1.00  0.00     0.160 HD
BRANCH  22  24
ATOM     24  C   UNL     1     -12.254 -43.471  27.684  1.00  0.00     0.087 C 
ATOM     25  C   UNL     1     -11.189 -42.706  27.430  1.00  0.00     0.084 C 
ATOM     26  C   UNL     1     -12.266 -44.338  28.926  1.00  0.00     0.211 C 
ATOM     27  C   UNL     1     -10.014 -42.677  28.306  1.00  0.00     0.205 C 
ATOM     28  C   UNL     1     -11.053 -44.364  29.805  1.00  0.00     0.055 A 
ATOM     29  C   UNL     1     -10.015 -43.569  29.491  1.00  0.00     0.101 A 
ATOM     30  C   UNL     1     -10.949 -45.214  31.004  1.00  0.00    -0.032 A 
ATOM     31  N   UNL     1      -8.880 -43.540  30.271  1.00  0.00    -0.319 N 
ATOM     32  C   UNL     1      -9.831 -45.175  31.756  1.00  0.00     0.075 A 
ATOM     33  C   UNL     1      -8.699 -44.289  31.398  1.00  0.00     0.248 A 
ATOM     34  O   UNL     1     -13.283 -44.984  29.179  1.00  0.00    -0.287 OA
ATOM     35  O   UNL     1      -9.063 -41.942  28.060  1.00  0.00    -0.288 OA
ATOM     36  C   UNL     1     -12.074 -46.131  31.394  1.00  0.00     0.045 C 
ATOM     37  H   UNL     1      -8.122 -42.921  29.995  1.00  0.00     0.170 HD
ATOM     38  O   UNL     1      -7.684 -44.247  32.080  1.00  0.00    -0.270 OA
ENDBRANCH  22  24
ENDBRANCH  21  22
ENDBRANCH  20  21
ENDBRANCH   1  20
TORSDOF 7
ENDMDL
