MODEL 1
REMARK VINA RESULT:   -11.425      0.000      0.000
REMARK INTER + INTRA:         -16.044
REMARK INTER:                 -15.766
REMARK INTRA:                  -0.278
REMARK UNBOUND:                -0.278
REMARK SMILES COc1cc2c(cc1OC)C(O)=C(C[C@H]1CC[N@@H+](Cc3ccccc3)CC1)C2
REMARK SMILES IDX 14 1 13 2 11 3 6 4 28 5 7 6 5 7 8 8 4 9 3 10 12 11 9 13
REMARK SMILES IDX 10 14 2 15 1 16 15 17 16 18 27 19 17 20 26 21 18 22 19 24
REMARK SMILES IDX 20 25 21 26 25 27 22 28 24 29 23 30
REMARK H PARENT 12 12 18 23
ROOT
ATOM      1  C   UNL     1     -13.409 -43.482  26.933  1.00  0.00     0.039 C 
ENDROOT
BRANCH   1   2
ATOM      2  C   UNL     1     -14.712 -43.133  26.296  1.00  0.00    -0.023 C 
ATOM      3  C   UNL     1     -15.031 -43.213  24.995  1.00  0.00     0.122 C 
ATOM      4  C   UNL     1     -16.428 -42.856  24.806  1.00  0.00     0.024 A 
ATOM      5  C   UNL     1     -15.933 -42.793  27.134  1.00  0.00     0.071 C 
ATOM      6  C   UNL     1     -17.193 -42.717  23.657  1.00  0.00     0.062 A 
ATOM      7  C   UNL     1     -16.970 -42.590  26.070  1.00  0.00    -0.029 A 
ATOM      8  C   UNL     1     -18.533 -42.313  23.779  1.00  0.00     0.161 A 
ATOM      9  C   UNL     1     -18.284 -42.191  26.214  1.00  0.00     0.055 A 
ATOM     10  C   UNL     1     -19.075 -42.066  25.064  1.00  0.00     0.161 A 
BRANCH   3  11
ATOM     11  O   UNL     1     -14.209 -43.568  23.974  1.00  0.00    -0.507 OA
ATOM     12  H   UNL     1     -14.375 -42.953  23.236  1.00  0.00     0.293 HD
ENDBRANCH   3  11
BRANCH   8  13
ATOM     13  O   UNL     1     -19.351 -42.081  22.705  1.00  0.00    -0.493 OA
ATOM     14  C   UNL     1     -19.196 -40.857  21.997  1.00  0.00     0.278 C 
ENDBRANCH   8  13
BRANCH  10  15
ATOM     15  O   UNL     1     -20.351 -41.631  25.319  1.00  0.00    -0.493 OA
ATOM     16  C   UNL     1     -20.617 -41.314  26.683  1.00  0.00     0.278 C 
ENDBRANCH  10  15
ENDBRANCH   1   2
BRANCH   1  17
ATOM     17  C   UNL     1     -13.273 -44.861  27.622  1.00  0.00     0.004 C 
ATOM     18  C   UNL     1     -14.138 -45.040  28.876  1.00  0.00     0.065 C 
ATOM     19  C   UNL     1     -11.820 -45.298  27.865  1.00  0.00     0.065 C 
ATOM     20  C   UNL     1     -13.484 -44.583  30.173  1.00  0.00     0.262 C 
ATOM     21  C   UNL     1     -11.217 -44.851  29.189  1.00  0.00     0.262 C 
ATOM     22  N   UNL     1     -12.136 -45.230  30.324  1.00  0.00    -0.331 N 
ATOM     23  H   UNL     1     -12.259 -46.249  30.289  1.00  0.00     0.348 HD
BRANCH  22  24
ATOM     24  C   UNL     1     -11.533 -44.922  31.680  1.00  0.00     0.299 C 
BRANCH  24  25
ATOM     25  C   UNL     1     -10.038 -45.088  31.711  1.00  0.00     0.006 A 
ATOM     26  C   UNL     1      -9.212 -44.035  32.133  1.00  0.00     0.009 A 
ATOM     27  C   UNL     1      -9.446 -46.293  31.301  1.00  0.00     0.009 A 
ATOM     28  C   UNL     1      -7.825 -44.183  32.137  1.00  0.00     0.001 A 
ATOM     29  C   UNL     1      -8.058 -46.436  31.308  1.00  0.00     0.001 A 
ATOM     30  C   UNL     1      -7.249 -45.381  31.723  1.00  0.00     0.000 A 
ENDBRANCH  24  25
ENDBRANCH  22  24
ENDBRANCH   1  17
TORSDOF 7
ENDMDL
MODEL 2
REMARK VINA RESULT:   -11.195      0.945      2.065
REMARK INTER + INTRA:         -15.727
REMARK INTER:                 -15.733
REMARK INTRA:                   0.006
REMARK UNBOUND:                -0.278
REMARK SMILES COc1cc2c(cc1OC)C(O)=C(C[C@H]1CC[N@@H+](Cc3ccccc3)CC1)C2
REMARK SMILES IDX 14 1 13 2 11 3 6 4 28 5 7 6 5 7 8 8 4 9 3 10 12 11 9 13
REMARK SMILES IDX 10 14 2 15 1 16 15 17 16 18 27 19 17 20 26 21 18 22 19 24
REMARK SMILES IDX 20 25 21 26 25 27 22 28 24 29 23 30
REMARK H PARENT 12 12 18 23
ROOT
ATOM      1  C   UNL     1     -13.215 -43.723  26.975  1.00  0.00     0.039 C 
ENDROOT
BRANCH   1   2
ATOM      2  C   UNL     1     -14.523 -43.392  26.336  1.00  0.00    -0.023 C 
ATOM      3  C   UNL     1     -15.656 -43.013  26.948  1.00  0.00     0.122 C 
ATOM      4  C   UNL     1     -16.673 -42.706  25.955  1.00  0.00     0.024 A 
ATOM      5  C   UNL     1     -14.657 -43.280  24.827  1.00  0.00     0.071 C 
ATOM      6  C   UNL     1     -18.008 -42.351  26.089  1.00  0.00     0.062 A 
ATOM      7  C   UNL     1     -16.094 -42.876  24.692  1.00  0.00    -0.029 A 
ATOM      8  C   UNL     1     -18.775 -42.152  24.929  1.00  0.00     0.161 A 
ATOM      9  C   UNL     1     -16.829 -42.686  23.538  1.00  0.00     0.055 A 
ATOM     10  C   UNL     1     -18.173 -42.308  23.656  1.00  0.00     0.161 A 
BRANCH   3  11
ATOM     11  O   UNL     1     -15.867 -42.916  28.285  1.00  0.00    -0.507 OA
ATOM     12  H   UNL     1     -15.125 -42.407  28.663  1.00  0.00     0.293 HD
ENDBRANCH   3  11
BRANCH   8  13
ATOM     13  O   UNL     1     -20.116 -41.867  24.952  1.00  0.00    -0.493 OA
ATOM     14  C   UNL     1     -20.644 -41.227  26.105  1.00  0.00     0.278 C 
ENDBRANCH   8  13
BRANCH  10  15
ATOM     15  O   UNL     1     -18.817 -42.180  22.451  1.00  0.00    -0.493 OA
ATOM     16  C   UNL     1     -19.000 -40.838  22.006  1.00  0.00     0.278 C 
ENDBRANCH  10  15
ENDBRANCH   1   2
BRANCH   1  17
ATOM     17  C   UNL     1     -13.073 -45.084  27.696  1.00  0.00     0.004 C 
ATOM     18  C   UNL     1     -13.946 -45.242  28.948  1.00  0.00     0.065 C 
ATOM     19  C   UNL     1     -11.618 -45.503  27.961  1.00  0.00     0.065 C 
ATOM     20  C   UNL     1     -13.307 -44.750  30.239  1.00  0.00     0.262 C 
ATOM     21  C   UNL     1     -11.029 -45.020  29.279  1.00  0.00     0.262 C 
ATOM     22  N   UNL     1     -11.955 -45.380  30.415  1.00  0.00    -0.331 N 
ATOM     23  H   UNL     1     -12.068 -46.401  30.403  1.00  0.00     0.348 HD
BRANCH  22  24
ATOM     24  C   UNL     1     -11.365 -45.036  31.768  1.00  0.00     0.299 C 
BRANCH  24  25
ATOM     25  C   UNL     1      -9.861 -45.069  31.781  1.00  0.00     0.006 A 
ATOM     26  C   UNL     1      -9.126 -43.939  32.172  1.00  0.00     0.009 A 
ATOM     27  C   UNL     1      -9.170 -46.224  31.385  1.00  0.00     0.009 A 
ATOM     28  C   UNL     1      -7.731 -43.963  32.159  1.00  0.00     0.001 A 
ATOM     29  C   UNL     1      -7.775 -46.245  31.375  1.00  0.00     0.001 A 
ATOM     30  C   UNL     1      -7.057 -45.114  31.758  1.00  0.00     0.000 A 
ENDBRANCH  24  25
ENDBRANCH  22  24
ENDBRANCH   1  17
TORSDOF 7
ENDMDL
MODEL 3
REMARK VINA RESULT:   -10.822      1.731      2.713
REMARK INTER + INTRA:         -15.212
REMARK INTER:                 -14.363
REMARK INTRA:                  -0.850
REMARK UNBOUND:                -0.278
REMARK SMILES COc1cc2c(cc1OC)C(O)=C(C[C@H]1CC[N@@H+](Cc3ccccc3)CC1)C2
REMARK SMILES IDX 14 1 13 2 11 3 6 4 28 5 7 6 5 7 8 8 4 9 3 10 12 11 9 13
REMARK SMILES IDX 10 14 2 15 1 16 15 17 16 18 27 19 17 20 26 21 18 22 19 24
REMARK SMILES IDX 20 25 21 26 25 27 22 28 24 29 23 30
REMARK H PARENT 12 12 18 23
ROOT
ATOM      1  C   UNL     1     -14.273 -42.448  26.596  1.00  0.00     0.039 C 
ENDROOT
BRANCH   1   2
ATOM      2  C   UNL     1     -15.757 -42.553  26.471  1.00  0.00    -0.023 C 
ATOM      3  C   UNL     1     -16.666 -42.460  27.453  1.00  0.00     0.122 C 
ATOM      4  C   UNL     1     -18.006 -42.535  26.894  1.00  0.00     0.024 A 
ATOM      5  C   UNL     1     -16.432 -42.609  25.110  1.00  0.00     0.071 C 
ATOM      6  C   UNL     1     -19.254 -42.561  27.501  1.00  0.00     0.062 A 
ATOM      7  C   UNL     1     -17.878 -42.640  25.504  1.00  0.00    -0.029 A 
ATOM      8  C   UNL     1     -20.397 -42.683  26.694  1.00  0.00     0.161 A 
ATOM      9  C   UNL     1     -18.988 -42.761  24.691  1.00  0.00     0.055 A 
ATOM     10  C   UNL     1     -20.256 -42.768  25.287  1.00  0.00     0.161 A 
BRANCH   3  11
ATOM     11  O   UNL     1     -16.420 -42.315  28.781  1.00  0.00    -0.507 OA
ATOM     12  H   UNL     1     -17.255 -42.044  29.206  1.00  0.00     0.293 HD
ENDBRANCH   3  11
BRANCH   8  13
ATOM     13  O   UNL     1     -21.668 -42.787  27.198  1.00  0.00    -0.493 OA
ATOM     14  C   UNL     1     -22.085 -44.047  27.706  1.00  0.00     0.278 C 
ENDBRANCH   8  13
BRANCH  10  15
ATOM     15  O   UNL     1     -21.284 -42.928  24.393  1.00  0.00    -0.493 OA
ATOM     16  C   UNL     1     -21.639 -44.282  24.121  1.00  0.00     0.278 C 
ENDBRANCH  10  15
ENDBRANCH   1   2
BRANCH   1  17
ATOM     17  C   UNL     1     -13.455 -43.751  26.753  1.00  0.00     0.004 C 
ATOM     18  C   UNL     1     -14.157 -44.858  27.551  1.00  0.00     0.065 C 
ATOM     19  C   UNL     1     -12.013 -43.529  27.237  1.00  0.00     0.065 C 
ATOM     20  C   UNL     1     -13.931 -44.803  29.056  1.00  0.00     0.262 C 
ATOM     21  C   UNL     1     -11.825 -43.517  28.747  1.00  0.00     0.262 C 
ATOM     22  N   UNL     1     -12.458 -44.746  29.351  1.00  0.00    -0.331 N 
ATOM     23  H   UNL     1     -12.009 -45.563  28.920  1.00  0.00     0.348 HD
BRANCH  22  24
ATOM     24  C   UNL     1     -12.197 -44.855  30.840  1.00  0.00     0.299 C 
BRANCH  24  25
ATOM     25  C   UNL     1     -10.759 -45.155  31.165  1.00  0.00     0.006 A 
ATOM     26  C   UNL     1      -9.970 -44.213  31.843  1.00  0.00     0.009 A 
ATOM     27  C   UNL     1     -10.180 -46.374  30.780  1.00  0.00     0.009 A 
ATOM     28  C   UNL     1      -8.630 -44.483  32.122  1.00  0.00     0.001 A 
ATOM     29  C   UNL     1      -8.840 -46.640  31.061  1.00  0.00     0.001 A 
ATOM     30  C   UNL     1      -8.065 -45.694  31.729  1.00  0.00     0.000 A 
ENDBRANCH  24  25
ENDBRANCH  22  24
ENDBRANCH   1  17
TORSDOF 7
ENDMDL
MODEL 4
REMARK VINA RESULT:   -10.581      1.584      2.825
REMARK INTER + INTRA:         -14.880
REMARK INTER:                 -14.883
REMARK INTRA:                   0.003
REMARK UNBOUND:                -0.278
REMARK SMILES COc1cc2c(cc1OC)C(O)=C(C[C@H]1CC[N@@H+](Cc3ccccc3)CC1)C2
REMARK SMILES IDX 14 1 13 2 11 3 6 4 28 5 7 6 5 7 8 8 4 9 3 10 12 11 9 13
REMARK SMILES IDX 10 14 2 15 1 16 15 17 16 18 27 19 17 20 26 21 18 22 19 24
REMARK SMILES IDX 20 25 21 26 25 27 22 28 24 29 23 30
REMARK H PARENT 12 12 18 23
ROOT
ATOM      1  C   UNL     1     -13.642 -44.343  28.426  1.00  0.00     0.039 C 
ENDROOT
BRANCH   1   2
ATOM      2  C   UNL     1     -14.712 -43.821  27.525  1.00  0.00    -0.023 C 
ATOM      3  C   UNL     1     -15.905 -43.320  27.881  1.00  0.00     0.122 C 
ATOM      4  C   UNL     1     -16.613 -42.848  26.702  1.00  0.00     0.024 A 
ATOM      5  C   UNL     1     -14.468 -43.638  26.036  1.00  0.00     0.071 C 
ATOM      6  C   UNL     1     -17.890 -42.327  26.546  1.00  0.00     0.062 A 
ATOM      7  C   UNL     1     -15.774 -43.046  25.599  1.00  0.00    -0.029 A 
ATOM      8  C   UNL     1     -18.329 -41.988  25.256  1.00  0.00     0.161 A 
ATOM      9  C   UNL     1     -16.185 -42.720  24.321  1.00  0.00     0.055 A 
ATOM     10  C   UNL     1     -17.464 -42.174  24.149  1.00  0.00     0.161 A 
BRANCH   3  11
ATOM     11  O   UNL     1     -16.415 -43.244  29.137  1.00  0.00    -0.507 OA
ATOM     12  H   UNL     1     -17.279 -42.796  29.076  1.00  0.00     0.293 HD
ENDBRANCH   3  11
BRANCH   8  13
ATOM     13  O   UNL     1     -19.593 -41.531  24.986  1.00  0.00    -0.493 OA
ATOM     14  C   UNL     1     -20.488 -41.353  26.076  1.00  0.00     0.278 C 
ENDBRANCH   8  13
BRANCH  10  15
ATOM     15  O   UNL     1     -17.783 -41.921  22.839  1.00  0.00    -0.493 OA
ATOM     16  C   UNL     1     -16.838 -41.118  22.135  1.00  0.00     0.278 C 
ENDBRANCH  10  15
ENDBRANCH   1   2
BRANCH   1  17
ATOM     17  C   UNL     1     -12.261 -44.674  27.813  1.00  0.00     0.004 C 
ATOM     18  C   UNL     1     -11.852 -46.149  27.910  1.00  0.00     0.065 C 
ATOM     19  C   UNL     1     -11.132 -43.739  28.276  1.00  0.00     0.065 C 
ATOM     20  C   UNL     1     -11.120 -46.526  29.190  1.00  0.00     0.262 C 
ATOM     21  C   UNL     1     -10.402 -44.172  29.539  1.00  0.00     0.262 C 
ATOM     22  N   UNL     1      -9.952 -45.605  29.404  1.00  0.00    -0.331 N 
ATOM     23  H   UNL     1      -9.343 -45.657  28.579  1.00  0.00     0.348 HD
BRANCH  22  24
ATOM     24  C   UNL     1      -9.110 -46.057  30.581  1.00  0.00     0.299 C 
BRANCH  24  25
ATOM     25  C   UNL     1      -8.851 -44.959  31.576  1.00  0.00     0.006 A 
ATOM     26  C   UNL     1      -9.916 -44.340  32.248  1.00  0.00     0.009 A 
ATOM     27  C   UNL     1      -7.541 -44.526  31.834  1.00  0.00     0.009 A 
ATOM     28  C   UNL     1      -9.674 -43.304  33.152  1.00  0.00     0.001 A 
ATOM     29  C   UNL     1      -7.304 -43.491  32.739  1.00  0.00     0.001 A 
ATOM     30  C   UNL     1      -8.370 -42.880  33.395  1.00  0.00     0.000 A 
ENDBRANCH  24  25
ENDBRANCH  22  24
ENDBRANCH   1  17
TORSDOF 7
ENDMDL
MODEL 5
REMARK VINA RESULT:   -10.370      2.433      4.515
REMARK INTER + INTRA:         -14.589
REMARK INTER:                 -14.021
REMARK INTRA:                  -0.568
REMARK UNBOUND:                -0.278
REMARK SMILES COc1cc2c(cc1OC)C(O)=C(C[C@H]1CC[N@@H+](Cc3ccccc3)CC1)C2
REMARK SMILES IDX 14 1 13 2 11 3 6 4 28 5 7 6 5 7 8 8 4 9 3 10 12 11 9 13
REMARK SMILES IDX 10 14 2 15 1 16 15 17 16 18 27 19 17 20 26 21 18 22 19 24
REMARK SMILES IDX 20 25 21 26 25 27 22 28 24 29 23 30
REMARK H PARENT 12 12 18 23
ROOT
ATOM      1  C   UNL     1     -17.418 -42.986  24.742  1.00  0.00     0.039 C 
ENDROOT
BRANCH   1   2
ATOM      2  C   UNL     1     -18.275 -42.035  23.975  1.00  0.00    -0.023 C 
ATOM      3  C   UNL     1     -18.022 -41.499  22.771  1.00  0.00     0.122 C 
ATOM      4  C   UNL     1     -19.151 -40.688  22.344  1.00  0.00     0.024 A 
ATOM      5  C   UNL     1     -19.682 -41.693  24.435  1.00  0.00     0.071 C 
ATOM      6  C   UNL     1     -19.334 -39.885  21.227  1.00  0.00     0.062 A 
ATOM      7  C   UNL     1     -20.137 -40.785  23.333  1.00  0.00    -0.029 A 
ATOM      8  C   UNL     1     -20.537 -39.172  21.095  1.00  0.00     0.161 A 
ATOM      9  C   UNL     1     -21.327 -40.093  23.225  1.00  0.00     0.055 A 
ATOM     10  C   UNL     1     -21.535 -39.293  22.093  1.00  0.00     0.161 A 
BRANCH   3  11
ATOM     11  O   UNL     1     -16.897 -41.661  22.026  1.00  0.00    -0.507 OA
ATOM     12  H   UNL     1     -17.164 -41.665  21.089  1.00  0.00     0.293 HD
ENDBRANCH   3  11
BRANCH   8  13
ATOM     13  O   UNL     1     -20.788 -38.301  20.067  1.00  0.00    -0.493 OA
ATOM     14  C   UNL     1     -21.542 -38.773  18.959  1.00  0.00     0.278 C 
ENDBRANCH   8  13
BRANCH  10  15
ATOM     15  O   UNL     1     -22.734 -38.625  22.104  1.00  0.00    -0.493 OA
ATOM     16  C   UNL     1     -23.607 -38.975  23.175  1.00  0.00     0.278 C 
ENDBRANCH  10  15
ENDBRANCH   1   2
BRANCH   1  17
ATOM     17  C   UNL     1     -15.962 -42.571  25.060  1.00  0.00     0.004 C 
ATOM     18  C   UNL     1     -14.889 -43.368  24.308  1.00  0.00     0.065 C 
ATOM     19  C   UNL     1     -15.653 -42.478  26.563  1.00  0.00     0.065 C 
ATOM     20  C   UNL     1     -14.436 -44.645  25.004  1.00  0.00     0.262 C 
ATOM     21  C   UNL     1     -15.169 -43.767  27.211  1.00  0.00     0.262 C 
ATOM     22  N   UNL     1     -14.022 -44.340  26.416  1.00  0.00    -0.331 N 
ATOM     23  H   UNL     1     -13.283 -43.628  26.391  1.00  0.00     0.348 HD
BRANCH  22  24
ATOM     24  C   UNL     1     -13.414 -45.559  27.080  1.00  0.00     0.299 C 
BRANCH  24  25
ATOM     25  C   UNL     1     -12.148 -45.251  27.831  1.00  0.00     0.006 A 
ATOM     26  C   UNL     1     -11.740 -43.922  28.026  1.00  0.00     0.009 A 
ATOM     27  C   UNL     1     -11.347 -46.288  28.333  1.00  0.00     0.009 A 
ATOM     28  C   UNL     1     -10.552 -43.640  28.701  1.00  0.00     0.001 A 
ATOM     29  C   UNL     1     -10.160 -46.001  29.008  1.00  0.00     0.001 A 
ATOM     30  C   UNL     1      -9.762 -44.678  29.189  1.00  0.00     0.000 A 
ENDBRANCH  24  25
ENDBRANCH  22  24
ENDBRANCH   1  17
TORSDOF 7
ENDMDL
MODEL 6
REMARK VINA RESULT:   -10.352      1.708      2.971
REMARK INTER + INTRA:         -14.564
REMARK INTER:                 -13.811
REMARK INTRA:                  -0.754
REMARK UNBOUND:                -0.278
REMARK SMILES COc1cc2c(cc1OC)C(O)=C(C[C@H]1CC[N@@H+](Cc3ccccc3)CC1)C2
REMARK SMILES IDX 14 1 13 2 11 3 6 4 28 5 7 6 5 7 8 8 4 9 3 10 12 11 9 13
REMARK SMILES IDX 10 14 2 15 1 16 15 17 16 18 27 19 17 20 26 21 18 22 19 24
REMARK SMILES IDX 20 25 21 26 25 27 22 28 24 29 23 30
REMARK H PARENT 12 12 18 23
ROOT
ATOM      1  C   UNL     1     -15.111 -43.399  24.979  1.00  0.00     0.039 C 
ENDROOT
BRANCH   1   2
ATOM      2  C   UNL     1     -16.247 -42.713  24.297  1.00  0.00    -0.023 C 
ATOM      3  C   UNL     1     -16.178 -41.814  23.303  1.00  0.00     0.122 C 
ATOM      4  C   UNL     1     -17.519 -41.456  22.868  1.00  0.00     0.024 A 
ATOM      5  C   UNL     1     -17.687 -43.119  24.563  1.00  0.00     0.071 C 
ATOM      6  C   UNL     1     -17.964 -40.527  21.938  1.00  0.00     0.062 A 
ATOM      7  C   UNL     1     -18.423 -42.214  23.622  1.00  0.00    -0.029 A 
ATOM      8  C   UNL     1     -19.347 -40.364  21.753  1.00  0.00     0.161 A 
ATOM      9  C   UNL     1     -19.787 -42.070  23.457  1.00  0.00     0.055 A 
ATOM     10  C   UNL     1     -20.252 -41.151  22.507  1.00  0.00     0.161 A 
BRANCH   3  11
ATOM     11  O   UNL     1     -15.052 -41.291  22.753  1.00  0.00    -0.507 OA
ATOM     12  H   UNL     1     -14.709 -41.942  22.113  1.00  0.00     0.293 HD
ENDBRANCH   3  11
BRANCH   8  13
ATOM     13  O   UNL     1     -19.890 -39.428  20.912  1.00  0.00    -0.493 OA
ATOM     14  C   UNL     1     -20.173 -39.815  19.573  1.00  0.00     0.278 C 
ENDBRANCH   8  13
BRANCH  10  15
ATOM     15  O   UNL     1     -21.621 -41.063  22.450  1.00  0.00    -0.493 OA
ATOM     16  C   UNL     1     -22.315 -41.898  23.374  1.00  0.00     0.278 C 
ENDBRANCH  10  15
ENDBRANCH   1   2
BRANCH   1  17
ATOM     17  C   UNL     1     -14.515 -42.748  26.250  1.00  0.00     0.004 C 
ATOM     18  C   UNL     1     -13.055 -43.120  26.538  1.00  0.00     0.065 C 
ATOM     19  C   UNL     1     -15.397 -42.896  27.500  1.00  0.00     0.065 C 
ATOM     20  C   UNL     1     -12.869 -44.380  27.373  1.00  0.00     0.262 C 
ATOM     21  C   UNL     1     -15.154 -44.152  28.325  1.00  0.00     0.262 C 
ATOM     22  N   UNL     1     -13.683 -44.285  28.632  1.00  0.00    -0.331 N 
ATOM     23  H   UNL     1     -13.400 -43.438  29.139  1.00  0.00     0.348 HD
BRANCH  22  24
ATOM     24  C   UNL     1     -13.392 -45.450  29.558  1.00  0.00     0.299 C 
BRANCH  24  25
ATOM     25  C   UNL     1     -12.195 -45.218  30.438  1.00  0.00     0.006 A 
ATOM     26  C   UNL     1     -12.066 -44.027  31.168  1.00  0.00     0.009 A 
ATOM     27  C   UNL     1     -11.180 -46.183  30.528  1.00  0.00     0.009 A 
ATOM     28  C   UNL     1     -10.942 -43.804  31.964  1.00  0.00     0.001 A 
ATOM     29  C   UNL     1     -10.058 -45.957  31.326  1.00  0.00     0.001 A 
ATOM     30  C   UNL     1      -9.938 -44.767  32.041  1.00  0.00     0.000 A 
ENDBRANCH  24  25
ENDBRANCH  22  24
ENDBRANCH   1  17
TORSDOF 7
ENDMDL
MODEL 7
REMARK VINA RESULT:   -10.257      3.317     10.410
REMARK INTER + INTRA:         -14.432
REMARK INTER:                 -13.922
REMARK INTRA:                  -0.510
REMARK UNBOUND:                -0.278
REMARK SMILES COc1cc2c(cc1OC)C(O)=C(C[C@H]1CC[N@@H+](Cc3ccccc3)CC1)C2
REMARK SMILES IDX 14 1 13 2 11 3 6 4 28 5 7 6 5 7 8 8 4 9 3 10 12 11 9 13
REMARK SMILES IDX 10 14 2 15 1 16 15 17 16 18 27 19 17 20 26 21 18 22 19 24
REMARK SMILES IDX 20 25 21 26 25 27 22 28 24 29 23 30
REMARK H PARENT 12 12 18 23
ROOT
ATOM      1  C   UNL     1     -14.162 -44.390  25.797  1.00  0.00     0.039 C 
ENDROOT
BRANCH   1   2
ATOM      2  C   UNL     1     -13.216 -44.536  26.943  1.00  0.00    -0.023 C 
ATOM      3  C   UNL     1     -12.702 -45.673  27.436  1.00  0.00     0.122 C 
ATOM      4  C   UNL     1     -11.759 -45.368  28.500  1.00  0.00     0.024 A 
ATOM      5  C   UNL     1     -12.572 -43.323  27.593  1.00  0.00     0.071 C 
ATOM      6  C   UNL     1     -11.040 -46.193  29.353  1.00  0.00     0.062 A 
ATOM      7  C   UNL     1     -11.686 -43.975  28.611  1.00  0.00    -0.029 A 
ATOM      8  C   UNL     1     -10.221 -45.606  30.331  1.00  0.00     0.161 A 
ATOM      9  C   UNL     1     -10.889 -43.375  29.566  1.00  0.00     0.055 A 
ATOM     10  C   UNL     1     -10.140 -44.194  30.422  1.00  0.00     0.161 A 
BRANCH   3  11
ATOM     11  O   UNL     1     -12.988 -46.939  27.034  1.00  0.00    -0.507 OA
ATOM     12  H   UNL     1     -13.547 -47.346  27.722  1.00  0.00     0.293 HD
ENDBRANCH   3  11
BRANCH   8  13
ATOM     13  O   UNL     1      -9.524 -46.329  31.264  1.00  0.00    -0.493 OA
ATOM     14  C   UNL     1      -8.140 -46.557  31.037  1.00  0.00     0.278 C 
ENDBRANCH   8  13
BRANCH  10  15
ATOM     15  O   UNL     1      -9.411 -43.497  31.352  1.00  0.00    -0.493 OA
ATOM     16  C   UNL     1     -10.046 -43.343  32.620  1.00  0.00     0.278 C 
ENDBRANCH  10  15
ENDBRANCH   1   2
BRANCH   1  17
ATOM     17  C   UNL     1     -14.682 -42.976  25.449  1.00  0.00     0.004 C 
ATOM     18  C   UNL     1     -15.802 -42.460  26.362  1.00  0.00     0.065 C 
ATOM     19  C   UNL     1     -15.028 -42.785  23.963  1.00  0.00     0.065 C 
ATOM     20  C   UNL     1     -17.210 -42.838  25.923  1.00  0.00     0.262 C 
ATOM     21  C   UNL     1     -16.455 -43.140  23.573  1.00  0.00     0.262 C 
ATOM     22  N   UNL     1     -17.425 -42.438  24.491  1.00  0.00    -0.331 N 
ATOM     23  H   UNL     1     -17.250 -41.430  24.406  1.00  0.00     0.348 HD
BRANCH  22  24
ATOM     24  C   UNL     1     -18.867 -42.653  24.076  1.00  0.00     0.299 C 
BRANCH  24  25
ATOM     25  C   UNL     1     -19.464 -41.460  23.381  1.00  0.00     0.006 A 
ATOM     26  C   UNL     1     -20.672 -40.903  23.830  1.00  0.00     0.009 A 
ATOM     27  C   UNL     1     -18.831 -40.896  22.262  1.00  0.00     0.009 A 
ATOM     28  C   UNL     1     -21.236 -39.812  23.167  1.00  0.00     0.001 A 
ATOM     29  C   UNL     1     -19.398 -39.805  21.604  1.00  0.00     0.001 A 
ATOM     30  C   UNL     1     -20.601 -39.266  22.055  1.00  0.00     0.000 A 
ENDBRANCH  24  25
ENDBRANCH  22  24
ENDBRANCH   1  17
TORSDOF 7
ENDMDL
MODEL 8
REMARK VINA RESULT:   -10.142      3.328     10.901
REMARK INTER + INTRA:         -14.275
REMARK INTER:                 -13.513
REMARK INTRA:                  -0.762
REMARK UNBOUND:                -0.278
REMARK SMILES COc1cc2c(cc1OC)C(O)=C(C[C@H]1CC[N@@H+](Cc3ccccc3)CC1)C2
REMARK SMILES IDX 14 1 13 2 11 3 6 4 28 5 7 6 5 7 8 8 4 9 3 10 12 11 9 13
REMARK SMILES IDX 10 14 2 15 1 16 15 17 16 18 27 19 17 20 26 21 18 22 19 24
REMARK SMILES IDX 20 25 21 26 25 27 22 28 24 29 23 30
REMARK H PARENT 12 12 18 23
ROOT
ATOM      1  C   UNL     1     -15.975 -42.382  24.925  1.00  0.00     0.039 C 
ENDROOT
BRANCH   1   2
ATOM      2  C   UNL     1     -15.244 -43.152  25.973  1.00  0.00    -0.023 C 
ATOM      3  C   UNL     1     -15.497 -43.178  27.291  1.00  0.00     0.122 C 
ATOM      4  C   UNL     1     -14.603 -44.119  27.947  1.00  0.00     0.024 A 
ATOM      5  C   UNL     1     -14.185 -44.177  25.604  1.00  0.00     0.071 C 
ATOM      6  C   UNL     1     -14.428 -44.437  29.286  1.00  0.00     0.062 A 
ATOM      7  C   UNL     1     -13.809 -44.707  26.955  1.00  0.00    -0.029 A 
ATOM      8  C   UNL     1     -13.441 -45.374  29.636  1.00  0.00     0.161 A 
ATOM      9  C   UNL     1     -12.833 -45.630  27.276  1.00  0.00     0.055 A 
ATOM     10  C   UNL     1     -12.657 -45.977  28.622  1.00  0.00     0.161 A 
BRANCH   3  11
ATOM     11  O   UNL     1     -16.434 -42.454  27.956  1.00  0.00    -0.507 OA
ATOM     12  H   UNL     1     -17.302 -42.854  27.767  1.00  0.00     0.293 HD
ENDBRANCH   3  11
BRANCH   8  13
ATOM     13  O   UNL     1     -13.142 -45.705  30.932  1.00  0.00    -0.493 OA
ATOM     14  C   UNL     1     -12.255 -44.859  31.651  1.00  0.00     0.278 C 
ENDBRANCH   8  13
BRANCH  10  15
ATOM     15  O   UNL     1     -11.639 -46.874  28.831  1.00  0.00    -0.493 OA
ATOM     16  C   UNL     1     -10.346 -46.417  28.442  1.00  0.00     0.278 C 
ENDBRANCH  10  15
ENDBRANCH   1   2
BRANCH   1  17
ATOM     17  C   UNL     1     -17.229 -43.022  24.283  1.00  0.00     0.004 C 
ATOM     18  C   UNL     1     -17.515 -42.573  22.844  1.00  0.00     0.065 C 
ATOM     19  C   UNL     1     -18.488 -42.948  25.162  1.00  0.00     0.065 C 
ATOM     20  C   UNL     1     -18.372 -41.320  22.724  1.00  0.00     0.262 C 
ATOM     21  C   UNL     1     -19.336 -41.696  24.985  1.00  0.00     0.262 C 
ATOM     22  N   UNL     1     -19.635 -41.485  23.521  1.00  0.00    -0.331 N 
ATOM     23  H   UNL     1     -20.124 -42.324  23.186  1.00  0.00     0.348 HD
BRANCH  22  24
ATOM     24  C   UNL     1     -20.581 -40.323  23.290  1.00  0.00     0.299 C 
BRANCH  24  25
ATOM     25  C   UNL     1     -20.844 -40.059  21.832  1.00  0.00     0.006 A 
ATOM     26  C   UNL     1     -20.478 -38.834  21.252  1.00  0.00     0.009 A 
ATOM     27  C   UNL     1     -21.474 -41.027  21.035  1.00  0.00     0.009 A 
ATOM     28  C   UNL     1     -20.746 -38.582  19.906  1.00  0.00     0.001 A 
ATOM     29  C   UNL     1     -21.739 -40.770  19.690  1.00  0.00     0.001 A 
ATOM     30  C   UNL     1     -21.378 -39.548  19.127  1.00  0.00     0.000 A 
ENDBRANCH  24  25
ENDBRANCH  22  24
ENDBRANCH   1  17
TORSDOF 7
ENDMDL
MODEL 9
REMARK VINA RESULT:    -9.656      2.798      5.092
REMARK INTER + INTRA:         -13.603
REMARK INTER:                 -13.285
REMARK INTRA:                  -0.318
REMARK UNBOUND:                -0.278
REMARK SMILES COc1cc2c(cc1OC)C(O)=C(C[C@H]1CC[N@@H+](Cc3ccccc3)CC1)C2
REMARK SMILES IDX 14 1 13 2 11 3 6 4 28 5 7 6 5 7 8 8 4 9 3 10 12 11 9 13
REMARK SMILES IDX 10 14 2 15 1 16 15 17 16 18 27 19 17 20 26 21 18 22 19 24
REMARK SMILES IDX 20 25 21 26 25 27 22 28 24 29 23 30
REMARK H PARENT 12 12 18 23
ROOT
ATOM      1  C   UNL     1     -16.775 -42.002  23.130  1.00  0.00     0.039 C 
ENDROOT
BRANCH   1   2
ATOM      2  C   UNL     1     -18.119 -41.361  23.028  1.00  0.00    -0.023 C 
ATOM      3  C   UNL     1     -18.590 -40.611  22.020  1.00  0.00     0.122 C 
ATOM      4  C   UNL     1     -19.975 -40.249  22.279  1.00  0.00     0.024 A 
ATOM      5  C   UNL     1     -19.212 -41.654  24.042  1.00  0.00     0.071 C 
ATOM      6  C   UNL     1     -20.857 -39.435  21.581  1.00  0.00     0.062 A 
ATOM      7  C   UNL     1     -20.349 -40.851  23.486  1.00  0.00    -0.029 A 
ATOM      8  C   UNL     1     -22.145 -39.231  22.102  1.00  0.00     0.161 A 
ATOM      9  C   UNL     1     -21.610 -40.665  24.016  1.00  0.00     0.055 A 
ATOM     10  C   UNL     1     -22.519 -39.862  23.314  1.00  0.00     0.161 A 
BRANCH   3  11
ATOM     11  O   UNL     1     -17.915 -40.224  20.907  1.00  0.00    -0.507 OA
ATOM     12  H   UNL     1     -16.967 -40.383  21.068  1.00  0.00     0.293 HD
ENDBRANCH   3  11
BRANCH   8  13
ATOM     13  O   UNL     1     -23.066 -38.394  21.528  1.00  0.00    -0.493 OA
ATOM     14  C   UNL     1     -23.961 -38.941  20.568  1.00  0.00     0.278 C 
ENDBRANCH   8  13
BRANCH  10  15
ATOM     15  O   UNL     1     -23.728 -39.716  23.947  1.00  0.00    -0.493 OA
ATOM     16  C   UNL     1     -24.248 -40.907  24.533  1.00  0.00     0.278 C 
ENDBRANCH  10  15
ENDBRANCH   1   2
BRANCH   1  17
ATOM     17  C   UNL     1     -16.594 -43.177  24.119  1.00  0.00     0.004 C 
ATOM     18  C   UNL     1     -16.770 -42.805  25.597  1.00  0.00     0.065 C 
ATOM     19  C   UNL     1     -15.316 -43.998  23.888  1.00  0.00     0.065 C 
ATOM     20  C   UNL     1     -15.502 -42.325  26.291  1.00  0.00     0.262 C 
ATOM     21  C   UNL     1     -14.080 -43.505  24.628  1.00  0.00     0.262 C 
ATOM     22  N   UNL     1     -14.399 -43.325  26.091  1.00  0.00    -0.331 N 
ATOM     23  H   UNL     1     -14.716 -44.234  26.448  1.00  0.00     0.348 HD
BRANCH  22  24
ATOM     24  C   UNL     1     -13.174 -42.954  26.904  1.00  0.00     0.299 C 
BRANCH  24  25
ATOM     25  C   UNL     1     -12.464 -44.150  27.478  1.00  0.00     0.006 A 
ATOM     26  C   UNL     1     -12.986 -45.441  27.303  1.00  0.00     0.009 A 
ATOM     27  C   UNL     1     -11.278 -43.990  28.211  1.00  0.00     0.009 A 
ATOM     28  C   UNL     1     -12.339 -46.546  27.858  1.00  0.00     0.001 A 
ATOM     29  C   UNL     1     -10.634 -45.098  28.763  1.00  0.00     0.001 A 
ATOM     30  C   UNL     1     -11.166 -46.374  28.588  1.00  0.00     0.000 A 
ENDBRANCH  24  25
ENDBRANCH  22  24
ENDBRANCH   1  17
TORSDOF 7
ENDMDL
