MODEL 1
REMARK VINA RESULT:    -5.096      0.000      0.000
REMARK INTER + INTRA:          -6.762
REMARK INTER:                  -6.288
REMARK INTRA:                  -0.474
REMARK UNBOUND:                -0.474
REMARK SMILES O=C([O-])[C@H](O)[C@@H](O)C(=O)[O-]
REMARK SMILES IDX 4 1 2 2 1 3 3 4 6 5 8 6 9 7 10 8 7 9 5 11
REMARK H PARENT 7 10 5 12
ROOT
ATOM      1  C   UNL     1     -12.388 -43.806  31.909  1.00  0.00     0.194 C 
ENDROOT
BRANCH   1   2
ATOM      2  C   UNL     1     -12.736 -42.541  32.760  1.00  0.00     0.073 C 
ATOM      3  O   UNL     1     -13.873 -42.031  32.477  1.00  0.00    -0.547 OA
ATOM      4  O   UNL     1     -11.867 -42.116  33.573  1.00  0.00    -0.547 OA
ENDBRANCH   1   2
BRANCH   1   5
ATOM      5  C   UNL     1     -13.595 -44.731  31.787  1.00  0.00     0.194 C 
BRANCH   5   6
ATOM      6  C   UNL     1     -13.150 -46.191  31.449  1.00  0.00     0.073 C 
ATOM      7  O   UNL     1     -14.049 -47.068  31.689  1.00  0.00    -0.547 OA
ATOM      8  O   UNL     1     -11.966 -46.371  31.046  1.00  0.00    -0.547 OA
ENDBRANCH   5   6
BRANCH   5   9
ATOM      9  O   UNL     1     -14.523 -44.277  30.754  1.00  0.00    -0.384 OA
ATOM     10  H   UNL     1     -14.952 -45.131  30.507  1.00  0.00     0.211 HD
ENDBRANCH   5   9
ENDBRANCH   1   5
BRANCH   1  11
ATOM     11  O   UNL     1     -11.905 -43.368  30.602  1.00  0.00    -0.384 OA
ATOM     12  H   UNL     1     -11.026 -43.818  30.572  1.00  0.00     0.211 HD
ENDBRANCH   1  11
TORSDOF 5
ENDMDL
MODEL 2
REMARK VINA RESULT:    -5.061      0.306      3.910
REMARK INTER + INTRA:          -6.719
REMARK INTER:                  -6.241
REMARK INTRA:                  -0.478
REMARK UNBOUND:                -0.474
REMARK SMILES O=C([O-])[C@H](O)[C@@H](O)C(=O)[O-]
REMARK SMILES IDX 4 1 2 2 1 3 3 4 6 5 8 6 9 7 10 8 7 9 5 11
REMARK H PARENT 7 10 5 12
ROOT
ATOM      1  C   UNL     1     -13.697 -44.641  31.796  1.00  0.00     0.194 C 
ENDROOT
BRANCH   1   2
ATOM      2  C   UNL     1     -13.138 -46.042  31.384  1.00  0.00     0.073 C 
ATOM      3  O   UNL     1     -13.950 -47.003  31.609  1.00  0.00    -0.547 OA
ATOM      4  O   UNL     1     -11.956 -46.102  30.943  1.00  0.00    -0.547 OA
ENDBRANCH   1   2
BRANCH   1   5
ATOM      5  C   UNL     1     -12.562 -43.663  32.087  1.00  0.00     0.194 C 
BRANCH   5   6
ATOM      6  C   UNL     1     -13.070 -42.452  32.934  1.00  0.00     0.073 C 
ATOM      7  O   UNL     1     -14.170 -41.956  32.508  1.00  0.00    -0.547 OA
ATOM      8  O   UNL     1     -12.344 -42.047  33.885  1.00  0.00    -0.547 OA
ENDBRANCH   5   6
BRANCH   5   9
ATOM      9  O   UNL     1     -11.959 -43.152  30.859  1.00  0.00    -0.384 OA
ATOM     10  H   UNL     1     -12.731 -43.194  30.245  1.00  0.00     0.211 HD
ENDBRANCH   5   9
ENDBRANCH   1   5
BRANCH   1  11
ATOM     11  O   UNL     1     -14.570 -44.157  30.730  1.00  0.00    -0.384 OA
ATOM     12  H   UNL     1     -14.152 -44.584  29.943  1.00  0.00     0.211 HD
ENDBRANCH   1  11
TORSDOF 5
ENDMDL
MODEL 3
REMARK VINA RESULT:    -5.026      1.414      3.681
REMARK INTER + INTRA:          -6.676
REMARK INTER:                  -6.262
REMARK INTRA:                  -0.414
REMARK UNBOUND:                -0.474
REMARK SMILES O=C([O-])[C@H](O)[C@@H](O)C(=O)[O-]
REMARK SMILES IDX 4 1 2 2 1 3 3 4 6 5 8 6 9 7 10 8 7 9 5 11
REMARK H PARENT 7 10 5 12
ROOT
ATOM      1  C   UNL     1     -12.962 -45.661  31.722  1.00  0.00     0.194 C 
ENDROOT
BRANCH   1   2
ATOM      2  C   UNL     1     -11.727 -46.112  30.875  1.00  0.00     0.073 C 
ATOM      3  O   UNL     1     -11.869 -45.919  29.619  1.00  0.00    -0.547 OA
ATOM      4  O   UNL     1     -10.764 -46.665  31.479  1.00  0.00    -0.547 OA
ENDBRANCH   1   2
BRANCH   1   5
ATOM      5  C   UNL     1     -13.471 -44.298  31.262  1.00  0.00     0.194 C 
BRANCH   5   6
ATOM      6  C   UNL     1     -13.985 -43.455  32.473  1.00  0.00     0.073 C 
ATOM      7  O   UNL     1     -14.576 -44.152  33.368  1.00  0.00    -0.547 OA
ATOM      8  O   UNL     1     -13.834 -42.201  32.430  1.00  0.00    -0.547 OA
ENDBRANCH   5   6
BRANCH   5   9
ATOM      9  O   UNL     1     -14.554 -44.424  30.289  1.00  0.00    -0.384 OA
ATOM     10  H   UNL     1     -14.176 -43.918  29.530  1.00  0.00     0.211 HD
ENDBRANCH   5   9
ENDBRANCH   1   5
BRANCH   1  11
ATOM     11  O   UNL     1     -13.995 -46.689  31.620  1.00  0.00    -0.384 OA
ATOM     12  H   UNL     1     -13.702 -47.313  32.327  1.00  0.00     0.211 HD
ENDBRANCH   1  11
TORSDOF 5
ENDMDL
MODEL 4
REMARK VINA RESULT:    -5.018      1.418      2.022
REMARK INTER + INTRA:          -6.665
REMARK INTER:                  -6.236
REMARK INTRA:                  -0.429
REMARK UNBOUND:                -0.474
REMARK SMILES O=C([O-])[C@H](O)[C@@H](O)C(=O)[O-]
REMARK SMILES IDX 4 1 2 2 1 3 3 4 6 5 8 6 9 7 10 8 7 9 5 11
REMARK H PARENT 7 10 5 12
ROOT
ATOM      1  C   UNL     1     -13.546 -44.217  31.330  1.00  0.00     0.194 C 
ENDROOT
BRANCH   1   2
ATOM      2  C   UNL     1     -13.983 -43.313  32.529  1.00  0.00     0.073 C 
ATOM      3  O   UNL     1     -14.603 -43.948  33.449  1.00  0.00    -0.547 OA
ATOM      4  O   UNL     1     -13.751 -42.074  32.453  1.00  0.00    -0.547 OA
ENDBRANCH   1   2
BRANCH   1   5
ATOM      5  C   UNL     1     -13.111 -45.596  31.815  1.00  0.00     0.194 C 
BRANCH   5   6
ATOM      6  C   UNL     1     -11.970 -46.172  30.916  1.00  0.00     0.073 C 
ATOM      7  O   UNL     1     -12.262 -46.196  29.671  1.00  0.00    -0.547 OA
ATOM      8  O   UNL     1     -10.928 -46.604  31.485  1.00  0.00    -0.547 OA
ENDBRANCH   5   6
BRANCH   5   9
ATOM      9  O   UNL     1     -14.222 -46.545  31.820  1.00  0.00    -0.384 OA
ATOM     10  H   UNL     1     -14.632 -46.350  30.943  1.00  0.00     0.211 HD
ENDBRANCH   5   9
ENDBRANCH   1   5
BRANCH   1  11
ATOM     11  O   UNL     1     -14.655 -44.299  30.383  1.00  0.00    -0.384 OA
ATOM     12  H   UNL     1     -15.139 -45.085  30.735  1.00  0.00     0.211 HD
ENDBRANCH   1  11
TORSDOF 5
ENDMDL
MODEL 5
REMARK VINA RESULT:    -4.916      9.899     10.876
REMARK INTER + INTRA:          -6.540
REMARK INTER:                  -6.059
REMARK INTRA:                  -0.481
REMARK UNBOUND:                -0.474
REMARK SMILES O=C([O-])[C@H](O)[C@@H](O)C(=O)[O-]
REMARK SMILES IDX 4 1 2 2 1 3 3 4 6 5 8 6 9 7 10 8 7 9 5 11
REMARK H PARENT 7 10 5 12
ROOT
ATOM      1  C   UNL     1     -17.115 -40.744  22.329  1.00  0.00     0.194 C 
ENDROOT
BRANCH   1   2
ATOM      2  C   UNL     1     -18.539 -40.517  21.723  1.00  0.00     0.073 C 
ATOM      3  O   UNL     1     -19.489 -40.851  22.511  1.00  0.00    -0.547 OA
ATOM      4  O   UNL     1     -18.618 -40.102  20.533  1.00  0.00    -0.547 OA
ENDBRANCH   1   2
BRANCH   1   5
ATOM      5  C   UNL     1     -17.051 -42.062  23.096  1.00  0.00     0.194 C 
BRANCH   5   6
ATOM      6  C   UNL     1     -15.572 -42.451  23.417  1.00  0.00     0.073 C 
ATOM      7  O   UNL     1     -14.776 -41.449  23.456  1.00  0.00    -0.547 OA
ATOM      8  O   UNL     1     -15.295 -43.677  23.541  1.00  0.00    -0.547 OA
ENDBRANCH   5   6
BRANCH   5   9
ATOM      9  O   UNL     1     -17.668 -43.155  22.348  1.00  0.00    -0.384 OA
ATOM     10  H   UNL     1     -18.209 -42.647  21.697  1.00  0.00     0.211 HD
ENDBRANCH   5   9
ENDBRANCH   1   5
BRANCH   1  11
ATOM     11  O   UNL     1     -16.137 -40.699  21.245  1.00  0.00    -0.384 OA
ATOM     12  H   UNL     1     -15.457 -41.329  21.585  1.00  0.00     0.211 HD
ENDBRANCH   1  11
TORSDOF 5
ENDMDL
MODEL 6
REMARK VINA RESULT:    -4.909      3.653      5.100
REMARK INTER + INTRA:          -6.531
REMARK INTER:                  -5.909
REMARK INTRA:                  -0.622
REMARK UNBOUND:                -0.474
REMARK SMILES O=C([O-])[C@H](O)[C@@H](O)C(=O)[O-]
REMARK SMILES IDX 4 1 2 2 1 3 3 4 6 5 8 6 9 7 10 8 7 9 5 11
REMARK H PARENT 7 10 5 12
ROOT
ATOM      1  C   UNL     1      -8.623 -43.638  29.828  1.00  0.00     0.194 C 
ENDROOT
BRANCH   1   2
ATOM      2  C   UNL     1      -7.550 -43.961  30.918  1.00  0.00     0.073 C 
ATOM      3  O   UNL     1      -7.172 -42.937  31.583  1.00  0.00    -0.547 OA
ATOM      4  O   UNL     1      -7.122 -45.148  30.996  1.00  0.00    -0.547 OA
ENDBRANCH   1   2
BRANCH   1   5
ATOM      5  C   UNL     1     -10.034 -43.857  30.368  1.00  0.00     0.194 C 
BRANCH   5   6
ATOM      6  C   UNL     1     -10.950 -42.631  30.051  1.00  0.00     0.073 C 
ATOM      7  O   UNL     1     -11.527 -42.143  31.083  1.00  0.00    -0.547 OA
ATOM      8  O   UNL     1     -11.083 -42.286  28.843  1.00  0.00    -0.547 OA
ENDBRANCH   5   6
BRANCH   5   9
ATOM      9  O   UNL     1     -10.033 -44.076  31.812  1.00  0.00    -0.384 OA
ATOM     10  H   UNL     1      -9.443 -43.342  32.108  1.00  0.00     0.211 HD
ENDBRANCH   5   9
ENDBRANCH   1   5
BRANCH   1  11
ATOM     11  O   UNL     1      -8.423 -42.265  29.372  1.00  0.00    -0.384 OA
ATOM     12  H   UNL     1      -8.623 -42.361  28.409  1.00  0.00     0.211 HD
ENDBRANCH   1  11
TORSDOF 5
ENDMDL
MODEL 7
REMARK VINA RESULT:    -4.883     11.723     13.436
REMARK INTER + INTRA:          -6.499
REMARK INTER:                  -5.648
REMARK INTRA:                  -0.851
REMARK UNBOUND:                -0.474
REMARK SMILES O=C([O-])[C@H](O)[C@@H](O)C(=O)[O-]
REMARK SMILES IDX 4 1 2 2 1 3 3 4 6 5 8 6 9 7 10 8 7 9 5 11
REMARK H PARENT 7 10 5 12
ROOT
ATOM      1  C   UNL     1      -8.987 -54.670  37.566  1.00  0.00     0.194 C 
ENDROOT
BRANCH   1   2
ATOM      2  C   UNL     1     -10.434 -54.926  37.032  1.00  0.00     0.073 C 
ATOM      3  O   UNL     1     -10.821 -54.066  36.169  1.00  0.00    -0.547 OA
ATOM      4  O   UNL     1     -11.089 -55.885  37.529  1.00  0.00    -0.547 OA
ENDBRANCH   1   2
BRANCH   1   5
ATOM      5  C   UNL     1      -9.020 -54.084  38.974  1.00  0.00     0.194 C 
BRANCH   5   6
ATOM      6  C   UNL     1      -8.545 -55.134  40.029  1.00  0.00     0.073 C 
ATOM      7  O   UNL     1      -9.486 -55.881  40.469  1.00  0.00    -0.547 OA
ATOM      8  O   UNL     1      -7.333 -55.109  40.386  1.00  0.00    -0.547 OA
ENDBRANCH   5   6
BRANCH   5   9
ATOM      9  O   UNL     1     -10.360 -53.630  39.341  1.00  0.00    -0.384 OA
ATOM     10  H   UNL     1     -10.158 -53.103  40.151  1.00  0.00     0.211 HD
ENDBRANCH   5   9
ENDBRANCH   1   5
BRANCH   1  11
ATOM     11  O   UNL     1      -8.245 -55.928  37.519  1.00  0.00    -0.384 OA
ATOM     12  H   UNL     1      -7.601 -55.734  36.796  1.00  0.00     0.211 HD
ENDBRANCH   1  11
TORSDOF 5
ENDMDL
MODEL 8
REMARK VINA RESULT:    -4.866      2.600      4.329
REMARK INTER + INTRA:          -6.478
REMARK INTER:                  -5.765
REMARK INTRA:                  -0.713
REMARK UNBOUND:                -0.474
REMARK SMILES O=C([O-])[C@H](O)[C@@H](O)C(=O)[O-]
REMARK SMILES IDX 4 1 2 2 1 3 3 4 6 5 8 6 9 7 10 8 7 9 5 11
REMARK H PARENT 7 10 5 12
ROOT
ATOM      1  C   UNL     1     -13.051 -44.884  30.118  1.00  0.00     0.194 C 
ENDROOT
BRANCH   1   2
ATOM      2  C   UNL     1     -12.871 -46.159  31.005  1.00  0.00     0.073 C 
ATOM      3  O   UNL     1     -11.666 -46.350  31.387  1.00  0.00    -0.547 OA
ATOM      4  O   UNL     1     -13.881 -46.892  31.202  1.00  0.00    -0.547 OA
ENDBRANCH   1   2
BRANCH   1   5
ATOM      5  C   UNL     1     -12.294 -45.022  28.801  1.00  0.00     0.194 C 
BRANCH   5   6
ATOM      6  C   UNL     1     -13.113 -44.410  27.618  1.00  0.00     0.073 C 
ATOM      7  O   UNL     1     -12.993 -43.140  27.517  1.00  0.00    -0.547 OA
ATOM      8  O   UNL     1     -13.840 -45.185  26.936  1.00  0.00    -0.547 OA
ENDBRANCH   5   6
BRANCH   5   9
ATOM      9  O   UNL     1     -12.000 -46.419  28.489  1.00  0.00    -0.384 OA
ATOM     10  H   UNL     1     -11.757 -46.758  29.384  1.00  0.00     0.211 HD
ENDBRANCH   5   9
ENDBRANCH   1   5
BRANCH   1  11
ATOM     11  O   UNL     1     -14.480 -44.666  29.904  1.00  0.00    -0.384 OA
ATOM     12  H   UNL     1     -14.819 -44.750  30.828  1.00  0.00     0.211 HD
ENDBRANCH   1  11
TORSDOF 5
ENDMDL
MODEL 9
REMARK VINA RESULT:    -4.713      2.447      3.264
REMARK INTER + INTRA:          -6.289
REMARK INTER:                  -5.451
REMARK INTRA:                  -0.838
REMARK UNBOUND:                -0.474
REMARK SMILES O=C([O-])[C@H](O)[C@@H](O)C(=O)[O-]
REMARK SMILES IDX 4 1 2 2 1 3 3 4 6 5 8 6 9 7 10 8 7 9 5 11
REMARK H PARENT 7 10 5 12
ROOT
ATOM      1  C   UNL     1     -12.009 -44.568  29.542  1.00  0.00     0.194 C 
ENDROOT
BRANCH   1   2
ATOM      2  C   UNL     1     -11.986 -44.168  31.054  1.00  0.00     0.073 C 
ATOM      3  O   UNL     1     -11.517 -45.081  31.817  1.00  0.00    -0.547 OA
ATOM      4  O   UNL     1     -12.473 -43.049  31.379  1.00  0.00    -0.547 OA
ENDBRANCH   1   2
BRANCH   1   5
ATOM      5  C   UNL     1     -13.294 -45.313  29.194  1.00  0.00     0.194 C 
BRANCH   5   6
ATOM      6  C   UNL     1     -13.998 -44.667  27.957  1.00  0.00     0.073 C 
ATOM      7  O   UNL     1     -14.907 -43.822  28.268  1.00  0.00    -0.547 OA
ATOM      8  O   UNL     1     -13.663 -45.069  26.807  1.00  0.00    -0.547 OA
ENDBRANCH   5   6
BRANCH   5   9
ATOM      9  O   UNL     1     -14.235 -45.323  30.311  1.00  0.00    -0.384 OA
ATOM     10  H   UNL     1     -13.613 -45.245  31.074  1.00  0.00     0.211 HD
ENDBRANCH   5   9
ENDBRANCH   1   5
BRANCH   1  11
ATOM     11  O   UNL     1     -11.849 -43.358  28.740  1.00  0.00    -0.384 OA
ATOM     12  H   UNL     1     -11.902 -42.664  29.442  1.00  0.00     0.211 HD
ENDBRANCH   1  11
TORSDOF 5
ENDMDL
