MODEL 1
REMARK VINA RESULT:   -12.070      0.000      0.000
REMARK INTER + INTRA:         -16.155
REMARK INTER:                 -15.598
REMARK INTRA:                  -0.556
REMARK UNBOUND:                -0.556
REMARK SMILES O=c1[nH]c2cc(Cl)ccc2c(=O)n1CC[C@H]1CC[N@@H+](Cc2ccccc2)CC1
REMARK SMILES IDX 15 1 16 2 18 3 19 4 17 5 27 6 28 7 20 9 21 10 22 11 26 12
REMARK SMILES IDX 23 13 25 14 24 15 14 16 13 17 11 18 2 19 10 20 3 21 9 22
REMARK SMILES IDX 4 23 8 24 5 25 6 26 12 27 1 28 7 30
REMARK H PARENT 19 8 3 29
ROOT
ATOM      1  C   UNL     1     -13.933 -44.890  27.133  1.00  0.00     0.026 C 
ENDROOT
BRANCH   1   2
ATOM      2  C   UNL     1     -12.570 -45.446  27.604  1.00  0.00     0.002 C 
ATOM      3  C   UNL     1     -11.542 -43.928  29.426  1.00  0.00     0.262 C 
ATOM      4  N   UNL     1     -11.551 -45.112  30.353  1.00  0.00    -0.331 N 
ATOM      5  C   UNL     1     -11.522 -44.389  27.975  1.00  0.00     0.065 C 
ATOM      6  C   UNL     1     -12.730 -46.026  30.115  1.00  0.00     0.262 C 
ATOM      7  C   UNL     1     -12.695 -46.533  28.683  1.00  0.00     0.065 C 
ATOM      8  H   UNL     1     -10.704 -45.665  30.168  1.00  0.00     0.348 HD
BRANCH   4   9
ATOM      9  C   UNL     1     -11.446 -44.675  31.803  1.00  0.00     0.299 C 
BRANCH   9  10
ATOM     10  C   UNL     1     -10.047 -44.295  32.205  1.00  0.00     0.006 A 
ATOM     11  C   UNL     1      -9.822 -43.175  33.022  1.00  0.00     0.009 A 
ATOM     12  C   UNL     1      -8.948 -45.040  31.754  1.00  0.00     0.009 A 
ATOM     13  C   UNL     1      -8.523 -42.807  33.372  1.00  0.00     0.001 A 
ATOM     14  C   UNL     1      -7.650 -44.667  32.107  1.00  0.00     0.001 A 
ATOM     15  C   UNL     1      -7.438 -43.552  32.914  1.00  0.00     0.000 A 
ENDBRANCH   9  10
ENDBRANCH   4   9
ENDBRANCH   1   2
BRANCH   1  16
ATOM     16  C   UNL     1     -13.966 -43.468  26.567  1.00  0.00     0.131 C 
BRANCH  16  17
ATOM     17  N   UNL     1     -15.290 -43.121  26.076  1.00  0.00    -0.260 N 
ATOM     18  C   UNL     1     -16.260 -42.756  27.006  1.00  0.00     0.264 A 
ATOM     19  C   UNL     1     -15.467 -43.076  24.700  1.00  0.00     0.328 A 
ATOM     20  C   UNL     1     -17.585 -42.387  26.471  1.00  0.00     0.064 A 
ATOM     21  N   UNL     1     -16.705 -42.722  24.251  1.00  0.00    -0.307 N 
ATOM     22  C   UNL     1     -18.637 -42.041  27.324  1.00  0.00     0.017 A 
ATOM     23  C   UNL     1     -17.767 -42.383  25.090  1.00  0.00     0.057 A 
ATOM     24  C   UNL     1     -19.877 -41.692  26.782  1.00  0.00     0.021 A 
ATOM     25  C   UNL     1     -19.003 -42.034  24.545  1.00  0.00     0.047 A 
ATOM     26  C   UNL     1     -20.053 -41.692  25.399  1.00  0.00     0.043 A 
ATOM     27  O   UNL     1     -16.057 -42.726  28.217  1.00  0.00    -0.268 OA
ATOM     28  O   UNL     1     -14.564 -43.334  23.901  1.00  0.00    -0.248 OA
ATOM     29  H   UNL     1     -16.824 -42.699  23.244  1.00  0.00     0.171 HD
ATOM     30  Cl  UNL     1     -21.580 -41.262  24.734  1.00  0.00    -0.084 Cl
ENDBRANCH  16  17
ENDBRANCH   1  16
TORSDOF 5
ENDMDL
MODEL 2
REMARK VINA RESULT:   -11.538      0.911      2.001
REMARK INTER + INTRA:         -15.467
REMARK INTER:                 -15.231
REMARK INTRA:                  -0.236
REMARK UNBOUND:                -0.556
REMARK SMILES O=c1[nH]c2cc(Cl)ccc2c(=O)n1CC[C@H]1CC[N@@H+](Cc2ccccc2)CC1
REMARK SMILES IDX 15 1 16 2 18 3 19 4 17 5 27 6 28 7 20 9 21 10 22 11 26 12
REMARK SMILES IDX 23 13 25 14 24 15 14 16 13 17 11 18 2 19 10 20 3 21 9 22
REMARK SMILES IDX 4 23 8 24 5 25 6 26 12 27 1 28 7 30
REMARK H PARENT 19 8 3 29
ROOT
ATOM      1  C   UNL     1     -14.080 -44.507  27.297  1.00  0.00     0.026 C 
ENDROOT
BRANCH   1   2
ATOM      2  C   UNL     1     -12.687 -45.138  27.522  1.00  0.00     0.002 C 
ATOM      3  C   UNL     1     -11.444 -43.954  29.454  1.00  0.00     0.262 C 
ATOM      4  N   UNL     1     -11.381 -45.278  30.164  1.00  0.00    -0.331 N 
ATOM      5  C   UNL     1     -11.584 -44.162  27.952  1.00  0.00     0.065 C 
ATOM      6  C   UNL     1     -12.597 -46.135  29.902  1.00  0.00     0.262 C 
ATOM      7  C   UNL     1     -12.721 -46.392  28.409  1.00  0.00     0.065 C 
ATOM      8  H   UNL     1     -10.570 -45.793  29.800  1.00  0.00     0.348 HD
BRANCH   4   9
ATOM      9  C   UNL     1     -11.118 -45.093  31.648  1.00  0.00     0.299 C 
BRANCH   9  10
ATOM     10  C   UNL     1      -9.687 -44.744  31.954  1.00  0.00     0.006 A 
ATOM     11  C   UNL     1      -9.376 -43.569  32.656  1.00  0.00     0.009 A 
ATOM     12  C   UNL     1      -8.642 -45.577  31.525  1.00  0.00     0.009 A 
ATOM     13  C   UNL     1      -8.048 -43.232  32.916  1.00  0.00     0.001 A 
ATOM     14  C   UNL     1      -7.314 -45.235  31.788  1.00  0.00     0.001 A 
ATOM     15  C   UNL     1      -7.018 -44.064  32.481  1.00  0.00     0.000 A 
ENDBRANCH   9  10
ENDBRANCH   4   9
ENDBRANCH   1   2
BRANCH   1  16
ATOM     16  C   UNL     1     -14.144 -43.157  26.577  1.00  0.00     0.131 C 
BRANCH  16  17
ATOM     17  N   UNL     1     -15.504 -42.830  26.180  1.00  0.00    -0.260 N 
ATOM     18  C   UNL     1     -15.797 -42.787  24.819  1.00  0.00     0.264 A 
ATOM     19  C   UNL     1     -16.444 -42.686  27.190  1.00  0.00     0.328 A 
ATOM     20  C   UNL     1     -17.192 -42.476  24.453  1.00  0.00     0.064 A 
ATOM     21  N   UNL     1     -17.722 -42.408  26.804  1.00  0.00    -0.307 N 
ATOM     22  C   UNL     1     -17.581 -42.372  23.113  1.00  0.00     0.017 A 
ATOM     23  C   UNL     1     -18.123 -42.292  25.473  1.00  0.00     0.057 A 
ATOM     24  C   UNL     1     -18.911 -42.081  22.803  1.00  0.00     0.021 A 
ATOM     25  C   UNL     1     -19.453 -42.003  25.167  1.00  0.00     0.047 A 
ATOM     26  C   UNL     1     -19.838 -41.897  23.829  1.00  0.00     0.043 A 
ATOM     27  O   UNL     1     -14.964 -42.997  23.942  1.00  0.00    -0.268 OA
ATOM     28  O   UNL     1     -16.166 -42.804  28.385  1.00  0.00    -0.248 OA
ATOM     29  H   UNL     1     -18.399 -42.297  27.551  1.00  0.00     0.171 HD
ATOM     30  Cl  UNL     1     -21.476 -41.539  23.444  1.00  0.00    -0.084 Cl
ENDBRANCH  16  17
ENDBRANCH   1  16
TORSDOF 5
ENDMDL
MODEL 3
REMARK VINA RESULT:   -10.887      1.404      2.195
REMARK INTER + INTRA:         -14.626
REMARK INTER:                 -14.230
REMARK INTRA:                  -0.396
REMARK UNBOUND:                -0.556
REMARK SMILES O=c1[nH]c2cc(Cl)ccc2c(=O)n1CC[C@H]1CC[N@@H+](Cc2ccccc2)CC1
REMARK SMILES IDX 15 1 16 2 18 3 19 4 17 5 27 6 28 7 20 9 21 10 22 11 26 12
REMARK SMILES IDX 23 13 25 14 24 15 14 16 13 17 11 18 2 19 10 20 3 21 9 22
REMARK SMILES IDX 4 23 8 24 5 25 6 26 12 27 1 28 7 30
REMARK H PARENT 19 8 3 29
ROOT
ATOM      1  C   UNL     1     -14.008 -44.472  27.062  1.00  0.00     0.026 C 
ENDROOT
BRANCH   1   2
ATOM      2  C   UNL     1     -12.552 -44.943  27.275  1.00  0.00     0.002 C 
ATOM      3  C   UNL     1     -11.545 -43.876  29.403  1.00  0.00     0.262 C 
ATOM      4  N   UNL     1     -11.329 -45.263  29.941  1.00  0.00    -0.331 N 
ATOM      5  C   UNL     1     -11.606 -43.899  27.881  1.00  0.00     0.065 C 
ATOM      6  C   UNL     1     -12.408 -46.227  29.510  1.00  0.00     0.262 C 
ATOM      7  C   UNL     1     -12.447 -46.297  27.992  1.00  0.00     0.065 C 
ATOM      8  H   UNL     1     -10.444 -45.617  29.556  1.00  0.00     0.348 HD
BRANCH   4   9
ATOM      9  C   UNL     1     -11.142 -45.245  31.447  1.00  0.00     0.299 C 
BRANCH   9  10
ATOM     10  C   UNL     1     -12.052 -44.269  32.142  1.00  0.00     0.006 A 
ATOM     11  C   UNL     1     -11.522 -43.148  32.801  1.00  0.00     0.009 A 
ATOM     12  C   UNL     1     -13.440 -44.475  32.160  1.00  0.00     0.009 A 
ATOM     13  C   UNL     1     -12.363 -42.258  33.467  1.00  0.00     0.001 A 
ATOM     14  C   UNL     1     -14.277 -43.581  32.829  1.00  0.00     0.001 A 
ATOM     15  C   UNL     1     -13.740 -42.475  33.483  1.00  0.00     0.000 A 
ENDBRANCH   9  10
ENDBRANCH   4   9
ENDBRANCH   1   2
BRANCH   1  16
ATOM     16  C   UNL     1     -14.231 -43.033  26.591  1.00  0.00     0.131 C 
BRANCH  16  17
ATOM     17  N   UNL     1     -15.592 -42.832  26.118  1.00  0.00    -0.260 N 
ATOM     18  C   UNL     1     -16.572 -42.518  27.056  1.00  0.00     0.264 A 
ATOM     19  C   UNL     1     -15.800 -42.863  24.746  1.00  0.00     0.328 A 
ATOM     20  C   UNL     1     -17.937 -42.297  26.539  1.00  0.00     0.064 A 
ATOM     21  N   UNL     1     -17.075 -42.646  24.314  1.00  0.00    -0.307 N 
ATOM     22  C   UNL     1     -19.000 -42.014  27.402  1.00  0.00     0.017 A 
ATOM     23  C   UNL     1     -18.147 -42.371  25.164  1.00  0.00     0.057 A 
ATOM     24  C   UNL     1     -20.277 -41.806  26.877  1.00  0.00     0.021 A 
ATOM     25  C   UNL     1     -19.421 -42.162  24.635  1.00  0.00     0.047 A 
ATOM     26  C   UNL     1     -20.481 -41.882  25.499  1.00  0.00     0.043 A 
ATOM     27  O   UNL     1     -16.349 -42.417  28.259  1.00  0.00    -0.268 OA
ATOM     28  O   UNL     1     -14.894 -43.072  23.937  1.00  0.00    -0.248 OA
ATOM     29  H   UNL     1     -17.217 -42.678  23.310  1.00  0.00     0.171 HD
ATOM     30  Cl  UNL     1     -22.055 -41.625  24.856  1.00  0.00    -0.084 Cl
ENDBRANCH  16  17
ENDBRANCH   1  16
TORSDOF 5
ENDMDL
MODEL 4
REMARK VINA RESULT:   -10.693      3.773     10.172
REMARK INTER + INTRA:         -14.375
REMARK INTER:                 -14.088
REMARK INTRA:                  -0.287
REMARK UNBOUND:                -0.556
REMARK SMILES O=c1[nH]c2cc(Cl)ccc2c(=O)n1CC[C@H]1CC[N@@H+](Cc2ccccc2)CC1
REMARK SMILES IDX 15 1 16 2 18 3 19 4 17 5 27 6 28 7 20 9 21 10 22 11 26 12
REMARK SMILES IDX 23 13 25 14 24 15 14 16 13 17 11 18 2 19 10 20 3 21 9 22
REMARK SMILES IDX 4 23 8 24 5 25 6 26 12 27 1 28 7 30
REMARK H PARENT 19 8 3 29
ROOT
ATOM      1  C   UNL     1     -13.671 -44.483  26.595  1.00  0.00     0.026 C 
ENDROOT
BRANCH   1   2
ATOM      2  C   UNL     1     -14.052 -43.224  25.785  1.00  0.00     0.002 C 
ATOM      3  C   UNL     1     -15.941 -43.751  24.102  1.00  0.00     0.262 C 
ATOM      4  N   UNL     1     -16.779 -42.705  24.785  1.00  0.00    -0.331 N 
ATOM      5  C   UNL     1     -14.460 -43.477  24.328  1.00  0.00     0.065 C 
ATOM      6  C   UNL     1     -16.518 -42.633  26.270  1.00  0.00     0.262 C 
ATOM      7  C   UNL     1     -15.052 -42.311  26.510  1.00  0.00     0.065 C 
ATOM      8  H   UNL     1     -16.523 -41.791  24.392  1.00  0.00     0.348 HD
BRANCH   4   9
ATOM      9  C   UNL     1     -18.252 -42.890  24.469  1.00  0.00     0.299 C 
BRANCH   9  10
ATOM     10  C   UNL     1     -18.813 -41.791  23.609  1.00  0.00     0.006 A 
ATOM     11  C   UNL     1     -18.056 -41.258  22.552  1.00  0.00     0.009 A 
ATOM     12  C   UNL     1     -20.090 -41.268  23.861  1.00  0.00     0.009 A 
ATOM     13  C   UNL     1     -18.566 -40.221  21.772  1.00  0.00     0.001 A 
ATOM     14  C   UNL     1     -20.596 -40.230  23.077  1.00  0.00     0.001 A 
ATOM     15  C   UNL     1     -19.834 -39.706  22.035  1.00  0.00     0.000 A 
ENDBRANCH   9  10
ENDBRANCH   4   9
ENDBRANCH   1   2
BRANCH   1  16
ATOM     16  C   UNL     1     -13.925 -44.464  28.104  1.00  0.00     0.131 C 
BRANCH  16  17
ATOM     17  N   UNL     1     -12.710 -44.750  28.852  1.00  0.00    -0.260 N 
ATOM     18  C   UNL     1     -11.655 -43.847  28.757  1.00  0.00     0.264 A 
ATOM     19  C   UNL     1     -12.727 -45.851  29.695  1.00  0.00     0.328 A 
ATOM     20  C   UNL     1     -10.447 -44.155  29.548  1.00  0.00     0.064 A 
ATOM     21  N   UNL     1     -11.592 -46.093  30.413  1.00  0.00    -0.307 N 
ATOM     22  C   UNL     1      -9.318 -43.331  29.492  1.00  0.00     0.017 A 
ATOM     23  C   UNL     1     -10.455 -45.285  30.361  1.00  0.00     0.057 A 
ATOM     24  C   UNL     1      -8.195 -43.651  30.258  1.00  0.00     0.021 A 
ATOM     25  C   UNL     1      -9.335 -45.607  31.128  1.00  0.00     0.047 A 
ATOM     26  C   UNL     1      -8.209 -44.785  31.070  1.00  0.00     0.043 A 
ATOM     27  O   UNL     1     -11.693 -42.833  28.065  1.00  0.00    -0.268 OA
ATOM     28  O   UNL     1     -13.707 -46.590  29.812  1.00  0.00    -0.248 OA
ATOM     29  H   UNL     1     -11.613 -46.904  31.020  1.00  0.00     0.171 HD
ATOM     30  Cl  UNL     1      -6.824 -45.176  32.011  1.00  0.00    -0.084 Cl
ENDBRANCH  16  17
ENDBRANCH   1  16
TORSDOF 5
ENDMDL
MODEL 5
REMARK VINA RESULT:   -10.516      3.031      4.904
REMARK INTER + INTRA:         -14.146
REMARK INTER:                 -13.703
REMARK INTRA:                  -0.443
REMARK UNBOUND:                -0.556
REMARK SMILES O=c1[nH]c2cc(Cl)ccc2c(=O)n1CC[C@H]1CC[N@@H+](Cc2ccccc2)CC1
REMARK SMILES IDX 15 1 16 2 18 3 19 4 17 5 27 6 28 7 20 9 21 10 22 11 26 12
REMARK SMILES IDX 23 13 25 14 24 15 14 16 13 17 11 18 2 19 10 20 3 21 9 22
REMARK SMILES IDX 4 23 8 24 5 25 6 26 12 27 1 28 7 30
REMARK H PARENT 19 8 3 29
ROOT
ATOM      1  C   UNL     1     -16.717 -42.522  25.098  1.00  0.00     0.026 C 
ENDROOT
BRANCH   1   2
ATOM      2  C   UNL     1     -15.220 -42.449  25.472  1.00  0.00     0.002 C 
ATOM      3  C   UNL     1     -14.680 -44.063  27.416  1.00  0.00     0.262 C 
ATOM      4  N   UNL     1     -13.696 -44.752  26.511  1.00  0.00    -0.331 N 
ATOM      5  C   UNL     1     -14.904 -42.627  26.962  1.00  0.00     0.065 C 
ATOM      6  C   UNL     1     -14.144 -44.761  25.069  1.00  0.00     0.262 C 
ATOM      7  C   UNL     1     -14.326 -43.331  24.587  1.00  0.00     0.065 C 
ATOM      8  H   UNL     1     -12.814 -44.227  26.545  1.00  0.00     0.348 HD
BRANCH   4   9
ATOM      9  C   UNL     1     -13.365 -46.144  27.018  1.00  0.00     0.299 C 
BRANCH   9  10
ATOM     10  C   UNL     1     -12.471 -46.134  28.227  1.00  0.00     0.006 A 
ATOM     11  C   UNL     1     -11.080 -46.261  28.084  1.00  0.00     0.009 A 
ATOM     12  C   UNL     1     -13.013 -46.017  29.516  1.00  0.00     0.009 A 
ATOM     13  C   UNL     1     -10.253 -46.278  29.207  1.00  0.00     0.001 A 
ATOM     14  C   UNL     1     -12.182 -46.034  30.636  1.00  0.00     0.001 A 
ATOM     15  C   UNL     1     -10.804 -46.166  30.482  1.00  0.00     0.000 A 
ENDBRANCH   9  10
ENDBRANCH   4   9
ENDBRANCH   1   2
BRANCH   1  16
ATOM     16  C   UNL     1     -17.082 -43.087  23.722  1.00  0.00     0.131 C 
BRANCH  16  17
ATOM     17  N   UNL     1     -17.789 -42.106  22.914  1.00  0.00    -0.260 N 
ATOM     18  C   UNL     1     -19.172 -42.016  23.052  1.00  0.00     0.264 A 
ATOM     19  C   UNL     1     -17.021 -41.251  22.136  1.00  0.00     0.328 A 
ATOM     20  C   UNL     1     -19.853 -40.993  22.235  1.00  0.00     0.064 A 
ATOM     21  N   UNL     1     -17.693 -40.317  21.404  1.00  0.00    -0.307 N 
ATOM     22  C   UNL     1     -21.243 -40.847  22.273  1.00  0.00     0.017 A 
ATOM     23  C   UNL     1     -19.080 -40.166  21.425  1.00  0.00     0.057 A 
ATOM     24  C   UNL     1     -21.854 -39.866  21.490  1.00  0.00     0.021 A 
ATOM     25  C   UNL     1     -19.686 -39.183  20.642  1.00  0.00     0.047 A 
ATOM     26  C   UNL     1     -21.074 -39.040  20.680  1.00  0.00     0.043 A 
ATOM     27  O   UNL     1     -19.823 -42.731  23.809  1.00  0.00    -0.268 OA
ATOM     28  O   UNL     1     -15.790 -41.310  22.092  1.00  0.00    -0.248 OA
ATOM     29  H   UNL     1     -17.122 -39.703  20.834  1.00  0.00     0.171 HD
ATOM     30  Cl  UNL     1     -21.829 -37.832  19.716  1.00  0.00    -0.084 Cl
ENDBRANCH  16  17
ENDBRANCH   1  16
TORSDOF 5
ENDMDL
MODEL 6
REMARK VINA RESULT:   -10.291      3.736      9.809
REMARK INTER + INTRA:         -13.856
REMARK INTER:                 -14.130
REMARK INTRA:                   0.275
REMARK UNBOUND:                -0.556
REMARK SMILES O=c1[nH]c2cc(Cl)ccc2c(=O)n1CC[C@H]1CC[N@@H+](Cc2ccccc2)CC1
REMARK SMILES IDX 15 1 16 2 18 3 19 4 17 5 27 6 28 7 20 9 21 10 22 11 26 12
REMARK SMILES IDX 23 13 25 14 24 15 14 16 13 17 11 18 2 19 10 20 3 21 9 22
REMARK SMILES IDX 4 23 8 24 5 25 6 26 12 27 1 28 7 30
REMARK H PARENT 19 8 3 29
ROOT
ATOM      1  C   UNL     1     -13.792 -44.471  26.957  1.00  0.00     0.026 C 
ENDROOT
BRANCH   1   2
ATOM      2  C   UNL     1     -14.112 -43.137  26.245  1.00  0.00     0.002 C 
ATOM      3  C   UNL     1     -15.531 -43.546  24.124  1.00  0.00     0.262 C 
ATOM      4  N   UNL     1     -16.596 -42.670  24.723  1.00  0.00    -0.331 N 
ATOM      5  C   UNL     1     -14.169 -43.206  24.714  1.00  0.00     0.065 C 
ATOM      6  C   UNL     1     -16.671 -42.794  26.226  1.00  0.00     0.262 C 
ATOM      7  C   UNL     1     -15.331 -42.409  26.832  1.00  0.00     0.065 C 
ATOM      8  H   UNL     1     -16.354 -41.693  24.517  1.00  0.00     0.348 HD
BRANCH   4   9
ATOM      9  C   UNL     1     -17.941 -42.909  24.060  1.00  0.00     0.299 C 
BRANCH   9  10
ATOM     10  C   UNL     1     -19.100 -42.753  25.005  1.00  0.00     0.006 A 
ATOM     11  C   UNL     1     -19.893 -43.861  25.347  1.00  0.00     0.009 A 
ATOM     12  C   UNL     1     -19.420 -41.497  25.543  1.00  0.00     0.009 A 
ATOM     13  C   UNL     1     -20.984 -43.712  26.202  1.00  0.00     0.001 A 
ATOM     14  C   UNL     1     -20.513 -41.353  26.399  1.00  0.00     0.001 A 
ATOM     15  C   UNL     1     -21.295 -42.458  26.727  1.00  0.00     0.000 A 
ENDBRANCH   9  10
ENDBRANCH   4   9
ENDBRANCH   1   2
BRANCH   1  16
ATOM     16  C   UNL     1     -14.002 -44.539  28.472  1.00  0.00     0.131 C 
BRANCH  16  17
ATOM     17  N   UNL     1     -12.760 -44.837  29.168  1.00  0.00    -0.260 N 
ATOM     18  C   UNL     1     -11.696 -43.951  29.018  1.00  0.00     0.264 A 
ATOM     19  C   UNL     1     -12.756 -45.930  30.023  1.00  0.00     0.328 A 
ATOM     20  C   UNL     1     -10.460 -44.271  29.758  1.00  0.00     0.064 A 
ATOM     21  N   UNL     1     -11.595 -46.183  30.692  1.00  0.00    -0.307 N 
ATOM     22  C   UNL     1      -9.322 -43.466  29.645  1.00  0.00     0.017 A 
ATOM     23  C   UNL     1     -10.449 -45.394  30.582  1.00  0.00     0.057 A 
ATOM     24  C   UNL     1      -8.171 -43.796  30.363  1.00  0.00     0.021 A 
ATOM     25  C   UNL     1      -9.302 -45.726  31.303  1.00  0.00     0.047 A 
ATOM     26  C   UNL     1      -8.166 -44.923  31.186  1.00  0.00     0.043 A 
ATOM     27  O   UNL     1     -11.749 -42.944  28.318  1.00  0.00    -0.268 OA
ATOM     28  O   UNL     1     -13.741 -46.653  30.190  1.00  0.00    -0.248 OA
ATOM     29  H   UNL     1     -11.601 -46.988  31.307  1.00  0.00     0.171 HD
ATOM     30  Cl  UNL     1      -6.747 -45.327  32.070  1.00  0.00    -0.084 Cl
ENDBRANCH  16  17
ENDBRANCH   1  16
TORSDOF 5
ENDMDL
MODEL 7
REMARK VINA RESULT:   -10.121      2.451      3.764
REMARK INTER + INTRA:         -13.636
REMARK INTER:                 -13.368
REMARK INTRA:                  -0.268
REMARK UNBOUND:                -0.556
REMARK SMILES O=c1[nH]c2cc(Cl)ccc2c(=O)n1CC[C@H]1CC[N@@H+](Cc2ccccc2)CC1
REMARK SMILES IDX 15 1 16 2 18 3 19 4 17 5 27 6 28 7 20 9 21 10 22 11 26 12
REMARK SMILES IDX 23 13 25 14 24 15 14 16 13 17 11 18 2 19 10 20 3 21 9 22
REMARK SMILES IDX 4 23 8 24 5 25 6 26 12 27 1 28 7 30
REMARK H PARENT 19 8 3 29
ROOT
ATOM      1  C   UNL     1     -11.440 -46.544  28.237  1.00  0.00     0.026 C 
ENDROOT
BRANCH   1   2
ATOM      2  C   UNL     1     -10.273 -45.903  29.022  1.00  0.00     0.002 C 
ATOM      3  C   UNL     1     -10.850 -43.478  29.706  1.00  0.00     0.262 C 
ATOM      4  N   UNL     1     -10.662 -43.888  31.141  1.00  0.00    -0.331 N 
ATOM      5  C   UNL     1     -10.065 -44.402  28.784  1.00  0.00     0.065 C 
ATOM      6  C   UNL     1     -11.091 -45.312  31.399  1.00  0.00     0.262 C 
ATOM      7  C   UNL     1     -10.281 -46.250  30.519  1.00  0.00     0.065 C 
ATOM      8  H   UNL     1      -9.659 -43.835  31.356  1.00  0.00     0.348 HD
BRANCH   4   9
ATOM      9  C   UNL     1     -11.335 -42.906  32.084  1.00  0.00     0.299 C 
BRANCH   9  10
ATOM     10  C   UNL     1     -10.474 -42.534  33.261  1.00  0.00     0.006 A 
ATOM     11  C   UNL     1      -9.099 -42.814  33.252  1.00  0.00     0.009 A 
ATOM     12  C   UNL     1     -11.036 -41.921  34.391  1.00  0.00     0.009 A 
ATOM     13  C   UNL     1      -8.305 -42.493  34.353  1.00  0.00     0.001 A 
ATOM     14  C   UNL     1     -10.238 -41.602  35.490  1.00  0.00     0.001 A 
ATOM     15  C   UNL     1      -8.875 -41.889  35.473  1.00  0.00     0.000 A 
ENDBRANCH   9  10
ENDBRANCH   4   9
ENDBRANCH   1   2
BRANCH   1  16
ATOM     16  C   UNL     1     -12.859 -46.341  28.776  1.00  0.00     0.131 C 
BRANCH  16  17
ATOM     17  N   UNL     1     -13.601 -45.382  27.974  1.00  0.00    -0.260 N 
ATOM     18  C   UNL     1     -13.646 -45.575  26.596  1.00  0.00     0.264 A 
ATOM     19  C   UNL     1     -14.304 -44.396  28.652  1.00  0.00     0.328 A 
ATOM     20  C   UNL     1     -14.428 -44.596  25.816  1.00  0.00     0.064 A 
ATOM     21  N   UNL     1     -15.020 -43.519  27.891  1.00  0.00    -0.307 N 
ATOM     22  C   UNL     1     -14.506 -44.680  24.422  1.00  0.00     0.017 A 
ATOM     23  C   UNL     1     -15.098 -43.584  26.499  1.00  0.00     0.057 A 
ATOM     24  C   UNL     1     -15.259 -43.739  23.716  1.00  0.00     0.021 A 
ATOM     25  C   UNL     1     -15.853 -42.643  25.798  1.00  0.00     0.047 A 
ATOM     26  C   UNL     1     -15.927 -42.727  24.406  1.00  0.00     0.043 A 
ATOM     27  O   UNL     1     -13.081 -46.503  26.025  1.00  0.00    -0.268 OA
ATOM     28  O   UNL     1     -14.303 -44.297  29.880  1.00  0.00    -0.248 OA
ATOM     29  H   UNL     1     -15.523 -42.798  28.395  1.00  0.00     0.171 HD
ATOM     30  Cl  UNL     1     -16.854 -41.570  23.535  1.00  0.00    -0.084 Cl
ENDBRANCH  16  17
ENDBRANCH   1  16
TORSDOF 5
ENDMDL
MODEL 8
REMARK VINA RESULT:    -9.982      3.063      5.076
REMARK INTER + INTRA:         -13.456
REMARK INTER:                 -12.979
REMARK INTRA:                  -0.478
REMARK UNBOUND:                -0.556
REMARK SMILES O=c1[nH]c2cc(Cl)ccc2c(=O)n1CC[C@H]1CC[N@@H+](Cc2ccccc2)CC1
REMARK SMILES IDX 15 1 16 2 18 3 19 4 17 5 27 6 28 7 20 9 21 10 22 11 26 12
REMARK SMILES IDX 23 13 25 14 24 15 14 16 13 17 11 18 2 19 10 20 3 21 9 22
REMARK SMILES IDX 4 23 8 24 5 25 6 26 12 27 1 28 7 30
REMARK H PARENT 19 8 3 29
ROOT
ATOM      1  C   UNL     1     -17.343 -42.921  24.780  1.00  0.00     0.026 C 
ENDROOT
BRANCH   1   2
ATOM      2  C   UNL     1     -15.866 -42.566  25.063  1.00  0.00     0.002 C 
ATOM      3  C   UNL     1     -15.036 -43.743  27.209  1.00  0.00     0.262 C 
ATOM      4  N   UNL     1     -13.981 -44.417  26.376  1.00  0.00    -0.331 N 
ATOM      5  C   UNL     1     -15.490 -42.449  26.546  1.00  0.00     0.065 C 
ATOM      6  C   UNL     1     -14.457 -44.728  24.978  1.00  0.00     0.262 C 
ATOM      7  C   UNL     1     -14.869 -43.438  24.286  1.00  0.00     0.065 C 
ATOM      8  H   UNL     1     -13.189 -43.768  26.283  1.00  0.00     0.348 HD
BRANCH   4   9
ATOM      9  C   UNL     1     -13.426 -45.643  27.080  1.00  0.00     0.299 C 
BRANCH   9  10
ATOM     10  C   UNL     1     -12.163 -45.361  27.848  1.00  0.00     0.006 A 
ATOM     11  C   UNL     1     -11.759 -44.039  28.090  1.00  0.00     0.009 A 
ATOM     12  C   UNL     1     -11.362 -46.414  28.315  1.00  0.00     0.009 A 
ATOM     13  C   UNL     1     -10.574 -43.778  28.779  1.00  0.00     0.001 A 
ATOM     14  C   UNL     1     -10.178 -46.147  29.004  1.00  0.00     0.001 A 
ATOM     15  C   UNL     1      -9.784 -44.831  29.234  1.00  0.00     0.000 A 
ENDBRANCH   9  10
ENDBRANCH   4   9
ENDBRANCH   1   2
BRANCH   1  16
ATOM     16  C   UNL     1     -18.420 -41.978  25.323  1.00  0.00     0.131 C 
BRANCH  16  17
ATOM     17  N   UNL     1     -19.427 -42.702  26.083  1.00  0.00    -0.260 N 
ATOM     18  C   UNL     1     -20.444 -43.342  25.379  1.00  0.00     0.264 A 
ATOM     19  C   UNL     1     -19.244 -42.793  27.455  1.00  0.00     0.328 A 
ATOM     20  C   UNL     1     -21.434 -44.088  26.180  1.00  0.00     0.064 A 
ATOM     21  N   UNL     1     -20.180 -43.499  28.154  1.00  0.00    -0.307 N 
ATOM     22  C   UNL     1     -22.515 -44.735  25.572  1.00  0.00     0.017 A 
ATOM     23  C   UNL     1     -21.268 -44.141  27.562  1.00  0.00     0.057 A 
ATOM     24  C   UNL     1     -23.431 -45.435  26.361  1.00  0.00     0.021 A 
ATOM     25  C   UNL     1     -22.179 -44.841  28.353  1.00  0.00     0.047 A 
ATOM     26  C   UNL     1     -23.259 -45.484  27.745  1.00  0.00     0.043 A 
ATOM     27  O   UNL     1     -20.540 -43.315  24.156  1.00  0.00    -0.268 OA
ATOM     28  O   UNL     1     -18.291 -42.275  28.040  1.00  0.00    -0.248 OA
ATOM     29  H   UNL     1     -20.040 -43.553  29.156  1.00  0.00     0.171 HD
ATOM     30  Cl  UNL     1     -24.388 -46.347  28.714  1.00  0.00    -0.084 Cl
ENDBRANCH  16  17
ENDBRANCH   1  16
TORSDOF 5
ENDMDL
MODEL 9
REMARK VINA RESULT:    -9.749      3.339      5.539
REMARK INTER + INTRA:         -13.155
REMARK INTER:                 -12.654
REMARK INTRA:                  -0.501
REMARK UNBOUND:                -0.556
REMARK SMILES O=c1[nH]c2cc(Cl)ccc2c(=O)n1CC[C@H]1CC[N@@H+](Cc2ccccc2)CC1
REMARK SMILES IDX 15 1 16 2 18 3 19 4 17 5 27 6 28 7 20 9 21 10 22 11 26 12
REMARK SMILES IDX 23 13 25 14 24 15 14 16 13 17 11 18 2 19 10 20 3 21 9 22
REMARK SMILES IDX 4 23 8 24 5 25 6 26 12 27 1 28 7 30
REMARK H PARENT 19 8 3 29
ROOT
ATOM      1  C   UNL     1     -16.813 -43.087  23.563  1.00  0.00     0.026 C 
ENDROOT
BRANCH   1   2
ATOM      2  C   UNL     1     -15.317 -42.908  23.908  1.00  0.00     0.002 C 
ATOM      3  C   UNL     1     -14.975 -42.764  26.466  1.00  0.00     0.262 C 
ATOM      4  N   UNL     1     -14.084 -43.971  26.368  1.00  0.00    -0.331 N 
ATOM      5  C   UNL     1     -15.025 -42.030  25.132  1.00  0.00     0.065 C 
ATOM      6  C   UNL     1     -14.531 -44.937  25.297  1.00  0.00     0.262 C 
ATOM      7  C   UNL     1     -14.537 -44.231  23.951  1.00  0.00     0.065 C 
ATOM      8  H   UNL     1     -13.144 -43.649  26.105  1.00  0.00     0.348 HD
BRANCH   4   9
ATOM      9  C   UNL     1     -13.923 -44.646  27.719  1.00  0.00     0.299 C 
BRANCH   9  10
ATOM     10  C   UNL     1     -12.489 -44.944  28.062  1.00  0.00     0.006 A 
ATOM     11  C   UNL     1     -12.026 -46.269  28.091  1.00  0.00     0.009 A 
ATOM     12  C   UNL     1     -11.600 -43.906  28.379  1.00  0.00     0.009 A 
ATOM     13  C   UNL     1     -10.703 -46.547  28.435  1.00  0.00     0.001 A 
ATOM     14  C   UNL     1     -10.278 -44.189  28.723  1.00  0.00     0.001 A 
ATOM     15  C   UNL     1      -9.830 -45.508  28.753  1.00  0.00     0.000 A 
ENDBRANCH   9  10
ENDBRANCH   4   9
ENDBRANCH   1   2
BRANCH   1  16
ATOM     16  C   UNL     1     -17.813 -42.122  24.205  1.00  0.00     0.131 C 
BRANCH  16  17
ATOM     17  N   UNL     1     -18.894 -41.791  23.290  1.00  0.00    -0.260 N 
ATOM     18  C   UNL     1     -18.616 -40.931  22.230  1.00  0.00     0.264 A 
ATOM     19  C   UNL     1     -20.106 -42.440  23.476  1.00  0.00     0.328 A 
ATOM     20  C   UNL     1     -19.730 -40.637  21.307  1.00  0.00     0.064 A 
ATOM     21  N   UNL     1     -21.104 -42.143  22.594  1.00  0.00    -0.307 N 
ATOM     22  C   UNL     1     -19.563 -39.756  20.233  1.00  0.00     0.017 A 
ATOM     23  C   UNL     1     -20.956 -41.260  21.524  1.00  0.00     0.057 A 
ATOM     24  C   UNL     1     -20.638 -39.504  19.377  1.00  0.00     0.021 A 
ATOM     25  C   UNL     1     -22.031 -41.012  20.670  1.00  0.00     0.047 A 
ATOM     26  C   UNL     1     -21.864 -40.131  19.600  1.00  0.00     0.043 A 
ATOM     27  O   UNL     1     -17.511 -40.430  22.038  1.00  0.00    -0.268 OA
ATOM     28  O   UNL     1     -20.298 -43.253  24.382  1.00  0.00    -0.248 OA
ATOM     29  H   UNL     1     -21.987 -42.618  22.744  1.00  0.00     0.171 HD
ATOM     30  Cl  UNL     1     -23.185 -39.819  18.545  1.00  0.00    -0.084 Cl
ENDBRANCH  16  17
ENDBRANCH   1  16
TORSDOF 5
ENDMDL
