MODEL 1
REMARK VINA RESULT:   -12.741      0.000      0.000
REMARK INTER + INTRA:         -17.419
REMARK INTER:                 -16.838
REMARK INTRA:                  -0.581
REMARK UNBOUND:                -0.581
REMARK SMILES O=C1C(=NCCNc2c3c(nc4cc(Cl)ccc24)CCCC3)C=C(O)c2ccccc21
REMARK SMILES IDX 5 1 4 2 3 3 24 4 23 5 26 6 27 7 31 8 2 9 28 10 30 11 29 12
REMARK SMILES IDX 1 13 25 14 6 16 7 17 8 19 9 20 18 21 10 22 22 23 17 24 12 25
REMARK SMILES IDX 11 26 19 27 21 28 16 29 13 30 20 31 14 32 15 33
REMARK H PARENT 25 15 7 18
ROOT
ATOM      1  C   UNL     1     -13.422 -45.668  28.435  1.00  0.00     0.164 C 
ENDROOT
BRANCH   1   2
ATOM      2  N   UNL     1     -13.975 -44.320  28.357  1.00  0.00    -0.279 NA
BRANCH   2   3
ATOM      3  C   UNL     1     -14.582 -43.891  27.306  1.00  0.00     0.109 C 
ATOM      4  C   UNL     1     -14.933 -43.684  24.874  1.00  0.00     0.125 C 
ATOM      5  C   UNL     1     -14.147 -44.048  25.893  1.00  0.00     0.078 C 
ATOM      6  C   UNL     1     -16.271 -43.106  25.075  1.00  0.00     0.028 A 
ATOM      7  C   UNL     1     -17.107 -42.804  23.987  1.00  0.00     0.013 A 
ATOM      8  C   UNL     1     -16.741 -42.827  26.363  1.00  0.00     0.035 A 
ATOM      9  C   UNL     1     -15.890 -43.127  27.530  1.00  0.00     0.211 C 
ATOM     10  C   UNL     1     -18.372 -42.241  24.185  1.00  0.00     0.001 A 
ATOM     11  C   UNL     1     -18.007 -42.258  26.565  1.00  0.00     0.013 A 
ATOM     12  C   UNL     1     -18.821 -41.967  25.473  1.00  0.00     0.001 A 
ATOM     13  O   UNL     1     -16.216 -42.769  28.653  1.00  0.00    -0.287 OA
BRANCH   4  14
ATOM     14  O   UNL     1     -14.539 -43.834  23.559  1.00  0.00    -0.507 OA
ATOM     15  H   UNL     1     -13.581 -43.995  23.521  1.00  0.00     0.293 HD
ENDBRANCH   4  14
ENDBRANCH   2   3
ENDBRANCH   1   2
BRANCH   1  16
ATOM     16  C   UNL     1     -11.962 -45.629  28.910  1.00  0.00     0.136 C 
BRANCH  16  17
ATOM     17  N   UNL     1     -11.880 -46.131  30.293  1.00  0.00    -0.382 N 
ATOM     18  H   UNL     1     -12.807 -46.402  30.618  1.00  0.00     0.160 HD
BRANCH  17  19
ATOM     19  C   UNL     1     -11.332 -45.154  31.172  1.00  0.00     0.049 A 
ATOM     20  C   UNL     1      -9.940 -44.991  31.213  1.00  0.00    -0.003 A 
ATOM     21  C   UNL     1     -12.158 -44.282  31.938  1.00  0.00     0.024 A 
ATOM     22  C   UNL     1      -9.421 -43.977  32.014  1.00  0.00     0.046 A 
ATOM     23  C   UNL     1      -8.966 -45.822  30.422  1.00  0.00     0.039 C 
ATOM     24  C   UNL     1     -13.574 -44.333  31.959  1.00  0.00     0.014 A 
ATOM     25  C   UNL     1     -11.510 -43.299  32.725  1.00  0.00     0.074 A 
ATOM     26  N   UNL     1     -10.180 -43.148  32.759  1.00  0.00    -0.252 NA
ATOM     27  C   UNL     1      -7.929 -43.767  32.030  1.00  0.00     0.056 C 
ATOM     28  C   UNL     1      -7.745 -46.213  31.261  1.00  0.00     0.005 C 
ATOM     29  C   UNL     1     -14.320 -43.450  32.741  1.00  0.00     0.021 A 
ATOM     30  C   UNL     1     -12.270 -42.432  33.496  1.00  0.00     0.049 A 
ATOM     31  C   UNL     1      -7.200 -45.102  32.169  1.00  0.00     0.007 C 
ATOM     32  C   UNL     1     -13.660 -42.503  33.509  1.00  0.00     0.043 A 
ATOM     33  Cl  UNL     1     -14.565 -41.408  34.478  1.00  0.00    -0.084 Cl
ENDBRANCH  17  19
ENDBRANCH  16  17
ENDBRANCH   1  16
TORSDOF 6
ENDMDL
MODEL 2
REMARK VINA RESULT:   -12.093      3.036      7.910
REMARK INTER + INTRA:         -16.562
REMARK INTER:                 -16.889
REMARK INTRA:                   0.327
REMARK UNBOUND:                -0.581
REMARK SMILES O=C1C(=NCCNc2c3c(nc4cc(Cl)ccc24)CCCC3)C=C(O)c2ccccc21
REMARK SMILES IDX 5 1 4 2 3 3 24 4 23 5 26 6 27 7 31 8 2 9 28 10 30 11 29 12
REMARK SMILES IDX 1 13 25 14 6 16 7 17 8 19 9 20 18 21 10 22 22 23 17 24 12 25
REMARK SMILES IDX 11 26 19 27 21 28 16 29 13 30 20 31 14 32 15 33
REMARK H PARENT 25 15 7 18
ROOT
ATOM      1  C   UNL     1     -14.207 -43.477  32.397  1.00  0.00     0.164 C 
ENDROOT
BRANCH   1   2
ATOM      2  N   UNL     1     -13.281 -42.369  32.184  1.00  0.00    -0.279 NA
BRANCH   2   3
ATOM      3  C   UNL     1     -12.026 -42.468  32.454  1.00  0.00     0.109 C 
ATOM      4  C   UNL     1     -10.080 -42.558  33.967  1.00  0.00     0.125 C 
ATOM      5  C   UNL     1     -11.378 -42.291  33.781  1.00  0.00     0.078 C 
ATOM      6  C   UNL     1      -9.209 -43.040  32.884  1.00  0.00     0.028 A 
ATOM      7  C   UNL     1      -7.869 -43.386  33.124  1.00  0.00     0.013 A 
ATOM      8  C   UNL     1      -9.692 -43.150  31.576  1.00  0.00     0.035 A 
ATOM      9  C   UNL     1     -11.093 -42.791  31.284  1.00  0.00     0.211 C 
ATOM     10  C   UNL     1      -7.042 -43.829  32.086  1.00  0.00     0.001 A 
ATOM     11  C   UNL     1      -8.865 -43.589  30.532  1.00  0.00     0.013 A 
ATOM     12  C   UNL     1      -7.539 -43.930  30.791  1.00  0.00     0.001 A 
ATOM     13  O   UNL     1     -11.503 -42.747  30.132  1.00  0.00    -0.287 OA
BRANCH   4  14
ATOM     14  O   UNL     1      -9.474 -42.404  35.197  1.00  0.00    -0.507 OA
ATOM     15  H   UNL     1      -8.855 -41.655  35.167  1.00  0.00     0.293 HD
ENDBRANCH   4  14
ENDBRANCH   2   3
ENDBRANCH   1   2
BRANCH   1  16
ATOM     16  C   UNL     1     -14.030 -44.549  31.312  1.00  0.00     0.136 C 
BRANCH  16  17
ATOM     17  N   UNL     1     -14.965 -44.289  30.205  1.00  0.00    -0.382 N 
ATOM     18  H   UNL     1     -15.801 -44.861  30.316  1.00  0.00     0.160 HD
BRANCH  17  19
ATOM     19  C   UNL     1     -14.366 -44.559  28.941  1.00  0.00     0.049 A 
ATOM     20  C   UNL     1     -13.303 -45.470  28.881  1.00  0.00    -0.003 A 
ATOM     21  C   UNL     1     -14.874 -44.002  27.732  1.00  0.00     0.024 A 
ATOM     22  C   UNL     1     -12.780 -45.788  27.629  1.00  0.00     0.046 A 
ATOM     23  C   UNL     1     -12.704 -46.154  30.081  1.00  0.00     0.039 C 
ATOM     24  C   UNL     1     -15.959 -43.092  27.664  1.00  0.00     0.014 A 
ATOM     25  C   UNL     1     -14.250 -44.392  26.524  1.00  0.00     0.074 A 
ATOM     26  N   UNL     1     -13.234 -45.264  26.473  1.00  0.00    -0.252 NA
ATOM     27  C   UNL     1     -11.666 -46.799  27.553  1.00  0.00     0.056 C 
ATOM     28  C   UNL     1     -11.175 -46.196  30.003  1.00  0.00     0.005 C 
ATOM     29  C   UNL     1     -16.399 -42.579  26.443  1.00  0.00     0.021 A 
ATOM     30  C   UNL     1     -14.702 -43.870  25.321  1.00  0.00     0.049 A 
ATOM     31  C   UNL     1     -10.605 -46.511  28.613  1.00  0.00     0.007 C 
ATOM     32  C   UNL     1     -15.764 -42.972  25.275  1.00  0.00     0.043 A 
ATOM     33  Cl  UNL     1     -16.295 -42.348  23.762  1.00  0.00    -0.084 Cl
ENDBRANCH  17  19
ENDBRANCH  16  17
ENDBRANCH   1  16
TORSDOF 6
ENDMDL
MODEL 3
REMARK VINA RESULT:   -11.531      0.950      2.092
REMARK INTER + INTRA:         -15.820
REMARK INTER:                 -15.682
REMARK INTRA:                  -0.139
REMARK UNBOUND:                -0.581
REMARK SMILES O=C1C(=NCCNc2c3c(nc4cc(Cl)ccc24)CCCC3)C=C(O)c2ccccc21
REMARK SMILES IDX 5 1 4 2 3 3 24 4 23 5 26 6 27 7 31 8 2 9 28 10 30 11 29 12
REMARK SMILES IDX 1 13 25 14 6 16 7 17 8 19 9 20 18 21 10 22 22 23 17 24 12 25
REMARK SMILES IDX 11 26 19 27 21 28 16 29 13 30 20 31 14 32 15 33
REMARK H PARENT 25 15 7 18
ROOT
ATOM      1  C   UNL     1     -12.844 -43.933  27.937  1.00  0.00     0.164 C 
ENDROOT
BRANCH   1   2
ATOM      2  N   UNL     1     -13.416 -43.759  26.606  1.00  0.00    -0.279 NA
BRANCH   2   3
ATOM      3  C   UNL     1     -14.656 -43.464  26.428  1.00  0.00     0.109 C 
ATOM      4  C   UNL     1     -16.884 -42.700  27.162  1.00  0.00     0.125 C 
ATOM      5  C   UNL     1     -15.656 -43.130  27.477  1.00  0.00     0.078 C 
ATOM      6  C   UNL     1     -17.328 -42.529  25.770  1.00  0.00     0.028 A 
ATOM      7  C   UNL     1     -18.595 -42.003  25.467  1.00  0.00     0.013 A 
ATOM      8  C   UNL     1     -16.500 -42.904  24.706  1.00  0.00     0.035 A 
ATOM      9  C   UNL     1     -15.165 -43.464  24.985  1.00  0.00     0.211 C 
ATOM     10  C   UNL     1     -19.017 -41.857  24.142  1.00  0.00     0.001 A 
ATOM     11  C   UNL     1     -16.922 -42.765  23.376  1.00  0.00     0.013 A 
ATOM     12  C   UNL     1     -18.181 -42.239  23.096  1.00  0.00     0.001 A 
ATOM     13  O   UNL     1     -14.478 -43.927  24.084  1.00  0.00    -0.287 OA
BRANCH   4  14
ATOM     14  O   UNL     1     -17.815 -42.380  28.130  1.00  0.00    -0.507 OA
ATOM     15  H   UNL     1     -18.009 -41.428  28.095  1.00  0.00     0.293 HD
ENDBRANCH   4  14
ENDBRANCH   2   3
ENDBRANCH   1   2
BRANCH   1  16
ATOM     16  C   UNL     1     -12.488 -45.406  28.188  1.00  0.00     0.136 C 
BRANCH  16  17
ATOM     17  N   UNL     1     -12.931 -45.797  29.536  1.00  0.00    -0.382 N 
ATOM     18  H   UNL     1     -13.925 -45.602  29.645  1.00  0.00     0.160 HD
BRANCH  17  19
ATOM     19  C   UNL     1     -12.197 -45.113  30.547  1.00  0.00     0.049 A 
ATOM     20  C   UNL     1     -10.804 -45.264  30.586  1.00  0.00    -0.003 A 
ATOM     21  C   UNL     1     -12.825 -44.213  31.456  1.00  0.00     0.024 A 
ATOM     22  C   UNL     1     -10.088 -44.525  31.526  1.00  0.00     0.046 A 
ATOM     23  C   UNL     1     -10.022 -46.152  29.656  1.00  0.00     0.039 C 
ATOM     24  C   UNL     1     -14.218 -43.958  31.496  1.00  0.00     0.014 A 
ATOM     25  C   UNL     1     -11.992 -43.530  32.374  1.00  0.00     0.074 A 
ATOM     26  N   UNL     1     -10.661 -43.678  32.406  1.00  0.00    -0.252 NA
ATOM     27  C   UNL     1      -8.587 -44.650  31.545  1.00  0.00     0.056 C 
ATOM     28  C   UNL     1      -8.928 -46.926  30.400  1.00  0.00     0.005 C 
ATOM     29  C   UNL     1     -14.766 -43.068  32.420  1.00  0.00     0.021 A 
ATOM     30  C   UNL     1     -12.557 -42.650  33.285  1.00  0.00     0.049 A 
ATOM     31  C   UNL     1      -8.168 -46.116  31.460  1.00  0.00     0.007 C 
ATOM     32  C   UNL     1     -13.929 -42.419  33.314  1.00  0.00     0.043 A 
ATOM     33  Cl  UNL     1     -14.589 -41.319  34.460  1.00  0.00    -0.084 Cl
ENDBRANCH  17  19
ENDBRANCH  16  17
ENDBRANCH   1  16
TORSDOF 6
ENDMDL
MODEL 4
REMARK VINA RESULT:   -11.481      1.880      4.202
REMARK INTER + INTRA:         -15.753
REMARK INTER:                 -15.239
REMARK INTRA:                  -0.514
REMARK UNBOUND:                -0.581
REMARK SMILES O=C1C(=NCCNc2c3c(nc4cc(Cl)ccc24)CCCC3)C=C(O)c2ccccc21
REMARK SMILES IDX 5 1 4 2 3 3 24 4 23 5 26 6 27 7 31 8 2 9 28 10 30 11 29 12
REMARK SMILES IDX 1 13 25 14 6 16 7 17 8 19 9 20 18 21 10 22 22 23 17 24 12 25
REMARK SMILES IDX 11 26 19 27 21 28 16 29 13 30 20 31 14 32 15 33
REMARK H PARENT 25 15 7 18
ROOT
ATOM      1  C   UNL     1     -13.934 -44.611  28.729  1.00  0.00     0.164 C 
ENDROOT
BRANCH   1   2
ATOM      2  N   UNL     1     -14.037 -43.689  27.603  1.00  0.00    -0.279 NA
BRANCH   2   3
ATOM      3  C   UNL     1     -15.167 -43.393  27.064  1.00  0.00     0.109 C 
ATOM      4  C   UNL     1     -17.472 -42.515  27.081  1.00  0.00     0.125 C 
ATOM      5  C   UNL     1     -16.397 -42.930  27.761  1.00  0.00     0.078 C 
ATOM      6  C   UNL     1     -17.515 -42.486  25.610  1.00  0.00     0.028 A 
ATOM      7  C   UNL     1     -18.627 -41.973  24.922  1.00  0.00     0.013 A 
ATOM      8  C   UNL     1     -16.449 -42.989  24.856  1.00  0.00     0.035 A 
ATOM      9  C   UNL     1     -15.266 -43.539  25.544  1.00  0.00     0.211 C 
ATOM     10  C   UNL     1     -18.667 -41.963  23.524  1.00  0.00     0.001 A 
ATOM     11  C   UNL     1     -16.488 -42.985  23.454  1.00  0.00     0.013 A 
ATOM     12  C   UNL     1     -17.599 -42.470  22.790  1.00  0.00     0.001 A 
ATOM     13  O   UNL     1     -14.383 -44.108  24.916  1.00  0.00    -0.287 OA
BRANCH   4  14
ATOM     14  O   UNL     1     -18.614 -42.076  27.720  1.00  0.00    -0.507 OA
ATOM     15  H   UNL     1     -18.567 -42.299  28.665  1.00  0.00     0.293 HD
ENDBRANCH   4  14
ENDBRANCH   2   3
ENDBRANCH   1   2
BRANCH   1  16
ATOM     16  C   UNL     1     -12.498 -44.646  29.274  1.00  0.00     0.136 C 
BRANCH  16  17
ATOM     17  N   UNL     1     -12.501 -45.218  30.631  1.00  0.00    -0.382 N 
ATOM     18  H   UNL     1     -13.428 -45.577  30.854  1.00  0.00     0.160 HD
BRANCH  17  19
ATOM     19  C   UNL     1     -12.114 -44.253  31.606  1.00  0.00     0.049 A 
ATOM     20  C   UNL     1     -13.114 -43.589  32.329  1.00  0.00    -0.003 A 
ATOM     21  C   UNL     1     -10.747 -44.013  31.926  1.00  0.00     0.024 A 
ATOM     22  C   UNL     1     -12.723 -42.709  33.335  1.00  0.00     0.046 A 
ATOM     23  C   UNL     1     -14.590 -43.787  32.110  1.00  0.00     0.039 C 
ATOM     24  C   UNL     1      -9.651 -44.640  31.283  1.00  0.00     0.014 A 
ATOM     25  C   UNL     1     -10.476 -43.085  32.960  1.00  0.00     0.074 A 
ATOM     26  N   UNL     1     -11.436 -42.454  33.648  1.00  0.00    -0.252 NA
ATOM     27  C   UNL     1     -13.792 -42.025  34.146  1.00  0.00     0.056 C 
ATOM     28  C   UNL     1     -15.350 -42.457  32.147  1.00  0.00     0.005 C 
ATOM     29  C   UNL     1      -8.335 -44.350  31.645  1.00  0.00     0.021 A 
ATOM     30  C   UNL     1      -9.161 -42.809  33.303  1.00  0.00     0.049 A 
ATOM     31  C   UNL     1     -14.889 -41.477  33.235  1.00  0.00     0.007 C 
ATOM     32  C   UNL     1      -8.098 -43.431  32.655  1.00  0.00     0.043 A 
ATOM     33  Cl  UNL     1      -6.481 -43.062  33.112  1.00  0.00    -0.084 Cl
ENDBRANCH  17  19
ENDBRANCH  16  17
ENDBRANCH   1  16
TORSDOF 6
ENDMDL
MODEL 5
REMARK VINA RESULT:   -11.040      1.856      3.773
REMARK INTER + INTRA:         -15.171
REMARK INTER:                 -14.522
REMARK INTRA:                  -0.649
REMARK UNBOUND:                -0.581
REMARK SMILES O=C1C(=NCCNc2c3c(nc4cc(Cl)ccc24)CCCC3)C=C(O)c2ccccc21
REMARK SMILES IDX 5 1 4 2 3 3 24 4 23 5 26 6 27 7 31 8 2 9 28 10 30 11 29 12
REMARK SMILES IDX 1 13 25 14 6 16 7 17 8 19 9 20 18 21 10 22 22 23 17 24 12 25
REMARK SMILES IDX 11 26 19 27 21 28 16 29 13 30 20 31 14 32 15 33
REMARK H PARENT 25 15 7 18
ROOT
ATOM      1  C   UNL     1     -12.345 -44.704  27.862  1.00  0.00     0.164 C 
ENDROOT
BRANCH   1   2
ATOM      2  N   UNL     1     -13.780 -44.951  27.772  1.00  0.00    -0.279 NA
BRANCH   2   3
ATOM      3  C   UNL     1     -14.537 -44.290  26.967  1.00  0.00     0.109 C 
ATOM      4  C   UNL     1     -15.316 -43.568  24.741  1.00  0.00     0.125 C 
ATOM      5  C   UNL     1     -14.384 -44.165  25.493  1.00  0.00     0.078 C 
ATOM      6  C   UNL     1     -16.546 -42.997  25.311  1.00  0.00     0.028 A 
ATOM      7  C   UNL     1     -17.544 -42.444  24.492  1.00  0.00     0.013 A 
ATOM      8  C   UNL     1     -16.746 -42.975  26.696  1.00  0.00     0.035 A 
ATOM      9  C   UNL     1     -15.719 -43.543  27.590  1.00  0.00     0.211 C 
ATOM     10  C   UNL     1     -18.704 -41.889  25.042  1.00  0.00     0.001 A 
ATOM     11  C   UNL     1     -17.906 -42.415  27.252  1.00  0.00     0.013 A 
ATOM     12  C   UNL     1     -18.884 -41.874  26.421  1.00  0.00     0.001 A 
ATOM     13  O   UNL     1     -15.803 -43.415  28.804  1.00  0.00    -0.287 OA
BRANCH   4  14
ATOM     14  O   UNL     1     -15.185 -43.455  23.371  1.00  0.00    -0.507 OA
ATOM     15  H   UNL     1     -16.057 -43.301  22.970  1.00  0.00     0.293 HD
ENDBRANCH   4  14
ENDBRANCH   2   3
ENDBRANCH   1   2
BRANCH   1  16
ATOM     16  C   UNL     1     -12.018 -43.842  29.090  1.00  0.00     0.136 C 
BRANCH  16  17
ATOM     17  N   UNL     1     -11.995 -44.689  30.294  1.00  0.00    -0.382 N 
ATOM     18  H   UNL     1     -12.892 -45.159  30.404  1.00  0.00     0.160 HD
BRANCH  17  19
ATOM     19  C   UNL     1     -11.708 -43.927  31.464  1.00  0.00     0.049 A 
ATOM     20  C   UNL     1     -12.776 -43.456  32.239  1.00  0.00    -0.003 A 
ATOM     21  C   UNL     1     -10.373 -43.710  31.913  1.00  0.00     0.024 A 
ATOM     22  C   UNL     1     -12.483 -42.783  33.423  1.00  0.00     0.046 A 
ATOM     23  C   UNL     1     -14.227 -43.654  31.891  1.00  0.00     0.039 C 
ATOM     24  C   UNL     1      -9.216 -44.159  31.230  1.00  0.00     0.014 A 
ATOM     25  C   UNL     1     -10.203 -43.000  33.126  1.00  0.00     0.074 A 
ATOM     26  N   UNL     1     -11.229 -42.554  33.862  1.00  0.00    -0.252 NA
ATOM     27  C   UNL     1     -13.626 -42.311  34.283  1.00  0.00     0.056 C 
ATOM     28  C   UNL     1     -15.048 -42.385  32.142  1.00  0.00     0.005 C 
ATOM     29  C   UNL     1      -7.937 -43.904  31.726  1.00  0.00     0.021 A 
ATOM     30  C   UNL     1      -8.923 -42.756  33.600  1.00  0.00     0.049 A 
ATOM     31  C   UNL     1     -14.694 -41.629  33.431  1.00  0.00     0.007 C 
ATOM     32  C   UNL     1      -7.799 -43.199  32.911  1.00  0.00     0.043 A 
ATOM     33  Cl  UNL     1      -6.228 -42.875  33.535  1.00  0.00    -0.084 Cl
ENDBRANCH  17  19
ENDBRANCH  16  17
ENDBRANCH   1  16
TORSDOF 6
ENDMDL
MODEL 6
REMARK VINA RESULT:   -10.710      2.990      7.404
REMARK INTER + INTRA:         -14.734
REMARK INTER:                 -14.274
REMARK INTRA:                  -0.460
REMARK UNBOUND:                -0.581
REMARK SMILES O=C1C(=NCCNc2c3c(nc4cc(Cl)ccc24)CCCC3)C=C(O)c2ccccc21
REMARK SMILES IDX 5 1 4 2 3 3 24 4 23 5 26 6 27 7 31 8 2 9 28 10 30 11 29 12
REMARK SMILES IDX 1 13 25 14 6 16 7 17 8 19 9 20 18 21 10 22 22 23 17 24 12 25
REMARK SMILES IDX 11 26 19 27 21 28 16 29 13 30 20 31 14 32 15 33
REMARK H PARENT 25 15 7 18
ROOT
ATOM      1  C   UNL     1     -13.873 -42.869  32.261  1.00  0.00     0.164 C 
ENDROOT
BRANCH   1   2
ATOM      2  N   UNL     1     -12.695 -42.059  31.966  1.00  0.00    -0.279 NA
BRANCH   2   3
ATOM      3  C   UNL     1     -11.627 -42.566  31.459  1.00  0.00     0.109 C 
ATOM      4  C   UNL     1     -10.051 -43.043  29.622  1.00  0.00     0.125 C 
ATOM      5  C   UNL     1     -11.255 -42.617  30.019  1.00  0.00     0.078 C 
ATOM      6  C   UNL     1      -9.017 -43.488  30.570  1.00  0.00     0.028 A 
ATOM      7  C   UNL     1      -7.735 -43.858  30.132  1.00  0.00     0.013 A 
ATOM      8  C   UNL     1      -9.294 -43.571  31.939  1.00  0.00     0.035 A 
ATOM      9  C   UNL     1     -10.631 -43.195  32.436  1.00  0.00     0.211 C 
ATOM     10  C   UNL     1      -6.762 -44.294  31.037  1.00  0.00     0.001 A 
ATOM     11  C   UNL     1      -8.323 -44.013  32.849  1.00  0.00     0.013 A 
ATOM     12  C   UNL     1      -7.056 -44.373  32.395  1.00  0.00     0.001 A 
ATOM     13  O   UNL     1     -10.943 -43.387  33.604  1.00  0.00    -0.287 OA
BRANCH   4  14
ATOM     14  O   UNL     1      -9.696 -43.086  28.289  1.00  0.00    -0.507 OA
ATOM     15  H   UNL     1     -10.328 -42.565  27.765  1.00  0.00     0.293 HD
ENDBRANCH   4  14
ENDBRANCH   2   3
ENDBRANCH   1   2
BRANCH   1  16
ATOM     16  C   UNL     1     -13.759 -44.252  31.603  1.00  0.00     0.136 C 
BRANCH  16  17
ATOM     17  N   UNL     1     -14.832 -44.413  30.607  1.00  0.00    -0.382 N 
ATOM     18  H   UNL     1     -15.427 -45.199  30.864  1.00  0.00     0.160 HD
BRANCH  17  19
ATOM     19  C   UNL     1     -14.304 -44.622  29.300  1.00  0.00     0.049 A 
ATOM     20  C   UNL     1     -13.234 -45.512  29.140  1.00  0.00    -0.003 A 
ATOM     21  C   UNL     1     -14.890 -44.023  28.148  1.00  0.00     0.024 A 
ATOM     22  C   UNL     1     -12.781 -45.770  27.848  1.00  0.00     0.046 A 
ATOM     23  C   UNL     1     -12.557 -46.235  30.274  1.00  0.00     0.039 C 
ATOM     24  C   UNL     1     -15.988 -43.128  28.180  1.00  0.00     0.014 A 
ATOM     25  C   UNL     1     -14.331 -44.353  26.889  1.00  0.00     0.074 A 
ATOM     26  N   UNL     1     -13.309 -45.205  26.743  1.00  0.00    -0.252 NA
ATOM     27  C   UNL     1     -11.659 -46.759  27.665  1.00  0.00     0.056 C 
ATOM     28  C   UNL     1     -11.034 -46.249  30.106  1.00  0.00     0.005 C 
ATOM     29  C   UNL     1     -16.506 -42.573  27.010  1.00  0.00     0.021 A 
ATOM     30  C   UNL     1     -14.860 -43.789  25.738  1.00  0.00     0.049 A 
ATOM     31  C   UNL     1     -10.542 -46.498  28.673  1.00  0.00     0.007 C 
ATOM     32  C   UNL     1     -15.935 -42.906  25.792  1.00  0.00     0.043 A 
ATOM     33  Cl  UNL     1     -16.562 -42.230  24.339  1.00  0.00    -0.084 Cl
ENDBRANCH  17  19
ENDBRANCH  16  17
ENDBRANCH   1  16
TORSDOF 6
ENDMDL
MODEL 7
REMARK VINA RESULT:   -10.633      6.050     10.430
REMARK INTER + INTRA:         -14.633
REMARK INTER:                 -14.200
REMARK INTRA:                  -0.433
REMARK UNBOUND:                -0.581
REMARK SMILES O=C1C(=NCCNc2c3c(nc4cc(Cl)ccc24)CCCC3)C=C(O)c2ccccc21
REMARK SMILES IDX 5 1 4 2 3 3 24 4 23 5 26 6 27 7 31 8 2 9 28 10 30 11 29 12
REMARK SMILES IDX 1 13 25 14 6 16 7 17 8 19 9 20 18 21 10 22 22 23 17 24 12 25
REMARK SMILES IDX 11 26 19 27 21 28 16 29 13 30 20 31 14 32 15 33
REMARK H PARENT 25 15 7 18
ROOT
ATOM      1  C   UNL     1     -18.625 -40.159  21.810  1.00  0.00     0.164 C 
ENDROOT
BRANCH   1   2
ATOM      2  N   UNL     1     -19.077 -40.245  20.425  1.00  0.00    -0.279 NA
BRANCH   2   3
ATOM      3  C   UNL     1     -20.196 -39.739  20.039  1.00  0.00     0.109 C 
ATOM      4  C   UNL     1     -21.700 -37.882  19.428  1.00  0.00     0.125 C 
ATOM      5  C   UNL     1     -20.555 -38.297  19.983  1.00  0.00     0.078 C 
ATOM      6  C   UNL     1     -22.676 -38.812  18.841  1.00  0.00     0.028 A 
ATOM      7  C   UNL     1     -23.834 -38.345  18.196  1.00  0.00     0.013 A 
ATOM      8  C   UNL     1     -22.483 -40.195  18.925  1.00  0.00     0.035 A 
ATOM      9  C   UNL     1     -21.281 -40.724  19.597  1.00  0.00     0.211 C 
ATOM     10  C   UNL     1     -24.766 -39.236  17.653  1.00  0.00     0.001 A 
ATOM     11  C   UNL     1     -23.418 -41.092  18.386  1.00  0.00     0.013 A 
ATOM     12  C   UNL     1     -24.558 -40.608  17.749  1.00  0.00     0.001 A 
ATOM     13  O   UNL     1     -21.155 -41.923  19.805  1.00  0.00    -0.287 OA
BRANCH   4  14
ATOM     14  O   UNL     1     -22.036 -36.545  19.366  1.00  0.00    -0.507 OA
ATOM     15  H   UNL     1     -23.003 -36.451  19.345  1.00  0.00     0.293 HD
ENDBRANCH   4  14
ENDBRANCH   2   3
ENDBRANCH   1   2
BRANCH   1  16
ATOM     16  C   UNL     1     -17.431 -41.094  22.051  1.00  0.00     0.136 C 
BRANCH  16  17
ATOM     17  N   UNL     1     -17.908 -42.363  22.627  1.00  0.00    -0.382 N 
ATOM     18  H   UNL     1     -18.880 -42.518  22.366  1.00  0.00     0.160 HD
BRANCH  17  19
ATOM     19  C   UNL     1     -17.787 -42.370  24.047  1.00  0.00     0.049 A 
ATOM     20  C   UNL     1     -18.945 -42.216  24.822  1.00  0.00    -0.003 A 
ATOM     21  C   UNL     1     -16.543 -42.618  24.696  1.00  0.00     0.024 A 
ATOM     22  C   UNL     1     -18.826 -42.307  26.207  1.00  0.00     0.046 A 
ATOM     23  C   UNL     1     -20.320 -41.987  24.254  1.00  0.00     0.039 C 
ATOM     24  C   UNL     1     -15.313 -42.815  24.021  1.00  0.00     0.014 A 
ATOM     25  C   UNL     1     -16.548 -42.674  26.110  1.00  0.00     0.074 A 
ATOM     26  N   UNL     1     -17.658 -42.527  26.845  1.00  0.00    -0.252 NA
ATOM     27  C   UNL     1     -20.072 -42.185  27.044  1.00  0.00     0.056 C 
ATOM     28  C   UNL     1     -21.090 -40.926  25.047  1.00  0.00     0.005 C 
ATOM     29  C   UNL     1     -14.130 -43.047  24.723  1.00  0.00     0.021 A 
ATOM     30  C   UNL     1     -15.361 -42.905  26.789  1.00  0.00     0.049 A 
ATOM     31  C   UNL     1     -20.925 -41.010  26.571  1.00  0.00     0.007 C 
ATOM     32  C   UNL     1     -14.161 -43.088  26.108  1.00  0.00     0.043 A 
ATOM     33  Cl  UNL     1     -12.711 -43.372  26.988  1.00  0.00    -0.084 Cl
ENDBRANCH  17  19
ENDBRANCH  16  17
ENDBRANCH   1  16
TORSDOF 6
ENDMDL
MODEL 8
REMARK VINA RESULT:   -10.554      6.159      9.906
REMARK INTER + INTRA:         -14.528
REMARK INTER:                 -14.060
REMARK INTRA:                  -0.468
REMARK UNBOUND:                -0.581
REMARK SMILES O=C1C(=NCCNc2c3c(nc4cc(Cl)ccc24)CCCC3)C=C(O)c2ccccc21
REMARK SMILES IDX 5 1 4 2 3 3 24 4 23 5 26 6 27 7 31 8 2 9 28 10 30 11 29 12
REMARK SMILES IDX 1 13 25 14 6 16 7 17 8 19 9 20 18 21 10 22 22 23 17 24 12 25
REMARK SMILES IDX 11 26 19 27 21 28 16 29 13 30 20 31 14 32 15 33
REMARK H PARENT 25 15 7 18
ROOT
ATOM      1  C   UNL     1     -18.211 -40.052  21.684  1.00  0.00     0.164 C 
ENDROOT
BRANCH   1   2
ATOM      2  N   UNL     1     -18.949 -40.555  20.529  1.00  0.00    -0.279 NA
BRANCH   2   3
ATOM      3  C   UNL     1     -20.053 -40.020  20.139  1.00  0.00     0.109 C 
ATOM      4  C   UNL     1     -21.498 -38.128  19.493  1.00  0.00     0.125 C 
ATOM      5  C   UNL     1     -20.363 -38.569  20.049  1.00  0.00     0.078 C 
ATOM      6  C   UNL     1     -22.511 -39.039  18.937  1.00  0.00     0.028 A 
ATOM      7  C   UNL     1     -23.657 -38.549  18.290  1.00  0.00     0.013 A 
ATOM      8  C   UNL     1     -22.364 -40.425  19.055  1.00  0.00     0.035 A 
ATOM      9  C   UNL     1     -21.176 -40.978  19.732  1.00  0.00     0.211 C 
ATOM     10  C   UNL     1     -24.624 -39.420  17.777  1.00  0.00     0.001 A 
ATOM     11  C   UNL     1     -23.334 -41.302  18.547  1.00  0.00     0.013 A 
ATOM     12  C   UNL     1     -24.463 -40.796  17.906  1.00  0.00     0.001 A 
ATOM     13  O   UNL     1     -21.089 -42.175  19.969  1.00  0.00    -0.287 OA
BRANCH   4  14
ATOM     14  O   UNL     1     -21.789 -36.782  19.399  1.00  0.00    -0.507 OA
ATOM     15  H   UNL     1     -21.752 -36.376  20.282  1.00  0.00     0.293 HD
ENDBRANCH   4  14
ENDBRANCH   2   3
ENDBRANCH   1   2
BRANCH   1  16
ATOM     16  C   UNL     1     -17.076 -41.014  22.064  1.00  0.00     0.136 C 
BRANCH  16  17
ATOM     17  N   UNL     1     -17.647 -42.283  22.545  1.00  0.00    -0.382 N 
ATOM     18  H   UNL     1     -18.588 -42.402  22.174  1.00  0.00     0.160 HD
BRANCH  17  19
ATOM     19  C   UNL     1     -17.684 -42.334  23.968  1.00  0.00     0.049 A 
ATOM     20  C   UNL     1     -16.521 -42.699  24.660  1.00  0.00    -0.003 A 
ATOM     21  C   UNL     1     -18.837 -41.938  24.706  1.00  0.00     0.024 A 
ATOM     22  C   UNL     1     -16.546 -42.665  26.052  1.00  0.00     0.046 A 
ATOM     23  C   UNL     1     -15.231 -43.099  23.995  1.00  0.00     0.039 C 
ATOM     24  C   UNL     1     -20.060 -41.525  24.121  1.00  0.00     0.014 A 
ATOM     25  C   UNL     1     -18.743 -41.958  26.118  1.00  0.00     0.074 A 
ATOM     26  N   UNL     1     -17.628 -42.307  26.773  1.00  0.00    -0.252 NA
ATOM     27  C   UNL     1     -15.287 -43.014  26.801  1.00  0.00     0.056 C 
ATOM     28  C   UNL     1     -14.587 -44.304  24.690  1.00  0.00     0.005 C 
ATOM     29  C   UNL     1     -21.152 -41.157  24.907  1.00  0.00     0.021 A 
ATOM     30  C   UNL     1     -19.841 -41.589  26.881  1.00  0.00     0.049 A 
ATOM     31  C   UNL     1     -14.651 -44.277  26.224  1.00  0.00     0.007 C 
ATOM     32  C   UNL     1     -21.036 -41.194  26.287  1.00  0.00     0.043 A 
ATOM     33  Cl  UNL     1     -22.374 -40.744  27.270  1.00  0.00    -0.084 Cl
ENDBRANCH  17  19
ENDBRANCH  16  17
ENDBRANCH   1  16
TORSDOF 6
ENDMDL
MODEL 9
REMARK VINA RESULT:   -10.492      5.437     11.293
REMARK INTER + INTRA:         -14.447
REMARK INTER:                 -13.820
REMARK INTRA:                  -0.627
REMARK UNBOUND:                -0.581
REMARK SMILES O=C1C(=NCCNc2c3c(nc4cc(Cl)ccc24)CCCC3)C=C(O)c2ccccc21
REMARK SMILES IDX 5 1 4 2 3 3 24 4 23 5 26 6 27 7 31 8 2 9 28 10 30 11 29 12
REMARK SMILES IDX 1 13 25 14 6 16 7 17 8 19 9 20 18 21 10 22 22 23 17 24 12 25
REMARK SMILES IDX 11 26 19 27 21 28 16 29 13 30 20 31 14 32 15 33
REMARK H PARENT 25 15 7 18
ROOT
ATOM      1  C   UNL     1     -16.034 -41.659  22.790  1.00  0.00     0.164 C 
ENDROOT
BRANCH   1   2
ATOM      2  N   UNL     1     -16.413 -42.829  23.576  1.00  0.00    -0.279 NA
BRANCH   2   3
ATOM      3  C   UNL     1     -15.932 -43.048  24.750  1.00  0.00     0.109 C 
ATOM      4  C   UNL     1     -15.912 -42.869  27.210  1.00  0.00     0.125 C 
ATOM      5  C   UNL     1     -16.397 -42.457  26.033  1.00  0.00     0.078 C 
ATOM      6  C   UNL     1     -14.893 -43.924  27.319  1.00  0.00     0.028 A 
ATOM      7  C   UNL     1     -14.457 -44.392  28.569  1.00  0.00     0.013 A 
ATOM      8  C   UNL     1     -14.318 -44.481  26.171  1.00  0.00     0.035 A 
ATOM      9  C   UNL     1     -14.747 -44.013  24.840  1.00  0.00     0.211 C 
ATOM     10  C   UNL     1     -13.477 -45.386  28.666  1.00  0.00     0.001 A 
ATOM     11  C   UNL     1     -13.331 -45.474  26.264  1.00  0.00     0.013 A 
ATOM     12  C   UNL     1     -12.913 -45.925  27.513  1.00  0.00     0.001 A 
ATOM     13  O   UNL     1     -14.167 -44.381  23.828  1.00  0.00    -0.287 OA
BRANCH   4  14
ATOM     14  O   UNL     1     -16.344 -42.330  28.405  1.00  0.00    -0.507 OA
ATOM     15  H   UNL     1     -17.292 -42.124  28.348  1.00  0.00     0.293 HD
ENDBRANCH   4  14
ENDBRANCH   2   3
ENDBRANCH   1   2
BRANCH   1  16
ATOM     16  C   UNL     1     -17.280 -40.904  22.304  1.00  0.00     0.136 C 
BRANCH  16  17
ATOM     17  N   UNL     1     -18.426 -41.827  22.250  1.00  0.00    -0.382 N 
ATOM     18  H   UNL     1     -18.480 -42.257  21.329  1.00  0.00     0.160 HD
BRANCH  17  19
ATOM     19  C   UNL     1     -19.650 -41.158  22.539  1.00  0.00     0.049 A 
ATOM     20  C   UNL     1     -20.219 -41.315  23.810  1.00  0.00    -0.003 A 
ATOM     21  C   UNL     1     -20.259 -40.268  21.609  1.00  0.00     0.024 A 
ATOM     22  C   UNL     1     -21.372 -40.591  24.108  1.00  0.00     0.046 A 
ATOM     23  C   UNL     1     -19.650 -42.195  24.891  1.00  0.00     0.039 C 
ATOM     24  C   UNL     1     -19.763 -40.008  20.306  1.00  0.00     0.014 A 
ATOM     25  C   UNL     1     -21.436 -39.599  22.024  1.00  0.00     0.074 A 
ATOM     26  N   UNL     1     -21.975 -39.753  23.240  1.00  0.00    -0.252 NA
ATOM     27  C   UNL     1     -21.965 -40.722  25.486  1.00  0.00     0.056 C 
ATOM     28  C   UNL     1     -20.748 -42.982  25.615  1.00  0.00     0.005 C 
ATOM     29  C   UNL     1     -20.417 -39.127  19.444  1.00  0.00     0.021 A 
ATOM     30  C   UNL     1     -22.071 -38.729  21.151  1.00  0.00     0.049 A 
ATOM     31  C   UNL     1     -22.028 -42.188  25.908  1.00  0.00     0.007 C 
ATOM     32  C   UNL     1     -21.573 -38.493  19.873  1.00  0.00     0.043 A 
ATOM     33  Cl  UNL     1     -22.391 -37.404  18.822  1.00  0.00    -0.084 Cl
ENDBRANCH  17  19
ENDBRANCH  16  17
ENDBRANCH   1  16
TORSDOF 6
ENDMDL
