MODEL 1
REMARK VINA RESULT:    -9.599      0.000      0.000
REMARK INTER + INTRA:         -14.523
REMARK INTER:                 -13.246
REMARK INTRA:                  -1.277
REMARK UNBOUND:                -1.277
REMARK SMILES COc1ccc([C@H]2C=C(c3cc(F)ccc3F)NN2c2ccc(S(N)(=O)=O)cc2)c(OC)c1
REMARK SMILES IDX 20 1 21 2 22 3 23 4 28 5 29 6 19 7 18 8 9 9 8 10 7 11 10 13
REMARK SMILES IDX 11 14 16 15 12 16 15 17 14 18 17 19 13 20 6 21 5 22 30 23
REMARK SMILES IDX 4 24 33 25 3 26 31 27 32 28 2 29 1 30 24 31 26 32 27 33
REMARK SMILES IDX 25 34
REMARK H PARENT 18 12 25 35 25 36
ROOT
ATOM      1  C   UNL     1     -19.027 -41.640  23.544  1.00  0.00     0.058 A 
ATOM      2  C   UNL     1     -20.410 -41.393  23.433  1.00  0.00     0.029 A 
ATOM      3  C   UNL     1     -20.957 -40.733  22.327  1.00  0.00     0.024 A 
ATOM      4  C   UNL     1     -20.117 -40.304  21.303  1.00  0.00     0.082 A 
ATOM      5  C   UNL     1     -18.741 -40.508  21.389  1.00  0.00     0.024 A 
ATOM      6  C   UNL     1     -18.209 -41.171  22.503  1.00  0.00     0.029 A 
ENDROOT
BRANCH   1   7
ATOM      7  N   UNL     1     -18.515 -42.285  24.680  1.00  0.00    -0.276 N 
ATOM      8  N   UNL     1     -17.166 -42.613  24.817  1.00  0.00    -0.297 N 
ATOM      9  C   UNL     1     -16.825 -42.704  26.165  1.00  0.00     0.063 C 
ATOM     10  C   UNL     1     -17.878 -42.365  26.923  1.00  0.00     0.033 C 
ATOM     11  C   UNL     1     -19.075 -42.052  26.047  1.00  0.00     0.164 C 
ATOM     12  H   UNL     1     -16.898 -43.464  24.319  1.00  0.00     0.188 HD
BRANCH   9  13
ATOM     13  C   UNL     1     -15.488 -43.129  26.594  1.00  0.00     0.038 A 
ATOM     14  C   UNL     1     -15.349 -43.946  27.729  1.00  0.00     0.052 A 
ATOM     15  C   UNL     1     -14.319 -42.741  25.922  1.00  0.00     0.132 A 
ATOM     16  C   UNL     1     -14.086 -44.351  28.156  1.00  0.00     0.124 A 
ATOM     17  C   UNL     1     -13.055 -43.149  26.354  1.00  0.00     0.043 A 
ATOM     18  C   UNL     1     -12.937 -43.960  27.480  1.00  0.00     0.042 A 
ATOM     19  F   UNL     1     -14.378 -41.953  24.838  1.00  0.00    -0.206 F 
ATOM     20  F   UNL     1     -13.977 -45.132  29.239  1.00  0.00    -0.207 F 
ENDBRANCH   9  13
BRANCH  11  21
ATOM     21  C   UNL     1     -20.285 -42.904  26.390  1.00  0.00     0.023 A 
ATOM     22  C   UNL     1     -20.261 -44.265  26.032  1.00  0.00     0.014 A 
ATOM     23  C   UNL     1     -21.444 -42.418  27.015  1.00  0.00     0.128 A 
ATOM     24  C   UNL     1     -21.348 -45.101  26.299  1.00  0.00     0.047 A 
ATOM     25  C   UNL     1     -22.546 -43.254  27.257  1.00  0.00     0.093 A 
ATOM     26  C   UNL     1     -22.497 -44.602  26.909  1.00  0.00     0.122 A 
BRANCH  23  27
ATOM     27  O   UNL     1     -21.549 -41.086  27.327  1.00  0.00    -0.496 OA
ATOM     28  C   UNL     1     -22.607 -40.467  26.594  1.00  0.00     0.278 C 
ENDBRANCH  23  27
BRANCH  26  29
ATOM     29  O   UNL     1     -23.491 -45.521  27.097  1.00  0.00    -0.497 OA
ATOM     30  C   UNL     1     -23.974 -45.683  28.425  1.00  0.00     0.278 C 
ENDBRANCH  26  29
ENDBRANCH  11  21
ENDBRANCH   1   7
BRANCH   4  31
ATOM     31  S   UNL     1     -20.808 -39.466  19.904  1.00  0.00     0.238 S 
ATOM     32  O   UNL     1     -21.543 -40.425  19.115  1.00  0.00    -0.207 OA
ATOM     33  O   UNL     1     -21.386 -38.221  20.353  1.00  0.00    -0.207 OA
BRANCH  31  34
ATOM     34  N   UNL     1     -19.422 -39.038  19.049  1.00  0.00    -0.225 NA
ATOM     35  H   UNL     1     -18.919 -38.324  19.576  1.00  0.00     0.137 HD
ATOM     36  H   UNL     1     -18.827 -39.835  18.823  1.00  0.00     0.137 HD
ENDBRANCH  31  34
ENDBRANCH   4  31
TORSDOF 7
ENDMDL
MODEL 2
REMARK VINA RESULT:    -9.510      1.732      2.453
REMARK INTER + INTRA:         -14.400
REMARK INTER:                 -13.175
REMARK INTRA:                  -1.225
REMARK UNBOUND:                -1.277
REMARK SMILES COc1ccc([C@H]2C=C(c3cc(F)ccc3F)NN2c2ccc(S(N)(=O)=O)cc2)c(OC)c1
REMARK SMILES IDX 20 1 21 2 22 3 23 4 28 5 29 6 19 7 18 8 9 9 8 10 7 11 10 13
REMARK SMILES IDX 11 14 16 15 12 16 15 17 14 18 17 19 13 20 6 21 5 22 30 23
REMARK SMILES IDX 4 24 33 25 3 26 31 27 32 28 2 29 1 30 24 31 26 32 27 33
REMARK SMILES IDX 25 34
REMARK H PARENT 18 12 25 35 25 36
ROOT
ATOM      1  C   UNL     1     -20.708 -40.738  23.516  1.00  0.00     0.058 A 
ATOM      2  C   UNL     1     -19.982 -39.909  22.638  1.00  0.00     0.029 A 
ATOM      3  C   UNL     1     -20.612 -39.143  21.652  1.00  0.00     0.024 A 
ATOM      4  C   UNL     1     -21.998 -39.197  21.527  1.00  0.00     0.082 A 
ATOM      5  C   UNL     1     -22.748 -40.023  22.360  1.00  0.00     0.024 A 
ATOM      6  C   UNL     1     -22.101 -40.784  23.344  1.00  0.00     0.029 A 
ENDROOT
BRANCH   1   7
ATOM      7  N   UNL     1     -20.037 -41.508  24.477  1.00  0.00    -0.276 N 
ATOM      8  N   UNL     1     -18.748 -42.004  24.280  1.00  0.00    -0.297 N 
ATOM      9  C   UNL     1     -18.119 -42.217  25.505  1.00  0.00     0.063 C 
ATOM     10  C   UNL     1     -18.915 -41.802  26.502  1.00  0.00     0.033 C 
ATOM     11  C   UNL     1     -20.231 -41.294  25.944  1.00  0.00     0.164 C 
ATOM     12  H   UNL     1     -18.715 -42.849  23.706  1.00  0.00     0.188 HD
BRANCH   9  13
ATOM     13  C   UNL     1     -16.787 -42.825  25.592  1.00  0.00     0.038 A 
ATOM     14  C   UNL     1     -16.222 -43.430  24.458  1.00  0.00     0.052 A 
ATOM     15  C   UNL     1     -16.041 -42.843  26.781  1.00  0.00     0.132 A 
ATOM     16  C   UNL     1     -14.962 -44.020  24.526  1.00  0.00     0.124 A 
ATOM     17  C   UNL     1     -14.778 -43.437  26.845  1.00  0.00     0.043 A 
ATOM     18  C   UNL     1     -14.234 -44.030  25.709  1.00  0.00     0.042 A 
ATOM     19  F   UNL     1     -16.524 -42.294  27.905  1.00  0.00    -0.206 F 
ATOM     20  F   UNL     1     -14.442 -44.589  23.430  1.00  0.00    -0.207 F 
ENDBRANCH   9  13
BRANCH  11  21
ATOM     21  C   UNL     1     -21.429 -42.015  26.538  1.00  0.00     0.023 A 
ATOM     22  C   UNL     1     -21.361 -43.415  26.673  1.00  0.00     0.014 A 
ATOM     23  C   UNL     1     -22.618 -41.382  26.933  1.00  0.00     0.128 A 
ATOM     24  C   UNL     1     -22.435 -44.143  27.191  1.00  0.00     0.047 A 
ATOM     25  C   UNL     1     -23.705 -42.119  27.428  1.00  0.00     0.093 A 
ATOM     26  C   UNL     1     -23.614 -43.502  27.568  1.00  0.00     0.122 A 
BRANCH  23  27
ATOM     27  O   UNL     1     -22.764 -40.029  26.762  1.00  0.00    -0.496 OA
ATOM     28  C   UNL     1     -23.617 -39.472  27.764  1.00  0.00     0.278 C 
ENDBRANCH  23  27
BRANCH  26  29
ATOM     29  O   UNL     1     -24.590 -44.332  28.044  1.00  0.00    -0.497 OA
ATOM     30  C   UNL     1     -24.190 -45.321  28.985  1.00  0.00     0.278 C 
ENDBRANCH  26  29
ENDBRANCH  11  21
ENDBRANCH   1   7
BRANCH   4  31
ATOM     31  S   UNL     1     -22.796 -38.229  20.276  1.00  0.00     0.238 S 
ATOM     32  O   UNL     1     -23.245 -39.116  19.230  1.00  0.00    -0.207 OA
ATOM     33  O   UNL     1     -23.672 -37.278  20.919  1.00  0.00    -0.207 OA
BRANCH  31  34
ATOM     34  N   UNL     1     -21.508 -37.325  19.677  1.00  0.00    -0.225 NA
ATOM     35  H   UNL     1     -21.291 -37.648  18.734  1.00  0.00     0.137 HD
ATOM     36  H   UNL     1     -21.674 -36.319  19.707  1.00  0.00     0.137 HD
ENDBRANCH  31  34
ENDBRANCH   4  31
TORSDOF 7
ENDMDL
MODEL 3
REMARK VINA RESULT:    -9.277      4.002      7.344
REMARK INTER + INTRA:         -14.079
REMARK INTER:                 -12.539
REMARK INTRA:                  -1.540
REMARK UNBOUND:                -1.277
REMARK SMILES COc1ccc([C@H]2C=C(c3cc(F)ccc3F)NN2c2ccc(S(N)(=O)=O)cc2)c(OC)c1
REMARK SMILES IDX 20 1 21 2 22 3 23 4 28 5 29 6 19 7 18 8 9 9 8 10 7 11 10 13
REMARK SMILES IDX 11 14 16 15 12 16 15 17 14 18 17 19 13 20 6 21 5 22 30 23
REMARK SMILES IDX 4 24 33 25 3 26 31 27 32 28 2 29 1 30 24 31 26 32 27 33
REMARK SMILES IDX 25 34
REMARK H PARENT 18 12 25 35 25 36
ROOT
ATOM      1  C   UNL     1     -18.132 -42.385  25.069  1.00  0.00     0.058 A 
ATOM      2  C   UNL     1     -17.068 -42.814  24.251  1.00  0.00     0.029 A 
ATOM      3  C   UNL     1     -15.847 -43.238  24.786  1.00  0.00     0.024 A 
ATOM      4  C   UNL     1     -15.671 -43.239  26.168  1.00  0.00     0.082 A 
ATOM      5  C   UNL     1     -16.691 -42.799  27.008  1.00  0.00     0.024 A 
ATOM      6  C   UNL     1     -17.908 -42.378  26.455  1.00  0.00     0.029 A 
ENDROOT
BRANCH   1   7
ATOM      7  N   UNL     1     -19.333 -41.946  24.492  1.00  0.00    -0.276 N 
ATOM      8  N   UNL     1     -19.389 -40.898  23.573  1.00  0.00    -0.297 N 
ATOM      9  C   UNL     1     -20.514 -41.025  22.762  1.00  0.00     0.063 C 
ATOM     10  C   UNL     1     -21.159 -42.164  23.056  1.00  0.00     0.033 C 
ATOM     11  C   UNL     1     -20.462 -42.882  24.195  1.00  0.00     0.164 C 
ATOM     12  H   UNL     1     -19.358 -39.972  24.004  1.00  0.00     0.188 HD
BRANCH   9  13
ATOM     13  C   UNL     1     -20.869 -40.004  21.770  1.00  0.00     0.038 A 
ATOM     14  C   UNL     1     -22.097 -39.331  21.872  1.00  0.00     0.052 A 
ATOM     15  C   UNL     1     -20.030 -39.671  20.695  1.00  0.00     0.132 A 
ATOM     16  C   UNL     1     -22.453 -38.366  20.932  1.00  0.00     0.124 A 
ATOM     17  C   UNL     1     -20.391 -38.703  19.755  1.00  0.00     0.043 A 
ATOM     18  C   UNL     1     -21.613 -38.046  19.874  1.00  0.00     0.042 A 
ATOM     19  F   UNL     1     -18.847 -40.283  20.530  1.00  0.00    -0.206 F 
ATOM     20  F   UNL     1     -23.629 -37.734  21.052  1.00  0.00    -0.207 F 
ENDBRANCH   9  13
BRANCH  11  21
ATOM     21  C   UNL     1     -21.390 -43.148  25.368  1.00  0.00     0.023 A 
ATOM     22  C   UNL     1     -22.043 -42.050  25.960  1.00  0.00     0.014 A 
ATOM     23  C   UNL     1     -21.618 -44.416  25.926  1.00  0.00     0.128 A 
ATOM     24  C   UNL     1     -22.894 -42.221  27.055  1.00  0.00     0.047 A 
ATOM     25  C   UNL     1     -22.451 -44.581  27.043  1.00  0.00     0.093 A 
ATOM     26  C   UNL     1     -23.100 -43.484  27.606  1.00  0.00     0.122 A 
BRANCH  23  27
ATOM     27  O   UNL     1     -20.957 -45.511  25.431  1.00  0.00    -0.496 OA
ATOM     28  C   UNL     1     -21.848 -46.376  24.725  1.00  0.00     0.278 C 
ENDBRANCH  23  27
BRANCH  26  29
ATOM     29  O   UNL     1     -23.942 -43.508  28.683  1.00  0.00    -0.497 OA
ATOM     30  C   UNL     1     -24.327 -44.788  29.169  1.00  0.00     0.278 C 
ENDBRANCH  26  29
ENDBRANCH  11  21
ENDBRANCH   1   7
BRANCH   4  31
ATOM     31  S   UNL     1     -14.125 -43.773  26.846  1.00  0.00     0.238 S 
ATOM     32  O   UNL     1     -13.761 -45.023  26.224  1.00  0.00    -0.207 OA
ATOM     33  O   UNL     1     -13.230 -42.641  26.901  1.00  0.00    -0.207 OA
BRANCH  31  34
ATOM     34  N   UNL     1     -14.550 -44.090  28.445  1.00  0.00    -0.225 NA
ATOM     35  H   UNL     1     -13.765 -44.549  28.908  1.00  0.00     0.137 HD
ATOM     36  H   UNL     1     -14.858 -43.260  28.951  1.00  0.00     0.137 HD
ENDBRANCH  31  34
ENDBRANCH   4  31
TORSDOF 7
ENDMDL
MODEL 4
REMARK VINA RESULT:    -9.122      3.913      7.105
REMARK INTER + INTRA:         -13.864
REMARK INTER:                 -12.492
REMARK INTRA:                  -1.373
REMARK UNBOUND:                -1.277
REMARK SMILES COc1ccc([C@H]2C=C(c3cc(F)ccc3F)NN2c2ccc(S(N)(=O)=O)cc2)c(OC)c1
REMARK SMILES IDX 20 1 21 2 22 3 23 4 28 5 29 6 19 7 18 8 9 9 8 10 7 11 10 13
REMARK SMILES IDX 11 14 16 15 12 16 15 17 14 18 17 19 13 20 6 21 5 22 30 23
REMARK SMILES IDX 4 24 33 25 3 26 31 27 32 28 2 29 1 30 24 31 26 32 27 33
REMARK SMILES IDX 25 34
REMARK H PARENT 18 12 25 35 25 36
ROOT
ATOM      1  C   UNL     1     -17.711 -42.538  25.152  1.00  0.00     0.058 A 
ATOM      2  C   UNL     1     -17.505 -42.443  26.543  1.00  0.00     0.029 A 
ATOM      3  C   UNL     1     -16.309 -42.849  27.143  1.00  0.00     0.024 A 
ATOM      4  C   UNL     1     -15.287 -43.364  26.350  1.00  0.00     0.082 A 
ATOM      5  C   UNL     1     -15.462 -43.497  24.975  1.00  0.00     0.024 A 
ATOM      6  C   UNL     1     -16.667 -43.085  24.389  1.00  0.00     0.029 A 
ENDROOT
BRANCH   1   7
ATOM      7  N   UNL     1     -18.934 -42.140  24.591  1.00  0.00    -0.276 N 
ATOM      8  N   UNL     1     -19.040 -41.086  23.684  1.00  0.00    -0.297 N 
ATOM      9  C   UNL     1     -20.168 -41.250  22.883  1.00  0.00     0.063 C 
ATOM     10  C   UNL     1     -20.764 -42.416  23.171  1.00  0.00     0.033 C 
ATOM     11  C   UNL     1     -20.028 -43.116  24.296  1.00  0.00     0.164 C 
ATOM     12  H   UNL     1     -19.041 -40.164  24.124  1.00  0.00     0.188 HD
BRANCH   9  13
ATOM     13  C   UNL     1     -20.572 -40.234  21.905  1.00  0.00     0.038 A 
ATOM     14  C   UNL     1     -21.810 -39.585  22.046  1.00  0.00     0.052 A 
ATOM     15  C   UNL     1     -19.773 -39.882  20.806  1.00  0.00     0.132 A 
ATOM     16  C   UNL     1     -22.213 -38.625  21.120  1.00  0.00     0.124 A 
ATOM     17  C   UNL     1     -20.181 -38.920  19.880  1.00  0.00     0.043 A 
ATOM     18  C   UNL     1     -21.412 -38.286  20.038  1.00  0.00     0.042 A 
ATOM     19  F   UNL     1     -18.584 -40.471  20.603  1.00  0.00    -0.206 F 
ATOM     20  F   UNL     1     -23.397 -38.017  21.277  1.00  0.00    -0.207 F 
ENDBRANCH   9  13
BRANCH  11  21
ATOM     21  C   UNL     1     -20.932 -43.431  25.476  1.00  0.00     0.023 A 
ATOM     22  C   UNL     1     -21.109 -44.781  25.834  1.00  0.00     0.014 A 
ATOM     23  C   UNL     1     -21.632 -42.466  26.217  1.00  0.00     0.128 A 
ATOM     24  C   UNL     1     -21.944 -45.143  26.894  1.00  0.00     0.047 A 
ATOM     25  C   UNL     1     -22.491 -42.834  27.264  1.00  0.00     0.093 A 
ATOM     26  C   UNL     1     -22.642 -44.174  27.614  1.00  0.00     0.122 A 
BRANCH  23  27
ATOM     27  O   UNL     1     -21.548 -41.141  25.870  1.00  0.00    -0.496 OA
ATOM     28  C   UNL     1     -22.839 -40.528  25.862  1.00  0.00     0.278 C 
ENDBRANCH  23  27
BRANCH  26  29
ATOM     29  O   UNL     1     -23.434 -44.664  28.614  1.00  0.00    -0.497 OA
ATOM     30  C   UNL     1     -24.131 -45.875  28.347  1.00  0.00     0.278 C 
ENDBRANCH  26  29
ENDBRANCH  11  21
ENDBRANCH   1   7
BRANCH   4  31
ATOM     31  S   UNL     1     -13.773 -43.882  27.111  1.00  0.00     0.238 S 
ATOM     32  O   UNL     1     -13.398 -45.160  26.557  1.00  0.00    -0.207 OA
ATOM     33  O   UNL     1     -12.870 -42.756  27.152  1.00  0.00    -0.207 OA
BRANCH  31  34
ATOM     34  N   UNL     1     -14.263 -44.126  28.704  1.00  0.00    -0.225 NA
ATOM     35  H   UNL     1     -13.878 -45.012  29.033  1.00  0.00     0.137 HD
ATOM     36  H   UNL     1     -14.021 -43.352  29.322  1.00  0.00     0.137 HD
ENDBRANCH  31  34
ENDBRANCH   4  31
TORSDOF 7
ENDMDL
MODEL 5
REMARK VINA RESULT:    -9.027      2.831      6.239
REMARK INTER + INTRA:         -13.733
REMARK INTER:                 -12.304
REMARK INTRA:                  -1.429
REMARK UNBOUND:                -1.277
REMARK SMILES COc1ccc([C@H]2C=C(c3cc(F)ccc3F)NN2c2ccc(S(N)(=O)=O)cc2)c(OC)c1
REMARK SMILES IDX 20 1 21 2 22 3 23 4 28 5 29 6 19 7 18 8 9 9 8 10 7 11 10 13
REMARK SMILES IDX 11 14 16 15 12 16 15 17 14 18 17 19 13 20 6 21 5 22 30 23
REMARK SMILES IDX 4 24 33 25 3 26 31 27 32 28 2 29 1 30 24 31 26 32 27 33
REMARK SMILES IDX 25 34
REMARK H PARENT 18 12 25 35 25 36
ROOT
ATOM      1  C   UNL     1     -21.111 -41.694  25.777  1.00  0.00     0.058 A 
ATOM      2  C   UNL     1     -21.554 -42.812  26.512  1.00  0.00     0.029 A 
ATOM      3  C   UNL     1     -22.735 -42.785  27.262  1.00  0.00     0.024 A 
ATOM      4  C   UNL     1     -23.500 -41.622  27.289  1.00  0.00     0.082 A 
ATOM      5  C   UNL     1     -23.082 -40.488  26.595  1.00  0.00     0.024 A 
ATOM      6  C   UNL     1     -21.897 -40.532  25.849  1.00  0.00     0.029 A 
ENDROOT
BRANCH   1   7
ATOM      7  N   UNL     1     -19.910 -41.755  25.056  1.00  0.00    -0.276 N 
ATOM      8  N   UNL     1     -18.670 -41.937  25.669  1.00  0.00    -0.297 N 
ATOM      9  C   UNL     1     -17.768 -42.510  24.776  1.00  0.00     0.063 C 
ATOM     10  C   UNL     1     -18.389 -42.789  23.620  1.00  0.00     0.033 C 
ATOM     11  C   UNL     1     -19.836 -42.340  23.682  1.00  0.00     0.164 C 
ATOM     12  H   UNL     1     -18.283 -41.083  26.075  1.00  0.00     0.188 HD
BRANCH   9  13
ATOM     13  C   UNL     1     -16.361 -42.723  25.132  1.00  0.00     0.038 A 
ATOM     14  C   UNL     1     -16.036 -43.320  26.361  1.00  0.00     0.052 A 
ATOM     15  C   UNL     1     -15.302 -42.340  24.293  1.00  0.00     0.132 A 
ATOM     16  C   UNL     1     -14.705 -43.521  26.719  1.00  0.00     0.124 A 
ATOM     17  C   UNL     1     -13.969 -42.543  24.655  1.00  0.00     0.043 A 
ATOM     18  C   UNL     1     -13.668 -43.138  25.878  1.00  0.00     0.042 A 
ATOM     19  F   UNL     1     -15.540 -41.755  23.110  1.00  0.00    -0.206 F 
ATOM     20  F   UNL     1     -14.419 -44.094  27.895  1.00  0.00    -0.207 F 
ENDBRANCH   9  13
BRANCH  11  21
ATOM     21  C   UNL     1     -20.193 -41.378  22.562  1.00  0.00     0.023 A 
ATOM     22  C   UNL     1     -19.969 -40.003  22.773  1.00  0.00     0.014 A 
ATOM     23  C   UNL     1     -20.763 -41.763  21.338  1.00  0.00     0.128 A 
ATOM     24  C   UNL     1     -20.295 -39.061  21.793  1.00  0.00     0.047 A 
ATOM     25  C   UNL     1     -21.114 -40.811  20.368  1.00  0.00     0.093 A 
ATOM     26  C   UNL     1     -20.871 -39.457  20.588  1.00  0.00     0.122 A 
BRANCH  23  27
ATOM     27  O   UNL     1     -21.063 -43.080  21.106  1.00  0.00    -0.496 OA
ATOM     28  C   UNL     1     -21.062 -43.370  19.707  1.00  0.00     0.278 C 
ENDBRANCH  23  27
BRANCH  26  29
ATOM     29  O   UNL     1     -21.154 -38.435  19.726  1.00  0.00    -0.497 OA
ATOM     30  C   UNL     1     -22.065 -38.717  18.671  1.00  0.00     0.278 C 
ENDBRANCH  26  29
ENDBRANCH  11  21
ENDBRANCH   1   7
BRANCH   4  31
ATOM     31  S   UNL     1     -24.993 -41.586  28.240  1.00  0.00     0.238 S 
ATOM     32  O   UNL     1     -25.262 -40.219  28.616  1.00  0.00    -0.207 OA
ATOM     33  O   UNL     1     -25.975 -42.421  27.589  1.00  0.00    -0.207 OA
BRANCH  31  34
ATOM     34  N   UNL     1     -24.531 -42.427  29.624  1.00  0.00    -0.225 NA
ATOM     35  H   UNL     1     -24.597 -41.800  30.427  1.00  0.00     0.137 HD
ATOM     36  H   UNL     1     -25.060 -43.287  29.768  1.00  0.00     0.137 HD
ENDBRANCH  31  34
ENDBRANCH   4  31
TORSDOF 7
ENDMDL
MODEL 6
REMARK VINA RESULT:    -8.941      4.501      7.868
REMARK INTER + INTRA:         -13.615
REMARK INTER:                 -12.149
REMARK INTRA:                  -1.466
REMARK UNBOUND:                -1.277
REMARK SMILES COc1ccc([C@H]2C=C(c3cc(F)ccc3F)NN2c2ccc(S(N)(=O)=O)cc2)c(OC)c1
REMARK SMILES IDX 20 1 21 2 22 3 23 4 28 5 29 6 19 7 18 8 9 9 8 10 7 11 10 13
REMARK SMILES IDX 11 14 16 15 12 16 15 17 14 18 17 19 13 20 6 21 5 22 30 23
REMARK SMILES IDX 4 24 33 25 3 26 31 27 32 28 2 29 1 30 24 31 26 32 27 33
REMARK SMILES IDX 25 34
REMARK H PARENT 18 12 25 35 25 36
ROOT
ATOM      1  C   UNL     1     -19.216 -42.086  26.185  1.00  0.00     0.058 A 
ATOM      2  C   UNL     1     -18.453 -42.402  25.043  1.00  0.00     0.029 A 
ATOM      3  C   UNL     1     -17.108 -42.778  25.132  1.00  0.00     0.024 A 
ATOM      4  C   UNL     1     -16.498 -42.842  26.382  1.00  0.00     0.082 A 
ATOM      5  C   UNL     1     -17.213 -42.513  27.532  1.00  0.00     0.024 A 
ATOM      6  C   UNL     1     -18.559 -42.139  27.425  1.00  0.00     0.029 A 
ENDROOT
BRANCH   1   7
ATOM      7  N   UNL     1     -20.556 -41.693  26.052  1.00  0.00    -0.276 N 
ATOM      8  N   UNL     1     -21.356 -41.359  27.144  1.00  0.00    -0.297 N 
ATOM      9  C   UNL     1     -22.381 -40.503  26.749  1.00  0.00     0.063 C 
ATOM     10  C   UNL     1     -22.238 -40.192  25.452  1.00  0.00     0.033 C 
ATOM     11  C   UNL     1     -21.043 -40.919  24.868  1.00  0.00     0.164 C 
ATOM     12  H   UNL     1     -21.734 -42.169  27.639  1.00  0.00     0.188 HD
BRANCH   9  13
ATOM     13  C   UNL     1     -23.427 -40.070  27.682  1.00  0.00     0.038 A 
ATOM     14  C   UNL     1     -23.571 -38.706  27.983  1.00  0.00     0.052 A 
ATOM     15  C   UNL     1     -24.299 -40.973  28.311  1.00  0.00     0.132 A 
ATOM     16  C   UNL     1     -24.553 -38.279  28.875  1.00  0.00     0.124 A 
ATOM     17  C   UNL     1     -25.282 -40.541  29.205  1.00  0.00     0.043 A 
ATOM     18  C   UNL     1     -25.409 -39.183  29.490  1.00  0.00     0.042 A 
ATOM     19  F   UNL     1     -24.211 -42.290  28.078  1.00  0.00    -0.206 F 
ATOM     20  F   UNL     1     -24.673 -36.972  29.145  1.00  0.00    -0.207 F 
ENDBRANCH   9  13
BRANCH  11  21
ATOM     21  C   UNL     1     -21.411 -41.768  23.663  1.00  0.00     0.023 A 
ATOM     22  C   UNL     1     -22.066 -42.993  23.891  1.00  0.00     0.014 A 
ATOM     23  C   UNL     1     -21.114 -41.427  22.334  1.00  0.00     0.128 A 
ATOM     24  C   UNL     1     -22.414 -43.833  22.830  1.00  0.00     0.047 A 
ATOM     25  C   UNL     1     -21.441 -42.286  21.272  1.00  0.00     0.093 A 
ATOM     26  C   UNL     1     -22.102 -43.488  21.516  1.00  0.00     0.122 A 
BRANCH  23  27
ATOM     27  O   UNL     1     -20.420 -40.277  22.059  1.00  0.00    -0.496 OA
ATOM     28  C   UNL     1     -19.067 -40.565  21.699  1.00  0.00     0.278 C 
ENDBRANCH  23  27
BRANCH  26  29
ATOM     29  O   UNL     1     -22.484 -44.404  20.577  1.00  0.00    -0.497 OA
ATOM     30  C   UNL     1     -22.975 -45.650  21.057  1.00  0.00     0.278 C 
ENDBRANCH  26  29
ENDBRANCH  11  21
ENDBRANCH   1   7
BRANCH   4  31
ATOM     31  S   UNL     1     -14.795 -43.314  26.495  1.00  0.00     0.238 S 
ATOM     32  O   UNL     1     -14.541 -44.343  25.516  1.00  0.00    -0.207 OA
ATOM     33  O   UNL     1     -13.991 -42.118  26.593  1.00  0.00    -0.207 OA
BRANCH  31  34
ATOM     34  N   UNL     1     -14.742 -44.021  28.023  1.00  0.00    -0.225 NA
ATOM     35  H   UNL     1     -15.375 -43.512  28.641  1.00  0.00     0.137 HD
ATOM     36  H   UNL     1     -14.943 -45.020  28.011  1.00  0.00     0.137 HD
ENDBRANCH  31  34
ENDBRANCH   4  31
TORSDOF 7
ENDMDL
MODEL 7
REMARK VINA RESULT:    -8.668      4.394      7.679
REMARK INTER + INTRA:         -13.238
REMARK INTER:                 -11.911
REMARK INTRA:                  -1.327
REMARK UNBOUND:                -1.277
REMARK SMILES COc1ccc([C@H]2C=C(c3cc(F)ccc3F)NN2c2ccc(S(N)(=O)=O)cc2)c(OC)c1
REMARK SMILES IDX 20 1 21 2 22 3 23 4 28 5 29 6 19 7 18 8 9 9 8 10 7 11 10 13
REMARK SMILES IDX 11 14 16 15 12 16 15 17 14 18 17 19 13 20 6 21 5 22 30 23
REMARK SMILES IDX 4 24 33 25 3 26 31 27 32 28 2 29 1 30 24 31 26 32 27 33
REMARK SMILES IDX 25 34
REMARK H PARENT 18 12 25 35 25 36
ROOT
ATOM      1  C   UNL     1     -18.574 -41.964  23.664  1.00  0.00     0.058 A 
ATOM      2  C   UNL     1     -18.387 -42.269  25.026  1.00  0.00     0.029 A 
ATOM      3  C   UNL     1     -17.146 -42.673  25.530  1.00  0.00     0.024 A 
ATOM      4  C   UNL     1     -16.060 -42.780  24.666  1.00  0.00     0.082 A 
ATOM      5  C   UNL     1     -16.212 -42.511  23.308  1.00  0.00     0.024 A 
ATOM      6  C   UNL     1     -17.462 -42.107  22.819  1.00  0.00     0.029 A 
ENDROOT
BRANCH   1   7
ATOM      7  N   UNL     1     -19.840 -41.583  23.194  1.00  0.00    -0.276 N 
ATOM      8  N   UNL     1     -20.017 -40.776  22.070  1.00  0.00    -0.297 N 
ATOM      9  C   UNL     1     -21.267 -41.006  21.501  1.00  0.00     0.063 C 
ATOM     10  C   UNL     1     -21.891 -41.995  22.159  1.00  0.00     0.033 C 
ATOM     11  C   UNL     1     -21.034 -42.477  23.314  1.00  0.00     0.164 C 
ATOM     12  H   UNL     1     -19.881 -39.780  22.254  1.00  0.00     0.188 HD
BRANCH   9  13
ATOM     13  C   UNL     1     -21.751 -40.220  20.361  1.00  0.00     0.038 A 
ATOM     14  C   UNL     1     -21.453 -38.850  20.282  1.00  0.00     0.052 A 
ATOM     15  C   UNL     1     -22.523 -40.780  19.331  1.00  0.00     0.132 A 
ATOM     16  C   UNL     1     -21.913 -38.087  19.210  1.00  0.00     0.124 A 
ATOM     17  C   UNL     1     -22.983 -40.012  18.258  1.00  0.00     0.043 A 
ATOM     18  C   UNL     1     -22.676 -38.655  18.198  1.00  0.00     0.042 A 
ATOM     19  F   UNL     1     -22.855 -42.079  19.348  1.00  0.00    -0.206 F 
ATOM     20  F   UNL     1     -21.614 -36.783  19.155  1.00  0.00    -0.207 F 
ENDBRANCH   9  13
BRANCH  11  21
ATOM     21  C   UNL     1     -21.757 -42.394  24.647  1.00  0.00     0.023 A 
ATOM     22  C   UNL     1     -21.878 -41.132  25.258  1.00  0.00     0.014 A 
ATOM     23  C   UNL     1     -22.287 -43.500  25.330  1.00  0.00     0.128 A 
ATOM     24  C   UNL     1     -22.513 -40.987  26.495  1.00  0.00     0.047 A 
ATOM     25  C   UNL     1     -22.900 -43.355  26.585  1.00  0.00     0.093 A 
ATOM     26  C   UNL     1     -23.023 -42.096  27.167  1.00  0.00     0.122 A 
BRANCH  23  27
ATOM     27  O   UNL     1     -22.139 -44.761  24.812  1.00  0.00    -0.496 OA
ATOM     28  C   UNL     1     -21.305 -45.566  25.647  1.00  0.00     0.278 C 
ENDBRANCH  23  27
BRANCH  26  29
ATOM     29  O   UNL     1     -23.604 -41.817  28.373  1.00  0.00    -0.497 OA
ATOM     30  C   UNL     1     -24.527 -40.735  28.407  1.00  0.00     0.278 C 
ENDBRANCH  26  29
ENDBRANCH  11  21
ENDBRANCH   1   7
BRANCH   4  31
ATOM     31  S   UNL     1     -14.489 -43.295  25.303  1.00  0.00     0.238 S 
ATOM     32  O   UNL     1     -14.582 -44.685  25.678  1.00  0.00    -0.207 OA
ATOM     33  O   UNL     1     -13.452 -42.791  24.433  1.00  0.00    -0.207 OA
BRANCH  31  34
ATOM     34  N   UNL     1     -14.381 -42.379  26.712  1.00  0.00    -0.225 NA
ATOM     35  H   UNL     1     -14.654 -41.418  26.501  1.00  0.00     0.137 HD
ATOM     36  H   UNL     1     -14.920 -42.766  27.486  1.00  0.00     0.137 HD
ENDBRANCH  31  34
ENDBRANCH   4  31
TORSDOF 7
ENDMDL
MODEL 8
REMARK VINA RESULT:    -8.558      4.451      7.258
REMARK INTER + INTRA:         -13.086
REMARK INTER:                 -11.632
REMARK INTRA:                  -1.455
REMARK UNBOUND:                -1.277
REMARK SMILES COc1ccc([C@H]2C=C(c3cc(F)ccc3F)NN2c2ccc(S(N)(=O)=O)cc2)c(OC)c1
REMARK SMILES IDX 20 1 21 2 22 3 23 4 28 5 29 6 19 7 18 8 9 9 8 10 7 11 10 13
REMARK SMILES IDX 11 14 16 15 12 16 15 17 14 18 17 19 13 20 6 21 5 22 30 23
REMARK SMILES IDX 4 24 33 25 3 26 31 27 32 28 2 29 1 30 24 31 26 32 27 33
REMARK SMILES IDX 25 34
REMARK H PARENT 18 12 25 35 25 36
ROOT
ATOM      1  C   UNL     1     -19.259 -42.538  25.582  1.00  0.00     0.058 A 
ATOM      2  C   UNL     1     -18.795 -42.582  24.253  1.00  0.00     0.029 A 
ATOM      3  C   UNL     1     -17.431 -42.592  23.945  1.00  0.00     0.024 A 
ATOM      4  C   UNL     1     -16.497 -42.557  24.978  1.00  0.00     0.082 A 
ATOM      5  C   UNL     1     -16.917 -42.487  26.304  1.00  0.00     0.024 A 
ATOM      6  C   UNL     1     -18.288 -42.479  26.595  1.00  0.00     0.029 A 
ENDROOT
BRANCH   1   7
ATOM      7  N   UNL     1     -20.636 -42.506  25.848  1.00  0.00    -0.276 N 
ATOM      8  N   UNL     1     -21.192 -41.716  26.854  1.00  0.00    -0.297 N 
ATOM      9  C   UNL     1     -22.523 -41.426  26.561  1.00  0.00     0.063 C 
ATOM     10  C   UNL     1     -22.842 -41.925  25.358  1.00  0.00     0.033 C 
ATOM     11  C   UNL     1     -21.659 -42.667  24.768  1.00  0.00     0.164 C 
ATOM     12  H   UNL     1     -21.109 -42.122  27.788  1.00  0.00     0.188 HD
BRANCH   9  13
ATOM     13  C   UNL     1     -23.376 -40.688  27.500  1.00  0.00     0.038 A 
ATOM     14  C   UNL     1     -23.295 -39.287  27.561  1.00  0.00     0.052 A 
ATOM     15  C   UNL     1     -24.277 -41.328  28.366  1.00  0.00     0.132 A 
ATOM     16  C   UNL     1     -24.091 -38.573  28.454  1.00  0.00     0.124 A 
ATOM     17  C   UNL     1     -25.072 -40.608  29.259  1.00  0.00     0.043 A 
ATOM     18  C   UNL     1     -24.978 -39.219  29.304  1.00  0.00     0.042 A 
ATOM     19  F   UNL     1     -24.397 -42.664  28.368  1.00  0.00    -0.206 F 
ATOM     20  F   UNL     1     -23.998 -37.237  28.493  1.00  0.00    -0.207 F 
ENDBRANCH   9  13
BRANCH  11  21
ATOM     21  C   UNL     1     -21.991 -44.108  24.419  1.00  0.00     0.023 A 
ATOM     22  C   UNL     1     -21.637 -45.112  25.340  1.00  0.00     0.014 A 
ATOM     23  C   UNL     1     -22.602 -44.511  23.221  1.00  0.00     0.128 A 
ATOM     24  C   UNL     1     -21.894 -46.459  25.073  1.00  0.00     0.047 A 
ATOM     25  C   UNL     1     -22.835 -45.868  22.944  1.00  0.00     0.093 A 
ATOM     26  C   UNL     1     -22.490 -46.846  23.874  1.00  0.00     0.122 A 
BRANCH  23  27
ATOM     27  O   UNL     1     -22.909 -43.582  22.260  1.00  0.00    -0.496 OA
ATOM     28  C   UNL     1     -22.039 -43.700  21.133  1.00  0.00     0.278 C 
ENDBRANCH  23  27
BRANCH  26  29
ATOM     29  O   UNL     1     -22.670 -48.194  23.733  1.00  0.00    -0.497 OA
ATOM     30  C   UNL     1     -22.515 -48.730  22.424  1.00  0.00     0.278 C 
ENDBRANCH  26  29
ENDBRANCH  11  21
ENDBRANCH   1   7
BRANCH   4  31
ATOM     31  S   UNL     1     -14.770 -42.566  24.589  1.00  0.00     0.238 S 
ATOM     32  O   UNL     1     -14.526 -41.574  23.570  1.00  0.00    -0.207 OA
ATOM     33  O   UNL     1     -14.020 -42.616  25.822  1.00  0.00    -0.207 OA
BRANCH  31  34
ATOM     34  N   UNL     1     -14.591 -44.088  23.890  1.00  0.00    -0.225 NA
ATOM     35  H   UNL     1     -14.100 -44.696  24.548  1.00  0.00     0.137 HD
ATOM     36  H   UNL     1     -15.473 -44.496  23.580  1.00  0.00     0.137 HD
ENDBRANCH  31  34
ENDBRANCH   4  31
TORSDOF 7
ENDMDL
MODEL 9
REMARK VINA RESULT:    -8.538      3.617      5.107
REMARK INTER + INTRA:         -13.059
REMARK INTER:                 -11.367
REMARK INTRA:                  -1.692
REMARK UNBOUND:                -1.277
REMARK SMILES COc1ccc([C@H]2C=C(c3cc(F)ccc3F)NN2c2ccc(S(N)(=O)=O)cc2)c(OC)c1
REMARK SMILES IDX 20 1 21 2 22 3 23 4 28 5 29 6 19 7 18 8 9 9 8 10 7 11 10 13
REMARK SMILES IDX 11 14 16 15 12 16 15 17 14 18 17 19 13 20 6 21 5 22 30 23
REMARK SMILES IDX 4 24 33 25 3 26 31 27 32 28 2 29 1 30 24 31 26 32 27 33
REMARK SMILES IDX 25 34
REMARK H PARENT 18 12 25 35 25 36
ROOT
ATOM      1  C   UNL     1     -21.690 -43.511  22.387  1.00  0.00     0.058 A 
ATOM      2  C   UNL     1     -22.736 -44.350  22.820  1.00  0.00     0.029 A 
ATOM      3  C   UNL     1     -23.531 -45.067  21.919  1.00  0.00     0.024 A 
ATOM      4  C   UNL     1     -23.288 -44.952  20.553  1.00  0.00     0.082 A 
ATOM      5  C   UNL     1     -22.279 -44.113  20.085  1.00  0.00     0.024 A 
ATOM      6  C   UNL     1     -21.492 -43.402  21.001  1.00  0.00     0.029 A 
ENDROOT
BRANCH   1   7
ATOM      7  N   UNL     1     -20.931 -42.792  23.322  1.00  0.00    -0.276 N 
ATOM      8  N   UNL     1     -19.777 -43.306  23.912  1.00  0.00    -0.297 N 
ATOM      9  C   UNL     1     -18.940 -42.270  24.322  1.00  0.00     0.063 C 
ATOM     10  C   UNL     1     -19.461 -41.092  23.949  1.00  0.00     0.033 C 
ATOM     11  C   UNL     1     -20.794 -41.303  23.258  1.00  0.00     0.164 C 
ATOM     12  H   UNL     1     -19.962 -43.948  24.686  1.00  0.00     0.188 HD
BRANCH   9  13
ATOM     13  C   UNL     1     -17.699 -42.529  25.060  1.00  0.00     0.038 A 
ATOM     14  C   UNL     1     -16.540 -42.910  24.363  1.00  0.00     0.052 A 
ATOM     15  C   UNL     1     -17.615 -42.424  26.457  1.00  0.00     0.132 A 
ATOM     16  C   UNL     1     -15.356 -43.168  25.050  1.00  0.00     0.124 A 
ATOM     17  C   UNL     1     -16.425 -42.684  27.142  1.00  0.00     0.043 A 
ATOM     18  C   UNL     1     -15.287 -43.060  26.432  1.00  0.00     0.042 A 
ATOM     19  F   UNL     1     -18.685 -42.076  27.187  1.00  0.00    -0.206 F 
ATOM     20  F   UNL     1     -14.263 -43.527  24.363  1.00  0.00    -0.207 F 
ENDBRANCH   9  13
BRANCH  11  21
ATOM     21  C   UNL     1     -21.921 -40.533  23.924  1.00  0.00     0.023 A 
ATOM     22  C   UNL     1     -22.038 -40.608  25.325  1.00  0.00     0.014 A 
ATOM     23  C   UNL     1     -22.878 -39.774  23.233  1.00  0.00     0.128 A 
ATOM     24  C   UNL     1     -23.064 -39.942  26.000  1.00  0.00     0.047 A 
ATOM     25  C   UNL     1     -23.924 -39.128  23.911  1.00  0.00     0.093 A 
ATOM     26  C   UNL     1     -24.014 -39.202  25.299  1.00  0.00     0.122 A 
BRANCH  23  27
ATOM     27  O   UNL     1     -22.851 -39.720  21.862  1.00  0.00    -0.496 OA
ATOM     28  C   UNL     1     -23.878 -40.535  21.294  1.00  0.00     0.278 C 
ENDBRANCH  23  27
BRANCH  26  29
ATOM     29  O   UNL     1     -24.971 -38.615  26.079  1.00  0.00    -0.497 OA
ATOM     30  C   UNL     1     -24.516 -37.768  27.127  1.00  0.00     0.278 C 
ENDBRANCH  26  29
ENDBRANCH  11  21
ENDBRANCH   1   7
BRANCH   4  31
ATOM     31  S   UNL     1     -24.296 -45.857  19.412  1.00  0.00     0.238 S 
ATOM     32  O   UNL     1     -24.986 -46.896  20.136  1.00  0.00    -0.207 OA
ATOM     33  O   UNL     1     -24.982 -44.917  18.557  1.00  0.00    -0.207 OA
BRANCH  31  34
ATOM     34  N   UNL     1     -23.130 -46.585  18.437  1.00  0.00    -0.225 NA
ATOM     35  H   UNL     1     -22.498 -47.124  19.030  1.00  0.00     0.137 HD
ATOM     36  H   UNL     1     -23.528 -47.153  17.690  1.00  0.00     0.137 HD
ENDBRANCH  31  34
ENDBRANCH   4  31
TORSDOF 7
ENDMDL
