MODEL 1
REMARK VINA RESULT:   -11.625      0.000      0.000
REMARK INTER + INTRA:         -16.492
REMARK INTER:                 -15.703
REMARK INTRA:                  -0.789
REMARK UNBOUND:                -0.789
REMARK SMILES CC(=O)Nc1ccc2c(CC[C@H]3CC[N@@H+](Cc4ccccc4)CC3)noc2c1
REMARK SMILES IDX 11 1 12 2 14 3 15 4 13 5 23 6 24 7 16 9 17 10 18 11 22 12
REMARK SMILES IDX 19 13 21 14 20 15 10 16 9 17 8 18 25 19 7 20 27 21 26 22
REMARK SMILES IDX 6 23 28 24 5 25 4 26 2 27 1 29 3 30
REMARK H PARENT 15 8 4 28
ROOT
ATOM      1  C   UNL     1     -14.335 -44.332  27.622  1.00  0.00     0.010 C 
ENDROOT
BRANCH   1   2
ATOM      2  C   UNL     1     -12.902 -44.872  27.393  1.00  0.00     0.000 C 
ATOM      3  C   UNL     1     -11.753 -43.917  29.470  1.00  0.00     0.262 C 
ATOM      4  N   UNL     1     -11.488 -45.328  29.930  1.00  0.00    -0.331 N 
ATOM      5  C   UNL     1     -11.851 -43.893  27.949  1.00  0.00     0.065 C 
ATOM      6  C   UNL     1     -12.574 -46.280  29.495  1.00  0.00     0.262 C 
ATOM      7  C   UNL     1     -12.658 -46.274  27.974  1.00  0.00     0.065 C 
ATOM      8  H   UNL     1     -10.630 -45.632  29.451  1.00  0.00     0.348 HD
BRANCH   4   9
ATOM      9  C   UNL     1     -11.151 -45.431  31.405  1.00  0.00     0.299 C 
BRANCH   9  10
ATOM     10  C   UNL     1      -9.792 -44.926  31.804  1.00  0.00     0.006 A 
ATOM     11  C   UNL     1      -8.635 -45.658  31.493  1.00  0.00     0.009 A 
ATOM     12  C   UNL     1      -9.654 -43.709  32.492  1.00  0.00     0.009 A 
ATOM     13  C   UNL     1      -7.374 -45.178  31.846  1.00  0.00     0.001 A 
ATOM     14  C   UNL     1      -8.390 -43.231  32.843  1.00  0.00     0.001 A 
ATOM     15  C   UNL     1      -7.252 -43.963  32.517  1.00  0.00     0.000 A 
ENDBRANCH   9  10
ENDBRANCH   4   9
ENDBRANCH   1   2
BRANCH   1  16
ATOM     16  C   UNL     1     -14.631 -42.940  27.041  1.00  0.00     0.061 C 
BRANCH  16  17
ATOM     17  C   UNL     1     -15.049 -42.964  25.612  1.00  0.00     0.091 A 
ATOM     18  C   UNL     1     -16.343 -42.772  25.067  1.00  0.00     0.045 A 
ATOM     19  N   UNL     1     -14.135 -43.177  24.655  1.00  0.00    -0.084 NA
ATOM     20  C   UNL     1     -17.637 -42.514  25.539  1.00  0.00     0.016 A 
ATOM     21  C   UNL     1     -16.148 -42.895  23.705  1.00  0.00     0.169 A 
ATOM     22  O   UNL     1     -14.833 -43.136  23.458  1.00  0.00    -0.356 OA
ATOM     23  C   UNL     1     -18.677 -42.388  24.602  1.00  0.00     0.027 A 
ATOM     24  C   UNL     1     -17.157 -42.781  22.750  1.00  0.00     0.076 A 
ATOM     25  C   UNL     1     -18.452 -42.518  23.224  1.00  0.00     0.045 A 
BRANCH  25  26
ATOM     26  N   UNL     1     -19.470 -42.403  22.253  1.00  0.00    -0.326 N 
ATOM     27  C   UNL     1     -19.895 -41.253  21.609  1.00  0.00     0.221 C 
ATOM     28  H   UNL     1     -19.945 -43.261  21.998  1.00  0.00     0.169 HD
ATOM     29  C   UNL     1     -21.031 -41.521  20.653  1.00  0.00     0.114 C 
ATOM     30  O   UNL     1     -19.457 -40.120  21.764  1.00  0.00    -0.275 OA
ENDBRANCH  25  26
ENDBRANCH  16  17
ENDBRANCH   1  16
TORSDOF 6
ENDMDL
MODEL 2
REMARK VINA RESULT:   -11.455      1.780      2.037
REMARK INTER + INTRA:         -16.262
REMARK INTER:                 -15.857
REMARK INTRA:                  -0.404
REMARK UNBOUND:                -0.789
REMARK SMILES CC(=O)Nc1ccc2c(CC[C@H]3CC[N@@H+](Cc4ccccc4)CC3)noc2c1
REMARK SMILES IDX 11 1 12 2 14 3 15 4 13 5 23 6 24 7 16 9 17 10 18 11 22 12
REMARK SMILES IDX 19 13 21 14 20 15 10 16 9 17 8 18 25 19 7 20 27 21 26 22
REMARK SMILES IDX 6 23 28 24 5 25 4 26 2 27 1 29 3 30
REMARK H PARENT 15 8 4 28
ROOT
ATOM      1  C   UNL     1     -13.858 -44.585  27.399  1.00  0.00     0.010 C 
ENDROOT
BRANCH   1   2
ATOM      2  C   UNL     1     -12.671 -45.531  27.708  1.00  0.00     0.000 C 
ATOM      3  C   UNL     1     -11.381 -44.064  29.361  1.00  0.00     0.262 C 
ATOM      4  N   UNL     1     -11.618 -45.110  30.420  1.00  0.00    -0.331 N 
ATOM      5  C   UNL     1     -11.387 -44.727  27.988  1.00  0.00     0.065 C 
ATOM      6  C   UNL     1     -12.931 -45.826  30.229  1.00  0.00     0.262 C 
ATOM      7  C   UNL     1     -12.930 -46.507  28.866  1.00  0.00     0.065 C 
ATOM      8  H   UNL     1     -10.883 -45.819  30.296  1.00  0.00     0.348 HD
BRANCH   4   9
ATOM      9  C   UNL     1     -11.410 -44.599  31.833  1.00  0.00     0.299 C 
BRANCH   9  10
ATOM     10  C   UNL     1      -9.992 -44.265  32.208  1.00  0.00     0.006 A 
ATOM     11  C   UNL     1      -8.923 -45.040  31.730  1.00  0.00     0.009 A 
ATOM     12  C   UNL     1      -9.711 -43.169  33.040  1.00  0.00     0.009 A 
ATOM     13  C   UNL     1      -7.607 -44.716  32.062  1.00  0.00     0.001 A 
ATOM     14  C   UNL     1      -8.393 -42.848  33.370  1.00  0.00     0.001 A 
ATOM     15  C   UNL     1      -7.343 -43.618  32.878  1.00  0.00     0.000 A 
ENDBRANCH   9  10
ENDBRANCH   4   9
ENDBRANCH   1   2
BRANCH   1  16
ATOM     16  C   UNL     1     -13.576 -43.459  26.392  1.00  0.00     0.061 C 
BRANCH  16  17
ATOM     17  C   UNL     1     -14.697 -43.204  25.447  1.00  0.00     0.091 A 
ATOM     18  C   UNL     1     -16.038 -42.850  25.741  1.00  0.00     0.045 A 
ATOM     19  N   UNL     1     -14.487 -43.290  24.126  1.00  0.00    -0.084 NA
ATOM     20  C   UNL     1     -16.819 -42.613  26.880  1.00  0.00     0.016 A 
ATOM     21  C   UNL     1     -16.629 -42.736  24.498  1.00  0.00     0.169 A 
ATOM     22  O   UNL     1     -15.707 -42.999  23.534  1.00  0.00    -0.356 OA
ATOM     23  C   UNL     1     -18.170 -42.267  26.703  1.00  0.00     0.027 A 
ATOM     24  C   UNL     1     -17.966 -42.401  24.288  1.00  0.00     0.076 A 
ATOM     25  C   UNL     1     -18.746 -42.159  25.430  1.00  0.00     0.045 A 
BRANCH  25  26
ATOM     26  N   UNL     1     -20.098 -41.818  25.212  1.00  0.00    -0.326 N 
ATOM     27  C   UNL     1     -20.964 -41.195  26.094  1.00  0.00     0.221 C 
ATOM     28  H   UNL     1     -20.479 -42.058  24.304  1.00  0.00     0.169 HD
ATOM     29  C   UNL     1     -22.346 -41.022  25.512  1.00  0.00     0.114 C 
ATOM     30  O   UNL     1     -20.708 -40.818  27.231  1.00  0.00    -0.275 OA
ENDBRANCH  25  26
ENDBRANCH  16  17
ENDBRANCH   1  16
TORSDOF 6
ENDMDL
MODEL 3
REMARK VINA RESULT:   -11.445      1.982      3.193
REMARK INTER + INTRA:         -16.249
REMARK INTER:                 -15.512
REMARK INTRA:                  -0.736
REMARK UNBOUND:                -0.789
REMARK SMILES CC(=O)Nc1ccc2c(CC[C@H]3CC[N@@H+](Cc4ccccc4)CC3)noc2c1
REMARK SMILES IDX 11 1 12 2 14 3 15 4 13 5 23 6 24 7 16 9 17 10 18 11 22 12
REMARK SMILES IDX 19 13 21 14 20 15 10 16 9 17 8 18 25 19 7 20 27 21 26 22
REMARK SMILES IDX 6 23 28 24 5 25 4 26 2 27 1 29 3 30
REMARK H PARENT 15 8 4 28
ROOT
ATOM      1  C   UNL     1     -12.368 -46.520  28.464  1.00  0.00     0.010 C 
ENDROOT
BRANCH   1   2
ATOM      2  C   UNL     1     -10.921 -46.211  28.923  1.00  0.00     0.000 C 
ATOM      3  C   UNL     1     -11.133 -43.691  29.317  1.00  0.00     0.262 C 
ATOM      4  N   UNL     1     -10.828 -43.928  30.774  1.00  0.00    -0.331 N 
ATOM      5  C   UNL     1     -10.496 -44.797  28.483  1.00  0.00     0.065 C 
ATOM      6  C   UNL     1     -11.346 -45.261  31.253  1.00  0.00     0.262 C 
ATOM      7  C   UNL     1     -10.694 -46.368  30.435  1.00  0.00     0.065 C 
ATOM      8  H   UNL     1      -9.803 -43.973  30.852  1.00  0.00     0.348 HD
BRANCH   4   9
ATOM      9  C   UNL     1     -11.221 -42.771  31.672  1.00  0.00     0.299 C 
BRANCH   9  10
ATOM     10  C   UNL     1     -10.374 -42.575  32.899  1.00  0.00     0.006 A 
ATOM     11  C   UNL     1     -10.925 -42.034  34.072  1.00  0.00     0.009 A 
ATOM     12  C   UNL     1      -9.016 -42.933  32.896  1.00  0.00     0.009 A 
ATOM     13  C   UNL     1     -10.143 -41.872  35.215  1.00  0.00     0.001 A 
ATOM     14  C   UNL     1      -8.236 -42.770  34.042  1.00  0.00     0.001 A 
ATOM     15  C   UNL     1      -8.801 -42.244  35.201  1.00  0.00     0.000 A 
ENDBRANCH   9  10
ENDBRANCH   4   9
ENDBRANCH   1   2
BRANCH   1  16
ATOM     16  C   UNL     1     -12.735 -46.062  27.044  1.00  0.00     0.061 C 
BRANCH  16  17
ATOM     17  C   UNL     1     -13.783 -45.005  27.007  1.00  0.00     0.091 A 
ATOM     18  C   UNL     1     -14.450 -44.461  25.882  1.00  0.00     0.045 A 
ATOM     19  N   UNL     1     -14.212 -44.454  28.151  1.00  0.00    -0.084 NA
ATOM     20  C   UNL     1     -14.440 -44.631  24.491  1.00  0.00     0.016 A 
ATOM     21  C   UNL     1     -15.313 -43.529  26.428  1.00  0.00     0.169 A 
ATOM     22  O   UNL     1     -15.172 -43.524  27.780  1.00  0.00    -0.356 OA
ATOM     23  C   UNL     1     -15.312 -43.846  23.716  1.00  0.00     0.027 A 
ATOM     24  C   UNL     1     -16.184 -42.733  25.688  1.00  0.00     0.076 A 
ATOM     25  C   UNL     1     -16.177 -42.907  24.295  1.00  0.00     0.045 A 
BRANCH  25  26
ATOM     26  N   UNL     1     -17.063 -42.099  23.551  1.00  0.00    -0.326 N 
ATOM     27  C   UNL     1     -16.755 -41.267  22.488  1.00  0.00     0.221 C 
ATOM     28  H   UNL     1     -18.037 -42.132  23.827  1.00  0.00     0.169 HD
ATOM     29  C   UNL     1     -17.967 -40.538  21.964  1.00  0.00     0.114 C 
ATOM     30  O   UNL     1     -15.649 -41.085  21.994  1.00  0.00    -0.275 OA
ENDBRANCH  25  26
ENDBRANCH  16  17
ENDBRANCH   1  16
TORSDOF 6
ENDMDL
MODEL 4
REMARK VINA RESULT:   -11.426      1.194      1.754
REMARK INTER + INTRA:         -16.223
REMARK INTER:                 -15.438
REMARK INTRA:                  -0.785
REMARK UNBOUND:                -0.789
REMARK SMILES CC(=O)Nc1ccc2c(CC[C@H]3CC[N@@H+](Cc4ccccc4)CC3)noc2c1
REMARK SMILES IDX 11 1 12 2 14 3 15 4 13 5 23 6 24 7 16 9 17 10 18 11 22 12
REMARK SMILES IDX 19 13 21 14 20 15 10 16 9 17 8 18 25 19 7 20 27 21 26 22
REMARK SMILES IDX 6 23 28 24 5 25 4 26 2 27 1 29 3 30
REMARK H PARENT 15 8 4 28
ROOT
ATOM      1  C   UNL     1     -14.289 -44.370  27.469  1.00  0.00     0.010 C 
ENDROOT
BRANCH   1   2
ATOM      2  C   UNL     1     -12.865 -44.961  27.327  1.00  0.00     0.000 C 
ATOM      3  C   UNL     1     -11.748 -43.862  29.351  1.00  0.00     0.262 C 
ATOM      4  N   UNL     1     -11.533 -45.235  29.934  1.00  0.00    -0.331 N 
ATOM      5  C   UNL     1     -11.804 -43.964  27.831  1.00  0.00     0.065 C 
ATOM      6  C   UNL     1     -12.630 -46.195  29.549  1.00  0.00     0.262 C 
ATOM      7  C   UNL     1     -12.672 -46.314  28.031  1.00  0.00     0.065 C 
ATOM      8  H   UNL     1     -10.670 -45.598  29.508  1.00  0.00     0.348 HD
BRANCH   4   9
ATOM      9  C   UNL     1     -11.238 -45.222  31.422  1.00  0.00     0.299 C 
BRANCH   9  10
ATOM     10  C   UNL     1      -9.849 -44.798  31.812  1.00  0.00     0.006 A 
ATOM     11  C   UNL     1      -9.640 -43.622  32.550  1.00  0.00     0.009 A 
ATOM     12  C   UNL     1      -8.736 -45.573  31.449  1.00  0.00     0.009 A 
ATOM     13  C   UNL     1      -8.352 -43.241  32.929  1.00  0.00     0.001 A 
ATOM     14  C   UNL     1      -7.449 -45.189  31.831  1.00  0.00     0.001 A 
ATOM     15  C   UNL     1      -7.259 -44.026  32.573  1.00  0.00     0.000 A 
ENDBRANCH   9  10
ENDBRANCH   4   9
ENDBRANCH   1   2
BRANCH   1  16
ATOM     16  C   UNL     1     -14.516 -42.998  26.815  1.00  0.00     0.061 C 
BRANCH  16  17
ATOM     17  C   UNL     1     -15.936 -42.734  26.453  1.00  0.00     0.091 A 
ATOM     18  C   UNL     1     -16.519 -42.651  25.164  1.00  0.00     0.045 A 
ATOM     19  N   UNL     1     -16.846 -42.551  27.420  1.00  0.00    -0.084 NA
ATOM     20  C   UNL     1     -16.101 -42.758  23.831  1.00  0.00     0.016 A 
ATOM     21  C   UNL     1     -17.852 -42.394  25.421  1.00  0.00     0.169 A 
ATOM     22  O   UNL     1     -18.048 -42.334  26.765  1.00  0.00    -0.356 OA
ATOM     23  C   UNL     1     -17.060 -42.603  22.815  1.00  0.00     0.027 A 
ATOM     24  C   UNL     1     -18.827 -42.229  24.438  1.00  0.00     0.076 A 
ATOM     25  C   UNL     1     -18.407 -42.342  23.103  1.00  0.00     0.045 A 
BRANCH  25  26
ATOM     26  N   UNL     1     -19.399 -42.175  22.112  1.00  0.00    -0.326 N 
ATOM     27  C   UNL     1     -19.763 -41.003  21.472  1.00  0.00     0.221 C 
ATOM     28  H   UNL     1     -19.902 -43.011  21.838  1.00  0.00     0.169 HD
ATOM     29  C   UNL     1     -20.888 -41.214  20.489  1.00  0.00     0.114 C 
ATOM     30  O   UNL     1     -19.282 -39.890  21.648  1.00  0.00    -0.275 OA
ENDBRANCH  25  26
ENDBRANCH  16  17
ENDBRANCH   1  16
TORSDOF 6
ENDMDL
MODEL 5
REMARK VINA RESULT:   -11.309      2.400      3.882
REMARK INTER + INTRA:         -16.065
REMARK INTER:                 -15.789
REMARK INTRA:                  -0.276
REMARK UNBOUND:                -0.789
REMARK SMILES CC(=O)Nc1ccc2c(CC[C@H]3CC[N@@H+](Cc4ccccc4)CC3)noc2c1
REMARK SMILES IDX 11 1 12 2 14 3 15 4 13 5 23 6 24 7 16 9 17 10 18 11 22 12
REMARK SMILES IDX 19 13 21 14 20 15 10 16 9 17 8 18 25 19 7 20 27 21 26 22
REMARK SMILES IDX 6 23 28 24 5 25 4 26 2 27 1 29 3 30
REMARK H PARENT 15 8 4 28
ROOT
ATOM      1  C   UNL     1     -12.020 -46.349  28.632  1.00  0.00     0.010 C 
ENDROOT
BRANCH   1   2
ATOM      2  C   UNL     1     -10.545 -45.901  28.783  1.00  0.00     0.000 C 
ATOM      3  C   UNL     1     -10.905 -43.638  29.923  1.00  0.00     0.262 C 
ATOM      4  N   UNL     1     -10.164 -44.165  31.125  1.00  0.00    -0.331 N 
ATOM      5  C   UNL     1     -10.423 -44.369  28.674  1.00  0.00     0.065 C 
ATOM      6  C   UNL     1     -10.372 -45.646  31.316  1.00  0.00     0.262 C 
ATOM      7  C   UNL     1      -9.871 -46.380  30.078  1.00  0.00     0.065 C 
ATOM      8  H   UNL     1      -9.163 -44.038  30.927  1.00  0.00     0.348 HD
BRANCH   4   9
ATOM      9  C   UNL     1     -10.402 -43.356  32.386  1.00  0.00     0.299 C 
BRANCH   9  10
ATOM     10  C   UNL     1     -11.839 -43.196  32.801  1.00  0.00     0.006 A 
ATOM     11  C   UNL     1     -12.210 -42.215  33.735  1.00  0.00     0.009 A 
ATOM     12  C   UNL     1     -12.836 -44.022  32.260  1.00  0.00     0.009 A 
ATOM     13  C   UNL     1     -13.546 -42.055  34.104  1.00  0.00     0.001 A 
ATOM     14  C   UNL     1     -14.173 -43.859  32.631  1.00  0.00     0.001 A 
ATOM     15  C   UNL     1     -14.526 -42.873  33.549  1.00  0.00     0.000 A 
ENDBRANCH   9  10
ENDBRANCH   4   9
ENDBRANCH   1   2
BRANCH   1  16
ATOM     16  C   UNL     1     -12.634 -46.182  27.234  1.00  0.00     0.061 C 
BRANCH  16  17
ATOM     17  C   UNL     1     -13.640 -45.088  27.147  1.00  0.00     0.091 A 
ATOM     18  C   UNL     1     -14.307 -44.588  26.001  1.00  0.00     0.045 A 
ATOM     19  N   UNL     1     -14.026 -44.450  28.261  1.00  0.00    -0.084 NA
ATOM     20  C   UNL     1     -14.329 -44.845  24.623  1.00  0.00     0.016 A 
ATOM     21  C   UNL     1     -15.121 -43.591  26.501  1.00  0.00     0.169 A 
ATOM     22  O   UNL     1     -14.955 -43.507  27.848  1.00  0.00    -0.356 OA
ATOM     23  C   UNL     1     -15.183 -44.076  23.814  1.00  0.00     0.027 A 
ATOM     24  C   UNL     1     -15.974 -42.807  25.727  1.00  0.00     0.076 A 
ATOM     25  C   UNL     1     -16.000 -43.069  24.347  1.00  0.00     0.045 A 
BRANCH  25  26
ATOM     26  N   UNL     1     -16.867 -42.273  23.568  1.00  0.00    -0.326 N 
ATOM     27  C   UNL     1     -16.520 -41.358  22.589  1.00  0.00     0.221 C 
ATOM     28  H   UNL     1     -17.858 -42.385  23.746  1.00  0.00     0.169 HD
ATOM     29  C   UNL     1     -17.727 -40.676  21.992  1.00  0.00     0.114 C 
ATOM     30  O   UNL     1     -15.388 -41.075  22.216  1.00  0.00    -0.275 OA
ENDBRANCH  25  26
ENDBRANCH  16  17
ENDBRANCH   1  16
TORSDOF 6
ENDMDL
MODEL 6
REMARK VINA RESULT:   -10.398      2.444      4.297
REMARK INTER + INTRA:         -14.834
REMARK INTER:                 -14.166
REMARK INTRA:                  -0.669
REMARK UNBOUND:                -0.789
REMARK SMILES CC(=O)Nc1ccc2c(CC[C@H]3CC[N@@H+](Cc4ccccc4)CC3)noc2c1
REMARK SMILES IDX 11 1 12 2 14 3 15 4 13 5 23 6 24 7 16 9 17 10 18 11 22 12
REMARK SMILES IDX 19 13 21 14 20 15 10 16 9 17 8 18 25 19 7 20 27 21 26 22
REMARK SMILES IDX 6 23 28 24 5 25 4 26 2 27 1 29 3 30
REMARK H PARENT 15 8 4 28
ROOT
ATOM      1  C   UNL     1     -16.808 -42.771  25.117  1.00  0.00     0.010 C 
ENDROOT
BRANCH   1   2
ATOM      2  C   UNL     1     -15.323 -42.408  25.370  1.00  0.00     0.000 C 
ATOM      3  C   UNL     1     -14.829 -43.991  27.320  1.00  0.00     0.262 C 
ATOM      4  N   UNL     1     -13.812 -44.686  26.451  1.00  0.00    -0.331 N 
ATOM      5  C   UNL     1     -14.973 -42.542  26.864  1.00  0.00     0.065 C 
ATOM      6  C   UNL     1     -14.202 -44.669  24.995  1.00  0.00     0.262 C 
ATOM      7  C   UNL     1     -14.325 -43.223  24.533  1.00  0.00     0.065 C 
ATOM      8  H   UNL     1     -12.945 -44.137  26.523  1.00  0.00     0.348 HD
BRANCH   4   9
ATOM      9  C   UNL     1     -13.426 -46.064  26.956  1.00  0.00     0.299 C 
BRANCH   9  10
ATOM     10  C   UNL     1     -12.519 -46.093  28.155  1.00  0.00     0.006 A 
ATOM     11  C   UNL     1     -11.147 -46.354  28.010  1.00  0.00     0.009 A 
ATOM     12  C   UNL     1     -13.028 -45.856  29.442  1.00  0.00     0.009 A 
ATOM     13  C   UNL     1     -10.304 -46.360  29.122  1.00  0.00     0.001 A 
ATOM     14  C   UNL     1     -12.181 -45.862  30.553  1.00  0.00     0.001 A 
ATOM     15  C   UNL     1     -10.821 -46.110  30.391  1.00  0.00     0.000 A 
ENDBRANCH   9  10
ENDBRANCH   4   9
ENDBRANCH   1   2
BRANCH   1  16
ATOM     16  C   UNL     1     -17.180 -43.106  23.664  1.00  0.00     0.061 C 
BRANCH  16  17
ATOM     17  C   UNL     1     -17.611 -41.925  22.867  1.00  0.00     0.091 A 
ATOM     18  C   UNL     1     -18.875 -41.284  22.850  1.00  0.00     0.045 A 
ATOM     19  N   UNL     1     -16.741 -41.327  22.042  1.00  0.00    -0.084 NA
ATOM     20  C   UNL     1     -20.120 -41.435  23.474  1.00  0.00     0.016 A 
ATOM     21  C   UNL     1     -18.710 -40.254  21.944  1.00  0.00     0.169 A 
ATOM     22  O   UNL     1     -17.439 -40.278  21.461  1.00  0.00    -0.356 OA
ATOM     23  C   UNL     1     -21.144 -40.529  23.151  1.00  0.00     0.027 A 
ATOM     24  C   UNL     1     -19.705 -39.343  21.596  1.00  0.00     0.076 A 
ATOM     25  C   UNL     1     -20.951 -39.493  22.226  1.00  0.00     0.045 A 
BRANCH  25  26
ATOM     26  N   UNL     1     -21.955 -38.566  21.872  1.00  0.00    -0.326 N 
ATOM     27  C   UNL     1     -22.712 -38.544  20.712  1.00  0.00     0.221 C 
ATOM     28  H   UNL     1     -22.143 -37.832  22.544  1.00  0.00     0.169 HD
ATOM     29  C   UNL     1     -23.669 -37.379  20.677  1.00  0.00     0.114 C 
ATOM     30  O   UNL     1     -22.649 -39.336  19.780  1.00  0.00    -0.275 OA
ENDBRANCH  25  26
ENDBRANCH  16  17
ENDBRANCH   1  16
TORSDOF 6
ENDMDL
MODEL 7
REMARK VINA RESULT:   -10.338      3.350     10.611
REMARK INTER + INTRA:         -14.753
REMARK INTER:                 -15.076
REMARK INTRA:                   0.323
REMARK UNBOUND:                -0.789
REMARK SMILES CC(=O)Nc1ccc2c(CC[C@H]3CC[N@@H+](Cc4ccccc4)CC3)noc2c1
REMARK SMILES IDX 11 1 12 2 14 3 15 4 13 5 23 6 24 7 16 9 17 10 18 11 22 12
REMARK SMILES IDX 19 13 21 14 20 15 10 16 9 17 8 18 25 19 7 20 27 21 26 22
REMARK SMILES IDX 6 23 28 24 5 25 4 26 2 27 1 29 3 30
REMARK H PARENT 15 8 4 28
ROOT
ATOM      1  C   UNL     1     -14.070 -44.736  26.685  1.00  0.00     0.010 C 
ENDROOT
BRANCH   1   2
ATOM      2  C   UNL     1     -14.094 -43.260  26.216  1.00  0.00     0.000 C 
ATOM      3  C   UNL     1     -15.510 -43.514  24.099  1.00  0.00     0.262 C 
ATOM      4  N   UNL     1     -16.552 -42.628  24.732  1.00  0.00    -0.331 N 
ATOM      5  C   UNL     1     -14.141 -43.174  24.679  1.00  0.00     0.065 C 
ATOM      6  C   UNL     1     -16.602 -42.790  26.230  1.00  0.00     0.262 C 
ATOM      7  C   UNL     1     -15.242 -42.430  26.812  1.00  0.00     0.065 C 
ATOM      8  H   UNL     1     -16.254 -41.659  24.557  1.00  0.00     0.348 HD
BRANCH   4   9
ATOM      9  C   UNL     1     -17.913 -42.725  24.069  1.00  0.00     0.299 C 
BRANCH   9  10
ATOM     10  C   UNL     1     -19.049 -42.066  24.803  1.00  0.00     0.006 A 
ATOM     11  C   UNL     1     -20.032 -41.347  24.104  1.00  0.00     0.009 A 
ATOM     12  C   UNL     1     -19.148 -42.161  26.200  1.00  0.00     0.009 A 
ATOM     13  C   UNL     1     -21.096 -40.754  24.785  1.00  0.00     0.001 A 
ATOM     14  C   UNL     1     -20.215 -41.567  26.878  1.00  0.00     0.001 A 
ATOM     15  C   UNL     1     -21.189 -40.868  26.170  1.00  0.00     0.000 A 
ENDBRANCH   9  10
ENDBRANCH   4   9
ENDBRANCH   1   2
BRANCH   1  16
ATOM     16  C   UNL     1     -12.741 -45.232  27.276  1.00  0.00     0.061 C 
BRANCH  16  17
ATOM     17  C   UNL     1     -12.690 -45.183  28.763  1.00  0.00     0.091 A 
ATOM     18  C   UNL     1     -11.747 -44.529  29.594  1.00  0.00     0.045 A 
ATOM     19  N   UNL     1     -13.635 -45.805  29.481  1.00  0.00    -0.084 NA
ATOM     20  C   UNL     1     -10.595 -43.747  29.435  1.00  0.00     0.016 A 
ATOM     21  C   UNL     1     -12.185 -44.810  30.874  1.00  0.00     0.169 A 
ATOM     22  O   UNL     1     -13.310 -45.570  30.809  1.00  0.00    -0.356 OA
ATOM     23  C   UNL     1      -9.940 -43.281  30.588  1.00  0.00     0.027 A 
ATOM     24  C   UNL     1     -11.556 -44.369  32.037  1.00  0.00     0.076 A 
ATOM     25  C   UNL     1     -10.405 -43.581  31.876  1.00  0.00     0.045 A 
BRANCH  25  26
ATOM     26  N   UNL     1      -9.773 -43.136  33.058  1.00  0.00    -0.326 N 
ATOM     27  C   UNL     1     -10.256 -42.222  33.980  1.00  0.00     0.221 C 
ATOM     28  H   UNL     1      -8.861 -43.530  33.253  1.00  0.00     0.169 HD
ATOM     29  C   UNL     1      -9.281 -41.976  35.104  1.00  0.00     0.114 C 
ATOM     30  O   UNL     1     -11.330 -41.636  33.938  1.00  0.00    -0.275 OA
ENDBRANCH  25  26
ENDBRANCH  16  17
ENDBRANCH   1  16
TORSDOF 6
ENDMDL
MODEL 8
REMARK VINA RESULT:   -10.036      3.123      5.069
REMARK INTER + INTRA:         -14.346
REMARK INTER:                 -14.140
REMARK INTRA:                  -0.206
REMARK UNBOUND:                -0.789
REMARK SMILES CC(=O)Nc1ccc2c(CC[C@H]3CC[N@@H+](Cc4ccccc4)CC3)noc2c1
REMARK SMILES IDX 11 1 12 2 14 3 15 4 13 5 23 6 24 7 16 9 17 10 18 11 22 12
REMARK SMILES IDX 19 13 21 14 20 15 10 16 9 17 8 18 25 19 7 20 27 21 26 22
REMARK SMILES IDX 6 23 28 24 5 25 4 26 2 27 1 29 3 30
REMARK H PARENT 15 8 4 28
ROOT
ATOM      1  C   UNL     1     -16.834 -42.913  25.111  1.00  0.00     0.010 C 
ENDROOT
BRANCH   1   2
ATOM      2  C   UNL     1     -15.365 -42.503  25.382  1.00  0.00     0.000 C 
ATOM      3  C   UNL     1     -14.826 -44.109  27.301  1.00  0.00     0.262 C 
ATOM      4  N   UNL     1     -13.781 -44.749  26.425  1.00  0.00    -0.331 N 
ATOM      5  C   UNL     1     -15.019 -42.657  26.875  1.00  0.00     0.065 C 
ATOM      6  C   UNL     1     -14.162 -44.715  24.966  1.00  0.00     0.262 C 
ATOM      7  C   UNL     1     -14.334 -43.264  24.534  1.00  0.00     0.065 C 
ATOM      8  H   UNL     1     -12.934 -44.172  26.514  1.00  0.00     0.348 HD
BRANCH   4   9
ATOM      9  C   UNL     1     -13.349 -46.123  26.902  1.00  0.00     0.299 C 
BRANCH   9  10
ATOM     10  C   UNL     1     -12.475 -46.147  28.127  1.00  0.00     0.006 A 
ATOM     11  C   UNL     1     -11.095 -46.381  28.017  1.00  0.00     0.009 A 
ATOM     12  C   UNL     1     -13.024 -45.932  29.401  1.00  0.00     0.009 A 
ATOM     13  C   UNL     1     -10.283 -46.383  29.152  1.00  0.00     0.001 A 
ATOM     14  C   UNL     1     -12.208 -45.935  30.534  1.00  0.00     0.001 A 
ATOM     15  C   UNL     1     -10.839 -46.156  30.408  1.00  0.00     0.000 A 
ENDBRANCH   9  10
ENDBRANCH   4   9
ENDBRANCH   1   2
BRANCH   1  16
ATOM     16  C   UNL     1     -17.358 -42.642  23.692  1.00  0.00     0.061 C 
BRANCH  16  17
ATOM     17  C   UNL     1     -18.686 -41.970  23.660  1.00  0.00     0.091 A 
ATOM     18  C   UNL     1     -19.530 -41.629  24.746  1.00  0.00     0.045 A 
ATOM     19  N   UNL     1     -19.214 -41.598  22.486  1.00  0.00    -0.084 NA
ATOM     20  C   UNL     1     -19.518 -41.747  26.142  1.00  0.00     0.016 A 
ATOM     21  C   UNL     1     -20.618 -41.028  24.142  1.00  0.00     0.169 A 
ATOM     22  O   UNL     1     -20.431 -41.009  22.795  1.00  0.00    -0.356 OA
ATOM     23  C   UNL     1     -20.614 -41.244  26.865  1.00  0.00     0.027 A 
ATOM     24  C   UNL     1     -21.722 -40.525  24.828  1.00  0.00     0.076 A 
ATOM     25  C   UNL     1     -21.706 -40.639  26.227  1.00  0.00     0.045 A 
BRANCH  25  26
ATOM     26  N   UNL     1     -22.826 -40.126  26.916  1.00  0.00    -0.326 N 
ATOM     27  C   UNL     1     -23.659 -40.801  27.793  1.00  0.00     0.221 C 
ATOM     28  H   UNL     1     -23.047 -39.152  26.749  1.00  0.00     0.169 HD
ATOM     29  C   UNL     1     -24.772 -39.925  28.313  1.00  0.00     0.114 C 
ATOM     30  O   UNL     1     -23.568 -41.974  28.136  1.00  0.00    -0.275 OA
ENDBRANCH  25  26
ENDBRANCH  16  17
ENDBRANCH   1  16
TORSDOF 6
ENDMDL
MODEL 9
REMARK VINA RESULT:    -9.826      4.242     10.695
REMARK INTER + INTRA:         -14.062
REMARK INTER:                 -13.180
REMARK INTRA:                  -0.882
REMARK UNBOUND:                -0.789
REMARK SMILES CC(=O)Nc1ccc2c(CC[C@H]3CC[N@@H+](Cc4ccccc4)CC3)noc2c1
REMARK SMILES IDX 11 1 12 2 14 3 15 4 13 5 23 6 24 7 16 9 17 10 18 11 22 12
REMARK SMILES IDX 19 13 21 14 20 15 10 16 9 17 8 18 25 19 7 20 27 21 26 22
REMARK SMILES IDX 6 23 28 24 5 25 4 26 2 27 1 29 3 30
REMARK H PARENT 15 8 4 28
ROOT
ATOM      1  C   UNL     1     -19.454 -42.900  24.930  1.00  0.00     0.010 C 
ENDROOT
BRANCH   1   2
ATOM      2  C   UNL     1     -19.646 -42.846  26.466  1.00  0.00     0.000 C 
ATOM      3  C   UNL     1     -21.310 -40.908  26.617  1.00  0.00     0.262 C 
ATOM      4  N   UNL     1     -22.318 -41.864  27.199  1.00  0.00    -0.331 N 
ATOM      5  C   UNL     1     -19.904 -41.402  26.937  1.00  0.00     0.065 C 
ATOM      6  C   UNL     1     -22.156 -43.262  26.655  1.00  0.00     0.262 C 
ATOM      7  C   UNL     1     -20.759 -43.765  26.994  1.00  0.00     0.065 C 
ATOM      8  H   UNL     1     -22.116 -41.923  28.206  1.00  0.00     0.348 HD
BRANCH   4   9
ATOM      9  C   UNL     1     -23.746 -41.354  27.134  1.00  0.00     0.299 C 
BRANCH   9  10
ATOM     10  C   UNL     1     -23.920 -39.869  27.297  1.00  0.00     0.006 A 
ATOM     11  C   UNL     1     -23.919 -39.284  28.574  1.00  0.00     0.009 A 
ATOM     12  C   UNL     1     -24.082 -39.040  26.176  1.00  0.00     0.009 A 
ATOM     13  C   UNL     1     -24.060 -37.904  28.722  1.00  0.00     0.001 A 
ATOM     14  C   UNL     1     -24.223 -37.659  26.329  1.00  0.00     0.001 A 
ATOM     15  C   UNL     1     -24.207 -37.093  27.600  1.00  0.00     0.000 A 
ENDBRANCH   9  10
ENDBRANCH   4   9
ENDBRANCH   1   2
BRANCH   1  16
ATOM     16  C   UNL     1     -18.318 -42.034  24.364  1.00  0.00     0.061 C 
BRANCH  16  17
ATOM     17  C   UNL     1     -16.993 -42.713  24.358  1.00  0.00     0.091 A 
ATOM     18  C   UNL     1     -16.167 -43.049  25.460  1.00  0.00     0.045 A 
ATOM     19  N   UNL     1     -16.448 -43.098  23.196  1.00  0.00    -0.084 NA
ATOM     20  C   UNL     1     -16.200 -42.920  26.855  1.00  0.00     0.016 A 
ATOM     21  C   UNL     1     -15.073 -43.660  24.878  1.00  0.00     0.169 A 
ATOM     22  O   UNL     1     -15.239 -43.690  23.529  1.00  0.00    -0.356 OA
ATOM     23  C   UNL     1     -15.118 -43.422  27.598  1.00  0.00     0.027 A 
ATOM     24  C   UNL     1     -13.982 -44.163  25.584  1.00  0.00     0.076 A 
ATOM     25  C   UNL     1     -14.019 -44.037  26.982  1.00  0.00     0.045 A 
BRANCH  25  26
ATOM     26  N   UNL     1     -12.912 -44.550  27.693  1.00  0.00    -0.326 N 
ATOM     27  C   UNL     1     -11.782 -43.863  28.104  1.00  0.00     0.221 C 
ATOM     28  H   UNL     1     -12.949 -45.534  27.929  1.00  0.00     0.169 HD
ATOM     29  C   UNL     1     -10.798 -44.758  28.816  1.00  0.00     0.114 C 
ATOM     30  O   UNL     1     -11.540 -42.676  27.927  1.00  0.00    -0.275 OA
ENDBRANCH  25  26
ENDBRANCH  16  17
ENDBRANCH   1  16
TORSDOF 6
ENDMDL
