MODEL 1
REMARK VINA RESULT:   -13.347      0.000      0.000
REMARK INTER + INTRA:         -16.166
REMARK INTER:                 -16.469
REMARK INTRA:                   0.302
REMARK UNBOUND:                 0.302
REMARK SMILES Cc1cccc(C(=O)Nc2ccc3c(c2)CN(C(=O)c2cccc(C)c2)C(=O)C3)c1
REMARK SMILES IDX 10 1 11 2 12 3 13 4 14 5 15 6 16 7 17 8 27 9 28 10 29 11
REMARK SMILES IDX 9 12 7 13 8 14 6 16 2 17 3 18 30 19 4 20 5 21 1 22 18 23
REMARK SMILES IDX 19 24 20 25 21 26 26 27 22 28 24 29 23 30 25 31
REMARK H PARENT 9 15
ROOT
ATOM      1  C   UNL     1     -13.462 -44.842  27.335  1.00  0.00     0.041 A 
ATOM      2  C   UNL     1     -13.009 -46.105  26.934  1.00  0.00     0.026 A 
ATOM      3  C   UNL     1     -11.942 -46.724  27.592  1.00  0.00     0.007 A 
ATOM      4  C   UNL     1     -11.303 -46.075  28.649  1.00  0.00    -0.033 A 
ATOM      5  C   UNL     1     -11.745 -44.814  29.054  1.00  0.00    -0.022 A 
ATOM      6  C   UNL     1     -12.826 -44.203  28.401  1.00  0.00     0.032 A 
ATOM      7  C   UNL     1     -11.068 -44.171  30.231  1.00  0.00     0.164 C 
ATOM      8  N   UNL     1      -9.637 -44.437  30.238  1.00  0.00    -0.274 N 
ATOM      9  C   UNL     1      -9.217 -45.758  30.088  1.00  0.00     0.234 C 
ATOM     10  O   UNL     1      -8.121 -46.180  30.463  1.00  0.00    -0.274 OA
ATOM     11  C   UNL     1     -10.181 -46.726  29.412  1.00  0.00     0.136 C 
ENDROOT
BRANCH   1  12
ATOM     12  N   UNL     1     -14.546 -44.290  26.620  1.00  0.00    -0.322 N 
ATOM     13  C   UNL     1     -14.487 -43.450  25.522  1.00  0.00     0.255 C 
ATOM     14  O   UNL     1     -13.478 -42.976  25.013  1.00  0.00    -0.269 OA
ATOM     15  H   UNL     1     -15.464 -44.479  27.000  1.00  0.00     0.170 HD
BRANCH  13  16
ATOM     16  C   UNL     1     -15.813 -43.072  24.955  1.00  0.00     0.040 A 
ATOM     17  C   UNL     1     -18.117 -42.336  25.213  1.00  0.00    -0.050 A 
ATOM     18  C   UNL     1     -18.273 -42.394  23.822  1.00  0.00     0.003 A 
ATOM     19  C   UNL     1     -16.883 -42.694  25.777  1.00  0.00     0.017 A 
ATOM     20  C   UNL     1     -17.214 -42.790  23.003  1.00  0.00     0.001 A 
ATOM     21  C   UNL     1     -15.986 -43.132  23.568  1.00  0.00     0.014 A 
ATOM     22  C   UNL     1     -19.277 -41.967  26.090  1.00  0.00     0.044 C 
ENDBRANCH  13  16
ENDBRANCH   1  12
BRANCH   8  23
ATOM     23  C   UNL     1      -8.878 -43.539  30.992  1.00  0.00     0.260 C 
ATOM     24  O   UNL     1      -7.760 -43.161  30.645  1.00  0.00    -0.269 OA
BRANCH  23  25
ATOM     25  C   UNL     1      -9.437 -43.040  32.280  1.00  0.00     0.040 A 
ATOM     26  C   UNL     1      -8.564 -42.829  33.353  1.00  0.00     0.014 A 
ATOM     27  C   UNL     1     -10.817 -42.855  32.458  1.00  0.00     0.017 A 
ATOM     28  C   UNL     1      -9.062 -42.409  34.586  1.00  0.00     0.001 A 
ATOM     29  C   UNL     1     -11.320 -42.418  33.691  1.00  0.00    -0.050 A 
ATOM     30  C   UNL     1     -10.433 -42.206  34.754  1.00  0.00     0.003 A 
ATOM     31  C   UNL     1     -12.796 -42.238  33.887  1.00  0.00     0.044 C 
ENDBRANCH  23  25
ENDBRANCH   8  23
TORSDOF 4
ENDMDL
MODEL 2
REMARK VINA RESULT:   -12.605      3.163     10.099
REMARK INTER + INTRA:         -15.250
REMARK INTER:                 -14.667
REMARK INTRA:                  -0.583
REMARK UNBOUND:                 0.302
REMARK SMILES Cc1cccc(C(=O)Nc2ccc3c(c2)CN(C(=O)c2cccc(C)c2)C(=O)C3)c1
REMARK SMILES IDX 10 1 11 2 12 3 13 4 14 5 15 6 16 7 17 8 27 9 28 10 29 11
REMARK SMILES IDX 9 12 7 13 8 14 6 16 2 17 3 18 30 19 4 20 5 21 1 22 18 23
REMARK SMILES IDX 19 24 20 25 21 26 26 27 22 28 24 29 23 30 25 31
REMARK H PARENT 9 15
ROOT
ATOM      1  C   UNL     1     -14.628 -43.860  26.128  1.00  0.00     0.041 A 
ATOM      2  C   UNL     1     -14.549 -44.067  24.746  1.00  0.00     0.026 A 
ATOM      3  C   UNL     1     -15.557 -43.608  23.894  1.00  0.00     0.007 A 
ATOM      4  C   UNL     1     -16.669 -42.949  24.421  1.00  0.00    -0.033 A 
ATOM      5  C   UNL     1     -16.759 -42.741  25.799  1.00  0.00    -0.022 A 
ATOM      6  C   UNL     1     -15.738 -43.192  26.648  1.00  0.00     0.032 A 
ATOM      7  C   UNL     1     -17.944 -41.980  26.323  1.00  0.00     0.164 C 
ATOM      8  N   UNL     1     -19.160 -42.310  25.592  1.00  0.00    -0.274 N 
ATOM      9  C   UNL     1     -19.119 -42.261  24.199  1.00  0.00     0.234 C 
ATOM     10  O   UNL     1     -20.113 -42.118  23.485  1.00  0.00    -0.274 OA
ATOM     11  C   UNL     1     -17.754 -42.399  23.535  1.00  0.00     0.136 C 
ENDROOT
BRANCH   1  12
ATOM     12  N   UNL     1     -13.566 -44.353  26.915  1.00  0.00    -0.322 N 
ATOM     13  C   UNL     1     -13.596 -44.670  28.262  1.00  0.00     0.255 C 
ATOM     14  O   UNL     1     -14.534 -44.513  29.033  1.00  0.00    -0.269 OA
ATOM     15  H   UNL     1     -12.669 -44.414  26.452  1.00  0.00     0.170 HD
BRANCH  13  16
ATOM     16  C   UNL     1     -12.318 -45.217  28.801  1.00  0.00     0.040 A 
ATOM     17  C   UNL     1     -10.620 -45.365  30.537  1.00  0.00    -0.050 A 
ATOM     18  C   UNL     1      -9.908 -46.270  29.739  1.00  0.00     0.003 A 
ATOM     19  C   UNL     1     -11.822 -44.827  30.053  1.00  0.00     0.017 A 
ATOM     20  C   UNL     1     -10.390 -46.644  28.484  1.00  0.00     0.001 A 
ATOM     21  C   UNL     1     -11.592 -46.115  28.012  1.00  0.00     0.014 A 
ATOM     22  C   UNL     1     -10.066 -44.924  31.859  1.00  0.00     0.044 C 
ENDBRANCH  13  16
ENDBRANCH   1  12
BRANCH   8  23
ATOM     23  C   UNL     1     -20.346 -42.026  26.272  1.00  0.00     0.260 C 
ATOM     24  O   UNL     1     -20.743 -40.877  26.461  1.00  0.00    -0.269 OA
BRANCH  23  25
ATOM     25  C   UNL     1     -21.149 -43.161  26.810  1.00  0.00     0.040 A 
ATOM     26  C   UNL     1     -20.629 -43.904  27.876  1.00  0.00     0.014 A 
ATOM     27  C   UNL     1     -22.365 -43.541  26.223  1.00  0.00     0.017 A 
ATOM     28  C   UNL     1     -21.333 -45.002  28.370  1.00  0.00     0.001 A 
ATOM     29  C   UNL     1     -23.084 -44.635  26.726  1.00  0.00    -0.050 A 
ATOM     30  C   UNL     1     -22.554 -45.365  27.797  1.00  0.00     0.003 A 
ATOM     31  C   UNL     1     -24.374 -45.053  26.088  1.00  0.00     0.044 C 
ENDBRANCH  23  25
ENDBRANCH   8  23
TORSDOF 4
ENDMDL
MODEL 3
REMARK VINA RESULT:   -12.546      2.117      3.627
REMARK INTER + INTRA:         -15.177
REMARK INTER:                 -14.615
REMARK INTRA:                  -0.562
REMARK UNBOUND:                 0.302
REMARK SMILES Cc1cccc(C(=O)Nc2ccc3c(c2)CN(C(=O)c2cccc(C)c2)C(=O)C3)c1
REMARK SMILES IDX 10 1 11 2 12 3 13 4 14 5 15 6 16 7 17 8 27 9 28 10 29 11
REMARK SMILES IDX 9 12 7 13 8 14 6 16 2 17 3 18 30 19 4 20 5 21 1 22 18 23
REMARK SMILES IDX 19 24 20 25 21 26 26 27 22 28 24 29 23 30 25 31
REMARK H PARENT 9 15
ROOT
ATOM      1  C   UNL     1     -15.809 -42.912  26.831  1.00  0.00     0.041 A 
ATOM      2  C   UNL     1     -14.822 -42.632  25.878  1.00  0.00     0.026 A 
ATOM      3  C   UNL     1     -13.525 -43.133  26.021  1.00  0.00     0.007 A 
ATOM      4  C   UNL     1     -13.196 -43.908  27.134  1.00  0.00    -0.033 A 
ATOM      5  C   UNL     1     -14.172 -44.191  28.092  1.00  0.00    -0.022 A 
ATOM      6  C   UNL     1     -15.476 -43.697  27.936  1.00  0.00     0.032 A 
ATOM      7  C   UNL     1     -13.795 -45.074  29.248  1.00  0.00     0.164 C 
ATOM      8  N   UNL     1     -12.436 -44.813  29.701  1.00  0.00    -0.274 N 
ATOM      9  C   UNL     1     -11.421 -44.791  28.745  1.00  0.00     0.234 C 
ATOM     10  O   UNL     1     -10.230 -44.982  29.000  1.00  0.00    -0.274 OA
ATOM     11  C   UNL     1     -11.825 -44.505  27.303  1.00  0.00     0.136 C 
ENDROOT
BRANCH   1  12
ATOM     12  N   UNL     1     -17.092 -42.370  26.607  1.00  0.00    -0.322 N 
ATOM     13  C   UNL     1     -17.873 -42.502  25.473  1.00  0.00     0.255 C 
ATOM     14  O   UNL     1     -17.562 -43.059  24.427  1.00  0.00    -0.269 OA
ATOM     15  H   UNL     1     -17.443 -41.761  27.334  1.00  0.00     0.170 HD
BRANCH  13  16
ATOM     16  C   UNL     1     -19.210 -41.848  25.558  1.00  0.00     0.040 A 
ATOM     17  C   UNL     1     -21.148 -40.803  24.524  1.00  0.00    -0.050 A 
ATOM     18  C   UNL     1     -21.704 -40.616  25.796  1.00  0.00     0.003 A 
ATOM     19  C   UNL     1     -19.888 -41.408  24.412  1.00  0.00     0.017 A 
ATOM     20  C   UNL     1     -21.022 -41.036  26.939  1.00  0.00     0.001 A 
ATOM     21  C   UNL     1     -19.775 -41.648  26.822  1.00  0.00     0.014 A 
ATOM     22  C   UNL     1     -21.860 -40.296  23.305  1.00  0.00     0.044 C 
ENDBRANCH  13  16
ENDBRANCH   1  12
BRANCH   8  23
ATOM     23  C   UNL     1     -12.164 -45.229  31.006  1.00  0.00     0.260 C 
ATOM     24  O   UNL     1     -12.387 -46.375  31.396  1.00  0.00    -0.269 OA
BRANCH  23  25
ATOM     25  C   UNL     1     -11.606 -44.238  31.969  1.00  0.00     0.040 A 
ATOM     26  C   UNL     1     -12.484 -43.353  32.604  1.00  0.00     0.014 A 
ATOM     27  C   UNL     1     -10.225 -44.127  32.188  1.00  0.00     0.017 A 
ATOM     28  C   UNL     1     -11.988 -42.381  33.473  1.00  0.00     0.001 A 
ATOM     29  C   UNL     1      -9.723 -43.162  33.074  1.00  0.00    -0.050 A 
ATOM     30  C   UNL     1     -10.615 -42.286  33.706  1.00  0.00     0.003 A 
ATOM     31  C   UNL     1      -8.246 -43.031  33.294  1.00  0.00     0.044 C 
ENDBRANCH  23  25
ENDBRANCH   8  23
TORSDOF 4
ENDMDL
MODEL 4
REMARK VINA RESULT:   -12.488      3.163     10.331
REMARK INTER + INTRA:         -15.105
REMARK INTER:                 -14.586
REMARK INTRA:                  -0.519
REMARK UNBOUND:                 0.302
REMARK SMILES Cc1cccc(C(=O)Nc2ccc3c(c2)CN(C(=O)c2cccc(C)c2)C(=O)C3)c1
REMARK SMILES IDX 10 1 11 2 12 3 13 4 14 5 15 6 16 7 17 8 27 9 28 10 29 11
REMARK SMILES IDX 9 12 7 13 8 14 6 16 2 17 3 18 30 19 4 20 5 21 1 22 18 23
REMARK SMILES IDX 19 24 20 25 21 26 26 27 22 28 24 29 23 30 25 31
REMARK H PARENT 9 15
ROOT
ATOM      1  C   UNL     1     -14.690 -43.827  26.636  1.00  0.00     0.041 A 
ATOM      2  C   UNL     1     -14.186 -43.978  25.338  1.00  0.00     0.026 A 
ATOM      3  C   UNL     1     -14.902 -43.510  24.232  1.00  0.00     0.007 A 
ATOM      4  C   UNL     1     -16.143 -42.899  24.413  1.00  0.00    -0.033 A 
ATOM      5  C   UNL     1     -16.657 -42.747  25.703  1.00  0.00    -0.022 A 
ATOM      6  C   UNL     1     -15.928 -43.206  26.810  1.00  0.00     0.032 A 
ATOM      7  C   UNL     1     -17.971 -42.036  25.863  1.00  0.00     0.164 C 
ATOM      8  N   UNL     1     -18.893 -42.366  24.785  1.00  0.00    -0.274 N 
ATOM      9  C   UNL     1     -18.431 -42.261  23.474  1.00  0.00     0.234 C 
ATOM     10  O   UNL     1     -19.165 -42.114  22.495  1.00  0.00    -0.274 OA
ATOM     11  C   UNL     1     -16.925 -42.341  23.256  1.00  0.00     0.136 C 
ENDROOT
BRANCH   1  12
ATOM     12  N   UNL     1     -13.902 -44.325  27.694  1.00  0.00    -0.322 N 
ATOM     13  C   UNL     1     -13.130 -45.474  27.698  1.00  0.00     0.255 C 
ATOM     14  O   UNL     1     -13.046 -46.306  26.803  1.00  0.00    -0.269 OA
ATOM     15  H   UNL     1     -13.967 -43.817  28.566  1.00  0.00     0.170 HD
BRANCH  13  16
ATOM     16  C   UNL     1     -12.369 -45.709  28.958  1.00  0.00     0.040 A 
ATOM     17  C   UNL     1     -10.313 -46.229  30.148  1.00  0.00    -0.050 A 
ATOM     18  C   UNL     1     -11.014 -46.154  31.358  1.00  0.00     0.003 A 
ATOM     19  C   UNL     1     -11.003 -46.021  28.945  1.00  0.00     0.017 A 
ATOM     20  C   UNL     1     -12.379 -45.862  31.373  1.00  0.00     0.001 A 
ATOM     21  C   UNL     1     -13.058 -45.644  30.174  1.00  0.00     0.014 A 
ATOM     22  C   UNL     1      -8.859 -46.601  30.137  1.00  0.00     0.044 C 
ENDBRANCH  13  16
ENDBRANCH   1  12
BRANCH   8  23
ATOM     23  C   UNL     1     -20.239 -42.137  25.077  1.00  0.00     0.260 C 
ATOM     24  O   UNL     1     -20.768 -41.034  24.946  1.00  0.00    -0.269 OA
BRANCH  23  25
ATOM     25  C   UNL     1     -21.060 -43.270  25.594  1.00  0.00     0.040 A 
ATOM     26  C   UNL     1     -21.650 -43.149  26.857  1.00  0.00     0.014 A 
ATOM     27  C   UNL     1     -21.184 -44.470  24.878  1.00  0.00     0.017 A 
ATOM     28  C   UNL     1     -22.383 -44.210  27.388  1.00  0.00     0.001 A 
ATOM     29  C   UNL     1     -21.933 -45.533  25.402  1.00  0.00    -0.050 A 
ATOM     30  C   UNL     1     -22.522 -45.396  26.665  1.00  0.00     0.003 A 
ATOM     31  C   UNL     1     -22.050 -46.823  24.647  1.00  0.00     0.044 C 
ENDBRANCH  23  25
ENDBRANCH   8  23
TORSDOF 4
ENDMDL
MODEL 5
REMARK VINA RESULT:   -12.390      2.807     10.350
REMARK INTER + INTRA:         -14.985
REMARK INTER:                 -14.413
REMARK INTRA:                  -0.572
REMARK UNBOUND:                 0.302
REMARK SMILES Cc1cccc(C(=O)Nc2ccc3c(c2)CN(C(=O)c2cccc(C)c2)C(=O)C3)c1
REMARK SMILES IDX 10 1 11 2 12 3 13 4 14 5 15 6 16 7 17 8 27 9 28 10 29 11
REMARK SMILES IDX 9 12 7 13 8 14 6 16 2 17 3 18 30 19 4 20 5 21 1 22 18 23
REMARK SMILES IDX 19 24 20 25 21 26 26 27 22 28 24 29 23 30 25 31
REMARK H PARENT 9 15
ROOT
ATOM      1  C   UNL     1     -14.317 -43.424  26.592  1.00  0.00     0.041 A 
ATOM      2  C   UNL     1     -13.802 -43.122  25.325  1.00  0.00     0.026 A 
ATOM      3  C   UNL     1     -14.637 -42.655  24.306  1.00  0.00     0.007 A 
ATOM      4  C   UNL     1     -16.004 -42.502  24.539  1.00  0.00    -0.033 A 
ATOM      5  C   UNL     1     -16.528 -42.805  25.798  1.00  0.00    -0.022 A 
ATOM      6  C   UNL     1     -15.684 -43.259  26.822  1.00  0.00     0.032 A 
ATOM      7  C   UNL     1     -17.995 -42.576  26.028  1.00  0.00     0.164 C 
ATOM      8  N   UNL     1     -18.782 -42.917  24.851  1.00  0.00    -0.274 N 
ATOM      9  C   UNL     1     -18.386 -42.388  23.624  1.00  0.00     0.234 C 
ATOM     10  O   UNL     1     -19.138 -42.252  22.657  1.00  0.00    -0.274 OA
ATOM     11  C   UNL     1     -16.930 -41.960  23.485  1.00  0.00     0.136 C 
ENDROOT
BRANCH   1  12
ATOM     12  N   UNL     1     -13.405 -43.886  27.564  1.00  0.00    -0.322 N 
ATOM     13  C   UNL     1     -12.832 -45.143  27.647  1.00  0.00     0.255 C 
ATOM     14  O   UNL     1     -13.068 -46.107  26.929  1.00  0.00    -0.269 OA
ATOM     15  H   UNL     1     -13.205 -43.244  28.318  1.00  0.00     0.170 HD
BRANCH  13  16
ATOM     16  C   UNL     1     -11.864 -45.314  28.767  1.00  0.00     0.040 A 
ATOM     17  C   UNL     1     -11.012 -44.716  30.966  1.00  0.00    -0.050 A 
ATOM     18  C   UNL     1     -10.004 -45.678  30.818  1.00  0.00     0.003 A 
ATOM     19  C   UNL     1     -11.933 -44.527  29.925  1.00  0.00     0.017 A 
ATOM     20  C   UNL     1      -9.922 -46.449  29.658  1.00  0.00     0.001 A 
ATOM     21  C   UNL     1     -10.847 -46.266  28.631  1.00  0.00     0.014 A 
ATOM     22  C   UNL     1     -11.058 -43.850  32.190  1.00  0.00     0.044 C 
ENDBRANCH  13  16
ENDBRANCH   1  12
BRANCH   8  23
ATOM     23  C   UNL     1     -20.131 -43.175  25.104  1.00  0.00     0.260 C 
ATOM     24  O   UNL     1     -20.607 -44.309  25.072  1.00  0.00    -0.269 OA
BRANCH  23  25
ATOM     25  C   UNL     1     -21.034 -42.025  25.398  1.00  0.00     0.040 A 
ATOM     26  C   UNL     1     -21.183 -41.613  26.727  1.00  0.00     0.014 A 
ATOM     27  C   UNL     1     -21.787 -41.408  24.388  1.00  0.00     0.017 A 
ATOM     28  C   UNL     1     -22.057 -40.573  27.040  1.00  0.00     0.001 A 
ATOM     29  C   UNL     1     -22.655 -40.352  24.697  1.00  0.00    -0.050 A 
ATOM     30  C   UNL     1     -22.790 -39.946  26.031  1.00  0.00     0.003 A 
ATOM     31  C   UNL     1     -23.474 -39.704  23.621  1.00  0.00     0.044 C 
ENDBRANCH  23  25
ENDBRANCH   8  23
TORSDOF 4
ENDMDL
MODEL 6
REMARK VINA RESULT:   -12.318      1.319      2.134
REMARK INTER + INTRA:         -14.896
REMARK INTER:                 -14.601
REMARK INTRA:                  -0.295
REMARK UNBOUND:                 0.302
REMARK SMILES Cc1cccc(C(=O)Nc2ccc3c(c2)CN(C(=O)c2cccc(C)c2)C(=O)C3)c1
REMARK SMILES IDX 10 1 11 2 12 3 13 4 14 5 15 6 16 7 17 8 27 9 28 10 29 11
REMARK SMILES IDX 9 12 7 13 8 14 6 16 2 17 3 18 30 19 4 20 5 21 1 22 18 23
REMARK SMILES IDX 19 24 20 25 21 26 26 27 22 28 24 29 23 30 25 31
REMARK H PARENT 9 15
ROOT
ATOM      1  C   UNL     1     -14.133 -44.158  26.480  1.00  0.00     0.041 A 
ATOM      2  C   UNL     1     -14.018 -45.540  26.280  1.00  0.00     0.026 A 
ATOM      3  C   UNL     1     -13.048 -46.283  26.959  1.00  0.00     0.007 A 
ATOM      4  C   UNL     1     -12.168 -45.647  27.835  1.00  0.00    -0.033 A 
ATOM      5  C   UNL     1     -12.272 -44.269  28.039  1.00  0.00    -0.022 A 
ATOM      6  C   UNL     1     -13.256 -43.530  27.366  1.00  0.00     0.032 A 
ATOM      7  C   UNL     1     -11.342 -43.628  29.030  1.00  0.00     0.164 C 
ATOM      8  N   UNL     1     -10.014 -44.222  28.982  1.00  0.00    -0.274 N 
ATOM      9  C   UNL     1      -9.916 -45.612  29.040  1.00  0.00     0.234 C 
ATOM     10  O   UNL     1      -8.906 -46.217  29.405  1.00  0.00    -0.274 OA
ATOM     11  C   UNL     1     -11.141 -46.417  28.619  1.00  0.00     0.136 C 
ENDROOT
BRANCH   1  12
ATOM     12  N   UNL     1     -15.140 -43.485  25.758  1.00  0.00    -0.322 N 
ATOM     13  C   UNL     1     -15.282 -43.414  24.383  1.00  0.00     0.255 C 
ATOM     14  O   UNL     1     -14.517 -43.867  23.540  1.00  0.00    -0.269 OA
ATOM     15  H   UNL     1     -15.786 -42.939  26.311  1.00  0.00     0.170 HD
BRANCH  13  16
ATOM     16  C   UNL     1     -16.483 -42.662  23.919  1.00  0.00     0.040 A 
ATOM     17  C   UNL     1     -18.801 -41.971  24.172  1.00  0.00    -0.050 A 
ATOM     18  C   UNL     1     -18.697 -41.243  22.980  1.00  0.00     0.003 A 
ATOM     19  C   UNL     1     -17.690 -42.694  24.631  1.00  0.00     0.017 A 
ATOM     20  C   UNL     1     -17.501 -41.226  22.260  1.00  0.00     0.001 A 
ATOM     21  C   UNL     1     -16.396 -41.937  22.726  1.00  0.00     0.014 A 
ATOM     22  C   UNL     1     -20.106 -42.032  24.909  1.00  0.00     0.044 C 
ENDBRANCH  13  16
ENDBRANCH   1  12
BRANCH   8  23
ATOM     23  C   UNL     1      -8.996 -43.423  29.506  1.00  0.00     0.260 C 
ATOM     24  O   UNL     1      -8.214 -42.793  28.795  1.00  0.00    -0.269 OA
BRANCH  23  25
ATOM     25  C   UNL     1      -8.837 -43.352  30.987  1.00  0.00     0.040 A 
ATOM     26  C   UNL     1      -9.972 -43.128  31.774  1.00  0.00     0.014 A 
ATOM     27  C   UNL     1      -7.573 -43.428  31.592  1.00  0.00     0.017 A 
ATOM     28  C   UNL     1      -9.848 -43.007  33.158  1.00  0.00     0.001 A 
ATOM     29  C   UNL     1      -7.446 -43.323  32.984  1.00  0.00    -0.050 A 
ATOM     30  C   UNL     1      -8.592 -43.103  33.759  1.00  0.00     0.003 A 
ATOM     31  C   UNL     1      -6.094 -43.385  33.629  1.00  0.00     0.044 C 
ENDBRANCH  23  25
ENDBRANCH   8  23
TORSDOF 4
ENDMDL
MODEL 7
REMARK VINA RESULT:   -12.252      3.781     11.854
REMARK INTER + INTRA:         -14.814
REMARK INTER:                 -14.798
REMARK INTRA:                  -0.016
REMARK UNBOUND:                 0.302
REMARK SMILES Cc1cccc(C(=O)Nc2ccc3c(c2)CN(C(=O)c2cccc(C)c2)C(=O)C3)c1
REMARK SMILES IDX 10 1 11 2 12 3 13 4 14 5 15 6 16 7 17 8 27 9 28 10 29 11
REMARK SMILES IDX 9 12 7 13 8 14 6 16 2 17 3 18 30 19 4 20 5 21 1 22 18 23
REMARK SMILES IDX 19 24 20 25 21 26 26 27 22 28 24 29 23 30 25 31
REMARK H PARENT 9 15
ROOT
ATOM      1  C   UNL     1     -16.496 -42.815  26.656  1.00  0.00     0.041 A 
ATOM      2  C   UNL     1     -17.440 -42.394  27.601  1.00  0.00     0.026 A 
ATOM      3  C   UNL     1     -18.702 -41.944  27.200  1.00  0.00     0.007 A 
ATOM      4  C   UNL     1     -19.026 -41.894  25.844  1.00  0.00    -0.033 A 
ATOM      5  C   UNL     1     -18.090 -42.309  24.894  1.00  0.00    -0.022 A 
ATOM      6  C   UNL     1     -16.830 -42.772  25.302  1.00  0.00     0.032 A 
ATOM      7  C   UNL     1     -18.495 -42.292  23.447  1.00  0.00     0.164 C 
ATOM      8  N   UNL     1     -19.331 -41.141  23.137  1.00  0.00    -0.274 N 
ATOM      9  C   UNL     1     -20.429 -40.891  23.960  1.00  0.00     0.234 C 
ATOM     10  O   UNL     1     -21.416 -40.239  23.612  1.00  0.00    -0.274 OA
ATOM     11  C   UNL     1     -20.387 -41.461  25.373  1.00  0.00     0.136 C 
ENDROOT
BRANCH   1  12
ATOM     12  N   UNL     1     -15.249 -43.256  27.146  1.00  0.00    -0.322 N 
ATOM     13  C   UNL     1     -14.351 -44.101  26.517  1.00  0.00     0.255 C 
ATOM     14  O   UNL     1     -14.508 -44.675  25.447  1.00  0.00    -0.269 OA
ATOM     15  H   UNL     1     -15.025 -42.975  28.091  1.00  0.00     0.170 HD
BRANCH  13  16
ATOM     16  C   UNL     1     -13.090 -44.345  27.275  1.00  0.00     0.040 A 
ATOM     17  C   UNL     1     -10.997 -43.576  28.245  1.00  0.00    -0.050 A 
ATOM     18  C   UNL     1     -10.741 -44.881  28.685  1.00  0.00     0.003 A 
ATOM     19  C   UNL     1     -12.171 -43.317  27.523  1.00  0.00     0.017 A 
ATOM     20  C   UNL     1     -11.646 -45.911  28.422  1.00  0.00     0.001 A 
ATOM     21  C   UNL     1     -12.818 -45.645  27.714  1.00  0.00     0.014 A 
ATOM     22  C   UNL     1      -9.991 -42.488  28.481  1.00  0.00     0.044 C 
ENDBRANCH  13  16
ENDBRANCH   1  12
BRANCH   8  23
ATOM     23  C   UNL     1     -19.371 -40.794  21.785  1.00  0.00     0.260 C 
ATOM     24  O   UNL     1     -18.497 -40.115  21.248  1.00  0.00    -0.269 OA
BRANCH  23  25
ATOM     25  C   UNL     1     -20.534 -41.244  20.968  1.00  0.00     0.040 A 
ATOM     26  C   UNL     1     -20.867 -42.603  20.966  1.00  0.00     0.014 A 
ATOM     27  C   UNL     1     -21.243 -40.352  20.149  1.00  0.00     0.017 A 
ATOM     28  C   UNL     1     -21.919 -43.063  20.174  1.00  0.00     0.001 A 
ATOM     29  C   UNL     1     -22.311 -40.807  19.363  1.00  0.00    -0.050 A 
ATOM     30  C   UNL     1     -22.636 -42.169  19.376  1.00  0.00     0.003 A 
ATOM     31  C   UNL     1     -23.056 -39.857  18.474  1.00  0.00     0.044 C 
ENDBRANCH  23  25
ENDBRANCH   8  23
TORSDOF 4
ENDMDL
MODEL 8
REMARK VINA RESULT:   -12.002      3.341      6.402
REMARK INTER + INTRA:         -14.505
REMARK INTER:                 -14.313
REMARK INTRA:                  -0.192
REMARK UNBOUND:                 0.302
REMARK SMILES Cc1cccc(C(=O)Nc2ccc3c(c2)CN(C(=O)c2cccc(C)c2)C(=O)C3)c1
REMARK SMILES IDX 10 1 11 2 12 3 13 4 14 5 15 6 16 7 17 8 27 9 28 10 29 11
REMARK SMILES IDX 9 12 7 13 8 14 6 16 2 17 3 18 30 19 4 20 5 21 1 22 18 23
REMARK SMILES IDX 19 24 20 25 21 26 26 27 22 28 24 29 23 30 25 31
REMARK H PARENT 9 15
ROOT
ATOM      1  C   UNL     1     -18.616 -42.033  24.894  1.00  0.00     0.041 A 
ATOM      2  C   UNL     1     -19.306 -41.945  26.110  1.00  0.00     0.026 A 
ATOM      3  C   UNL     1     -18.656 -42.193  27.322  1.00  0.00     0.007 A 
ATOM      4  C   UNL     1     -17.307 -42.552  27.329  1.00  0.00    -0.033 A 
ATOM      5  C   UNL     1     -16.611 -42.647  26.122  1.00  0.00    -0.022 A 
ATOM      6  C   UNL     1     -17.265 -42.383  24.909  1.00  0.00     0.032 A 
ATOM      7  C   UNL     1     -15.148 -42.982  26.173  1.00  0.00     0.164 C 
ATOM      8  N   UNL     1     -14.857 -43.954  27.218  1.00  0.00    -0.274 N 
ATOM      9  C   UNL     1     -15.352 -43.707  28.498  1.00  0.00     0.234 C 
ATOM     10  O   UNL     1     -14.875 -44.191  29.526  1.00  0.00    -0.274 OA
ATOM     11  C   UNL     1     -16.559 -42.783  28.613  1.00  0.00     0.136 C 
ENDROOT
BRANCH   1  12
ATOM     12  N   UNL     1     -19.347 -41.764  23.718  1.00  0.00    -0.322 N 
ATOM     13  C   UNL     1     -18.867 -41.232  22.535  1.00  0.00     0.255 C 
ATOM     14  O   UNL     1     -17.729 -40.833  22.316  1.00  0.00    -0.269 OA
ATOM     15  H   UNL     1     -20.345 -41.914  23.778  1.00  0.00     0.170 HD
BRANCH  13  16
ATOM     16  C   UNL     1     -19.882 -41.108  21.450  1.00  0.00     0.040 A 
ATOM     17  C   UNL     1     -21.058 -39.813  19.760  1.00  0.00    -0.050 A 
ATOM     18  C   UNL     1     -21.813 -40.949  19.439  1.00  0.00     0.003 A 
ATOM     19  C   UNL     1     -20.100 -39.896  20.781  1.00  0.00     0.017 A 
ATOM     20  C   UNL     1     -21.610 -42.152  20.117  1.00  0.00     0.001 A 
ATOM     21  C   UNL     1     -20.649 -42.232  21.124  1.00  0.00     0.014 A 
ATOM     22  C   UNL     1     -21.322 -38.509  19.068  1.00  0.00     0.044 C 
ENDBRANCH  13  16
ENDBRANCH   1  12
BRANCH   8  23
ATOM     23  C   UNL     1     -13.659 -44.652  27.050  1.00  0.00     0.260 C 
ATOM     24  O   UNL     1     -13.592 -45.715  26.432  1.00  0.00    -0.269 OA
BRANCH  23  25
ATOM     25  C   UNL     1     -12.419 -44.100  27.666  1.00  0.00     0.040 A 
ATOM     26  C   UNL     1     -11.991 -42.824  27.284  1.00  0.00     0.014 A 
ATOM     27  C   UNL     1     -11.641 -44.860  28.553  1.00  0.00     0.017 A 
ATOM     28  C   UNL     1     -10.808 -42.300  27.805  1.00  0.00     0.001 A 
ATOM     29  C   UNL     1     -10.460 -44.330  29.091  1.00  0.00    -0.050 A 
ATOM     30  C   UNL     1     -10.047 -43.050  28.703  1.00  0.00     0.003 A 
ATOM     31  C   UNL     1      -9.618 -45.149  30.024  1.00  0.00     0.044 C 
ENDBRANCH  23  25
ENDBRANCH   8  23
TORSDOF 4
ENDMDL
MODEL 9
REMARK VINA RESULT:   -11.665      1.880      2.629
REMARK INTER + INTRA:         -14.090
REMARK INTER:                 -15.628
REMARK INTRA:                   1.538
REMARK UNBOUND:                 0.302
REMARK SMILES Cc1cccc(C(=O)Nc2ccc3c(c2)CN(C(=O)c2cccc(C)c2)C(=O)C3)c1
REMARK SMILES IDX 10 1 11 2 12 3 13 4 14 5 15 6 16 7 17 8 27 9 28 10 29 11
REMARK SMILES IDX 9 12 7 13 8 14 6 16 2 17 3 18 30 19 4 20 5 21 1 22 18 23
REMARK SMILES IDX 19 24 20 25 21 26 26 27 22 28 24 29 23 30 25 31
REMARK H PARENT 9 15
ROOT
ATOM      1  C   UNL     1     -14.671 -44.194  26.688  1.00  0.00     0.041 A 
ATOM      2  C   UNL     1     -13.845 -45.197  26.164  1.00  0.00     0.026 A 
ATOM      3  C   UNL     1     -13.025 -45.959  27.001  1.00  0.00     0.007 A 
ATOM      4  C   UNL     1     -13.009 -45.712  28.374  1.00  0.00    -0.033 A 
ATOM      5  C   UNL     1     -13.826 -44.712  28.906  1.00  0.00    -0.022 A 
ATOM      6  C   UNL     1     -14.658 -43.960  28.064  1.00  0.00     0.032 A 
ATOM      7  C   UNL     1     -13.823 -44.513  30.395  1.00  0.00     0.164 C 
ATOM      8  N   UNL     1     -12.491 -44.690  30.957  1.00  0.00    -0.274 N 
ATOM      9  C   UNL     1     -11.783 -45.840  30.611  1.00  0.00     0.234 C 
ATOM     10  O   UNL     1     -10.866 -46.314  31.285  1.00  0.00    -0.274 OA
ATOM     11  C   UNL     1     -12.176 -46.539  29.315  1.00  0.00     0.136 C 
ENDROOT
BRANCH   1  12
ATOM     12  N   UNL     1     -15.469 -43.475  25.774  1.00  0.00    -0.322 N 
ATOM     13  C   UNL     1     -15.215 -43.253  24.431  1.00  0.00     0.255 C 
ATOM     14  O   UNL     1     -14.214 -43.584  23.808  1.00  0.00    -0.269 OA
ATOM     15  H   UNL     1     -16.279 -43.015  26.166  1.00  0.00     0.170 HD
BRANCH  13  16
ATOM     16  C   UNL     1     -16.278 -42.491  23.714  1.00  0.00     0.040 A 
ATOM     17  C   UNL     1     -18.615 -41.989  23.266  1.00  0.00    -0.050 A 
ATOM     18  C   UNL     1     -18.212 -41.037  22.321  1.00  0.00     0.003 A 
ATOM     19  C   UNL     1     -17.639 -42.728  23.951  1.00  0.00     0.017 A 
ATOM     20  C   UNL     1     -16.857 -40.814  22.070  1.00  0.00     0.001 A 
ATOM     21  C   UNL     1     -15.890 -41.542  22.762  1.00  0.00     0.014 A 
ATOM     22  C   UNL     1     -20.073 -42.265  23.488  1.00  0.00     0.044 C 
ENDBRANCH  13  16
ENDBRANCH   1  12
BRANCH   8  23
ATOM     23  C   UNL     1     -12.299 -44.095  32.205  1.00  0.00     0.260 C 
ATOM     24  O   UNL     1     -13.225 -43.879  32.987  1.00  0.00    -0.269 OA
BRANCH  23  25
ATOM     25  C   UNL     1     -10.920 -43.681  32.593  1.00  0.00     0.040 A 
ATOM     26  C   UNL     1     -10.761 -42.818  33.683  1.00  0.00     0.014 A 
ATOM     27  C   UNL     1      -9.799 -44.075  31.847  1.00  0.00     0.017 A 
ATOM     28  C   UNL     1      -9.488 -42.374  34.041  1.00  0.00     0.001 A 
ATOM     29  C   UNL     1      -8.516 -43.644  32.213  1.00  0.00    -0.050 A 
ATOM     30  C   UNL     1      -8.372 -42.784  33.309  1.00  0.00     0.003 A 
ATOM     31  C   UNL     1      -7.321 -44.050  31.404  1.00  0.00     0.044 C 
ENDBRANCH  23  25
ENDBRANCH   8  23
TORSDOF 4
ENDMDL
