MODEL 1
REMARK VINA RESULT:    -9.727      0.000      0.000
REMARK INTER + INTRA:         -10.012
REMARK INTER:                 -10.012
REMARK INTRA:                   0.000
REMARK UNBOUND:                 0.000
REMARK SMILES CC1=C[C@@H]2Cc3[nH]c4cc(Cl)ccc4c(=N)c3[C@H](C1)C2
REMARK SMILES IDX 7 1 6 2 17 3 15 4 14 5 13 6 12 7 10 8 11 9 9 10 8 11 18 12
REMARK SMILES IDX 19 13 2 14 1 15 3 16 4 17 5 18 20 19 16 21
REMARK H PARENT 7 20 16 22
ROOT
ATOM      1  N   UNL     1     -13.465 -45.059  26.830  1.00  0.00    -0.358 N 
ATOM      2  C   UNL     1     -13.133 -45.329  28.138  1.00  0.00     0.021 A 
ATOM      3  C   UNL     1     -13.840 -44.860  29.188  1.00  0.00     0.000 A 
ATOM      4  C   UNL     1     -15.037 -43.992  28.924  1.00  0.00     0.068 A 
ATOM      5  C   UNL     1     -15.331 -43.639  27.497  1.00  0.00     0.023 A 
ATOM      6  C   UNL     1     -16.386 -42.785  27.141  1.00  0.00     0.014 A 
ATOM      7  C   UNL     1     -16.628 -42.491  25.796  1.00  0.00     0.021 A 
ATOM      8  C   UNL     1     -15.822 -43.050  24.808  1.00  0.00     0.043 A 
ATOM      9  Cl  UNL     1     -16.129 -42.694  23.153  1.00  0.00    -0.084 Cl
ATOM     10  C   UNL     1     -14.769 -43.895  25.150  1.00  0.00     0.047 A 
ATOM     11  C   UNL     1     -14.506 -44.184  26.495  1.00  0.00     0.049 A 
ATOM     12  C   UNL     1     -13.497 -45.182  30.634  1.00  0.00     0.028 C 
ATOM     13  C   UNL     1     -12.689 -44.031  31.279  1.00  0.00     0.039 C 
ATOM     14  C   UNL     1     -11.218 -44.031  30.900  1.00  0.00    -0.076 C 
ATOM     15  C   UNL     1     -10.433 -42.821  31.316  1.00  0.00     0.039 C 
ATOM     16  C   UNL     1     -10.663 -45.054  30.223  1.00  0.00    -0.024 C 
ATOM     17  C   UNL     1     -11.439 -46.292  29.819  1.00  0.00     0.018 C 
ATOM     18  C   UNL     1     -11.897 -46.194  28.350  1.00  0.00     0.062 C 
ATOM     19  C   UNL     1     -12.670 -46.472  30.712  1.00  0.00     0.017 C 
ATOM     20  H   UNL     1     -12.797 -45.313  26.111  1.00  0.00     0.166 HD
ENDROOT
BRANCH   4  21
ATOM     21  N   UNL     1     -15.753 -43.586  29.929  1.00  0.00    -0.300 NA
ATOM     22  H   UNL     1     -15.565 -44.096  30.789  1.00  0.00     0.188 HD
ENDBRANCH   4  21
TORSDOF 1
ENDMDL
MODEL 2
REMARK VINA RESULT:    -9.525      2.049      3.169
REMARK INTER + INTRA:          -9.803
REMARK INTER:                  -9.803
REMARK INTRA:                   0.000
REMARK UNBOUND:                 0.000
REMARK SMILES CC1=C[C@@H]2Cc3[nH]c4cc(Cl)ccc4c(=N)c3[C@H](C1)C2
REMARK SMILES IDX 7 1 6 2 17 3 15 4 14 5 13 6 12 7 10 8 11 9 9 10 8 11 18 12
REMARK SMILES IDX 19 13 2 14 1 15 3 16 4 17 5 18 20 19 16 21
REMARK H PARENT 7 20 16 22
ROOT
ATOM      1  N   UNL     1     -10.761 -43.238  27.863  1.00  0.00    -0.358 N 
ATOM      2  C   UNL     1     -10.137 -43.861  28.921  1.00  0.00     0.021 A 
ATOM      3  C   UNL     1     -10.731 -44.820  29.663  1.00  0.00     0.000 A 
ATOM      4  C   UNL     1     -12.142 -45.218  29.335  1.00  0.00     0.068 A 
ATOM      5  C   UNL     1     -12.832 -44.468  28.237  1.00  0.00     0.023 A 
ATOM      6  C   UNL     1     -14.169 -44.715  27.888  1.00  0.00     0.014 A 
ATOM      7  C   UNL     1     -14.769 -43.995  26.851  1.00  0.00     0.021 A 
ATOM      8  C   UNL     1     -14.037 -43.034  26.159  1.00  0.00     0.043 A 
ATOM      9  Cl  UNL     1     -14.776 -42.159  24.876  1.00  0.00    -0.084 Cl
ATOM     10  C   UNL     1     -12.710 -42.778  26.499  1.00  0.00     0.047 A 
ATOM     11  C   UNL     1     -12.103 -43.479  27.548  1.00  0.00     0.049 A 
ATOM     12  C   UNL     1     -10.036 -45.534  30.811  1.00  0.00     0.028 C 
ATOM     13  C   UNL     1     -10.431 -44.910  32.170  1.00  0.00     0.039 C 
ATOM     14  C   UNL     1      -9.692 -43.621  32.488  1.00  0.00    -0.076 C 
ATOM     15  C   UNL     1     -10.186 -42.858  33.681  1.00  0.00     0.039 C 
ATOM     16  C   UNL     1      -8.664 -43.192  31.732  1.00  0.00    -0.024 C 
ATOM     17  C   UNL     1      -8.138 -43.967  30.538  1.00  0.00     0.018 C 
ATOM     18  C   UNL     1      -8.717 -43.403  29.225  1.00  0.00     0.062 C 
ATOM     19  C   UNL     1      -8.513 -45.448  30.650  1.00  0.00     0.017 C 
ATOM     20  H   UNL     1     -10.308 -42.425  27.462  1.00  0.00     0.166 HD
ENDROOT
BRANCH   4  21
ATOM     21  N   UNL     1     -12.696 -46.179  30.010  1.00  0.00    -0.300 NA
ATOM     22  H   UNL     1     -12.061 -46.949  30.211  1.00  0.00     0.188 HD
ENDBRANCH   4  21
TORSDOF 1
ENDMDL
MODEL 3
REMARK VINA RESULT:    -8.920      1.846      2.756
REMARK INTER + INTRA:          -9.181
REMARK INTER:                  -9.181
REMARK INTRA:                   0.000
REMARK UNBOUND:                 0.000
REMARK SMILES CC1=C[C@@H]2Cc3[nH]c4cc(Cl)ccc4c(=N)c3[C@H](C1)C2
REMARK SMILES IDX 7 1 6 2 17 3 15 4 14 5 13 6 12 7 10 8 11 9 9 10 8 11 18 12
REMARK SMILES IDX 19 13 2 14 1 15 3 16 4 17 5 18 20 19 16 21
REMARK H PARENT 7 20 16 22
ROOT
ATOM      1  N   UNL     1     -12.295 -42.766  27.625  1.00  0.00    -0.358 N 
ATOM      2  C   UNL     1     -11.804 -43.615  28.591  1.00  0.00     0.021 A 
ATOM      3  C   UNL     1     -12.027 -44.947  28.582  1.00  0.00     0.000 A 
ATOM      4  C   UNL     1     -12.861 -45.532  27.479  1.00  0.00     0.068 A 
ATOM      5  C   UNL     1     -13.458 -44.581  26.487  1.00  0.00     0.023 A 
ATOM      6  C   UNL     1     -14.303 -45.012  25.453  1.00  0.00     0.014 A 
ATOM      7  C   UNL     1     -14.830 -44.089  24.545  1.00  0.00     0.021 A 
ATOM      8  C   UNL     1     -14.512 -42.739  24.665  1.00  0.00     0.043 A 
ATOM      9  Cl  UNL     1     -15.154 -41.607  23.540  1.00  0.00    -0.084 Cl
ATOM     10  C   UNL     1     -13.678 -42.298  25.691  1.00  0.00     0.047 A 
ATOM     11  C   UNL     1     -13.158 -43.211  26.617  1.00  0.00     0.049 A 
ATOM     12  C   UNL     1     -11.460 -45.894  29.628  1.00  0.00     0.028 C 
ATOM     13  C   UNL     1     -12.513 -46.209  30.717  1.00  0.00     0.039 C 
ATOM     14  C   UNL     1     -12.667 -45.110  31.754  1.00  0.00    -0.076 C 
ATOM     15  C   UNL     1     -13.819 -45.259  32.703  1.00  0.00     0.039 C 
ATOM     16  C   UNL     1     -11.821 -44.062  31.804  1.00  0.00    -0.024 C 
ATOM     17  C   UNL     1     -10.639 -43.912  30.867  1.00  0.00     0.018 C 
ATOM     18  C   UNL     1     -10.985 -42.966  29.699  1.00  0.00     0.062 C 
ATOM     19  C   UNL     1     -10.226 -45.273  30.297  1.00  0.00     0.017 C 
ATOM     20  H   UNL     1     -12.218 -41.769  27.790  1.00  0.00     0.166 HD
ENDROOT
BRANCH   4  21
ATOM     21  N   UNL     1     -13.031 -46.820  27.435  1.00  0.00    -0.300 NA
ATOM     22  H   UNL     1     -12.963 -47.202  26.495  1.00  0.00     0.188 HD
ENDBRANCH   4  21
TORSDOF 1
ENDMDL
MODEL 4
REMARK VINA RESULT:    -8.665      4.085      7.120
REMARK INTER + INTRA:          -8.918
REMARK INTER:                  -8.918
REMARK INTRA:                   0.000
REMARK UNBOUND:                 0.000
REMARK SMILES CC1=C[C@@H]2Cc3[nH]c4cc(Cl)ccc4c(=N)c3[C@H](C1)C2
REMARK SMILES IDX 7 1 6 2 17 3 15 4 14 5 13 6 12 7 10 8 11 9 9 10 8 11 18 12
REMARK SMILES IDX 19 13 2 14 1 15 3 16 4 17 5 18 20 19 16 21
REMARK H PARENT 7 20 16 22
ROOT
ATOM      1  N   UNL     1     -11.990 -43.746  32.475  1.00  0.00    -0.358 N 
ATOM      2  C   UNL     1     -12.275 -44.496  31.357  1.00  0.00     0.021 A 
ATOM      3  C   UNL     1     -11.320 -45.049  30.579  1.00  0.00     0.000 A 
ATOM      4  C   UNL     1      -9.878 -44.825  30.936  1.00  0.00     0.068 A 
ATOM      5  C   UNL     1      -9.588 -43.934  32.106  1.00  0.00     0.023 A 
ATOM      6  C   UNL     1      -8.278 -43.608  32.490  1.00  0.00     0.014 A 
ATOM      7  C   UNL     1      -8.056 -42.780  33.593  1.00  0.00     0.021 A 
ATOM      8  C   UNL     1      -9.136 -42.281  34.316  1.00  0.00     0.043 A 
ATOM      9  Cl  UNL     1      -8.858 -41.271  35.680  1.00  0.00    -0.084 Cl
ATOM     10  C   UNL     1     -10.441 -42.595  33.941  1.00  0.00     0.047 A 
ATOM     11  C   UNL     1     -10.677 -43.409  32.826  1.00  0.00     0.049 A 
ATOM     12  C   UNL     1     -11.629 -45.905  29.361  1.00  0.00     0.028 C 
ATOM     13  C   UNL     1     -11.531 -45.073  28.061  1.00  0.00     0.039 C 
ATOM     14  C   UNL     1     -12.751 -44.207  27.797  1.00  0.00    -0.076 C 
ATOM     15  C   UNL     1     -12.625 -43.220  26.675  1.00  0.00     0.039 C 
ATOM     16  C   UNL     1     -13.870 -44.319  28.538  1.00  0.00    -0.024 C 
ATOM     17  C   UNL     1     -14.020 -45.331  29.658  1.00  0.00     0.018 C 
ATOM     18  C   UNL     1     -13.751 -44.672  31.026  1.00  0.00     0.062 C 
ATOM     19  C   UNL     1     -13.042 -46.494  29.468  1.00  0.00     0.017 C 
ATOM     20  H   UNL     1     -12.752 -43.238  32.909  1.00  0.00     0.166 HD
ENDROOT
BRANCH   4  21
ATOM     21  N   UNL     1      -8.957 -45.402  30.223  1.00  0.00    -0.300 NA
ATOM     22  H   UNL     1      -9.094 -46.406  30.126  1.00  0.00     0.188 HD
ENDBRANCH   4  21
TORSDOF 1
ENDMDL
MODEL 5
REMARK VINA RESULT:    -8.453      4.323      8.773
REMARK INTER + INTRA:          -8.700
REMARK INTER:                  -8.700
REMARK INTRA:                   0.000
REMARK UNBOUND:                 0.000
REMARK SMILES CC1=C[C@@H]2Cc3[nH]c4cc(Cl)ccc4c(=N)c3[C@H](C1)C2
REMARK SMILES IDX 7 1 6 2 17 3 15 4 14 5 13 6 12 7 10 8 11 9 9 10 8 11 18 12
REMARK SMILES IDX 19 13 2 14 1 15 3 16 4 17 5 18 20 19 16 21
REMARK H PARENT 7 20 16 22
ROOT
ATOM      1  N   UNL     1     -17.544 -42.266  24.000  1.00  0.00    -0.358 N 
ATOM      2  C   UNL     1     -18.843 -41.840  23.833  1.00  0.00     0.021 A 
ATOM      3  C   UNL     1     -19.667 -41.571  24.868  1.00  0.00     0.000 A 
ATOM      4  C   UNL     1     -19.155 -41.757  26.268  1.00  0.00     0.068 A 
ATOM      5  C   UNL     1     -17.768 -42.303  26.427  1.00  0.00     0.023 A 
ATOM      6  C   UNL     1     -17.212 -42.574  27.687  1.00  0.00     0.014 A 
ATOM      7  C   UNL     1     -15.911 -43.075  27.787  1.00  0.00     0.021 A 
ATOM      8  C   UNL     1     -15.164 -43.302  26.635  1.00  0.00     0.043 A 
ATOM      9  Cl  UNL     1     -13.559 -43.908  26.763  1.00  0.00    -0.084 Cl
ATOM     10  C   UNL     1     -15.707 -43.041  25.378  1.00  0.00     0.047 A 
ATOM     11  C   UNL     1     -17.016 -42.555  25.264  1.00  0.00     0.049 A 
ATOM     12  C   UNL     1     -21.091 -41.070  24.690  1.00  0.00     0.028 C 
ATOM     13  C   UNL     1     -22.105 -42.233  24.808  1.00  0.00     0.039 C 
ATOM     14  C   UNL     1     -22.215 -43.077  23.550  1.00  0.00    -0.076 C 
ATOM     15  C   UNL     1     -23.013 -44.342  23.676  1.00  0.00     0.039 C 
ATOM     16  C   UNL     1     -21.619 -42.711  22.399  1.00  0.00    -0.024 C 
ATOM     17  C   UNL     1     -20.831 -41.424  22.253  1.00  0.00     0.018 C 
ATOM     18  C   UNL     1     -19.319 -41.691  22.394  1.00  0.00     0.062 C 
ATOM     19  C   UNL     1     -21.256 -40.407  23.316  1.00  0.00     0.017 C 
ATOM     20  H   UNL     1     -17.047 -42.596  23.181  1.00  0.00     0.166 HD
ENDROOT
BRANCH   4  21
ATOM     21  N   UNL     1     -19.926 -41.445  27.266  1.00  0.00    -0.300 NA
ATOM     22  H   UNL     1     -19.615 -41.838  28.152  1.00  0.00     0.188 HD
ENDBRANCH   4  21
TORSDOF 1
ENDMDL
MODEL 6
REMARK VINA RESULT:    -8.434      5.973     10.660
REMARK INTER + INTRA:          -8.680
REMARK INTER:                  -8.680
REMARK INTRA:                   0.000
REMARK UNBOUND:                 0.000
REMARK SMILES CC1=C[C@@H]2Cc3[nH]c4cc(Cl)ccc4c(=N)c3[C@H](C1)C2
REMARK SMILES IDX 7 1 6 2 17 3 15 4 14 5 13 6 12 7 10 8 11 9 9 10 8 11 18 12
REMARK SMILES IDX 19 13 2 14 1 15 3 16 4 17 5 18 20 19 16 21
REMARK H PARENT 7 20 16 22
ROOT
ATOM      1  N   UNL     1     -17.987 -40.896  21.785  1.00  0.00    -0.358 N 
ATOM      2  C   UNL     1     -19.242 -40.388  21.534  1.00  0.00     0.021 A 
ATOM      3  C   UNL     1     -20.241 -40.417  22.442  1.00  0.00     0.000 A 
ATOM      4  C   UNL     1     -19.983 -41.042  23.782  1.00  0.00     0.068 A 
ATOM      5  C   UNL     1     -18.637 -41.665  24.004  1.00  0.00     0.023 A 
ATOM      6  C   UNL     1     -18.310 -42.331  25.196  1.00  0.00     0.014 A 
ATOM      7  C   UNL     1     -17.039 -42.890  25.361  1.00  0.00     0.021 A 
ATOM      8  C   UNL     1     -16.096 -42.783  24.343  1.00  0.00     0.043 A 
ATOM      9  Cl  UNL     1     -14.530 -43.462  24.555  1.00  0.00    -0.084 Cl
ATOM     10  C   UNL     1     -16.412 -42.128  23.154  1.00  0.00     0.047 A 
ATOM     11  C   UNL     1     -17.687 -41.579  22.970  1.00  0.00     0.049 A 
ATOM     12  C   UNL     1     -21.619 -39.829  22.182  1.00  0.00     0.028 C 
ATOM     13  C   UNL     1     -22.618 -40.931  21.758  1.00  0.00     0.039 C 
ATOM     14  C   UNL     1     -22.490 -41.344  20.302  1.00  0.00    -0.076 C 
ATOM     15  C   UNL     1     -23.277 -42.554  19.890  1.00  0.00     0.039 C 
ATOM     16  C   UNL     1     -21.705 -40.667  19.442  1.00  0.00    -0.024 C 
ATOM     17  C   UNL     1     -20.924 -39.429  19.839  1.00  0.00     0.018 C 
ATOM     18  C   UNL     1     -19.457 -39.787  20.152  1.00  0.00     0.062 C 
ATOM     19  C   UNL     1     -21.548 -38.771  21.073  1.00  0.00     0.017 C 
ATOM     20  H   UNL     1     -17.347 -40.979  21.003  1.00  0.00     0.166 HD
ENDROOT
BRANCH   4  21
ATOM     21  N   UNL     1     -20.923 -41.021  24.678  1.00  0.00    -0.300 NA
ATOM     22  H   UNL     1     -21.653 -41.710  24.511  1.00  0.00     0.188 HD
ENDBRANCH   4  21
TORSDOF 1
ENDMDL
MODEL 7
REMARK VINA RESULT:    -8.254      4.713      5.785
REMARK INTER + INTRA:          -8.496
REMARK INTER:                  -8.496
REMARK INTRA:                   0.000
REMARK UNBOUND:                 0.000
REMARK SMILES CC1=C[C@@H]2Cc3[nH]c4cc(Cl)ccc4c(=N)c3[C@H](C1)C2
REMARK SMILES IDX 7 1 6 2 17 3 15 4 14 5 13 6 12 7 10 8 11 9 9 10 8 11 18 12
REMARK SMILES IDX 19 13 2 14 1 15 3 16 4 17 5 18 20 19 16 21
REMARK H PARENT 7 20 16 22
ROOT
ATOM      1  N   UNL     1     -11.975 -42.443  31.387  1.00  0.00    -0.358 N 
ATOM      2  C   UNL     1     -11.311 -43.358  30.602  1.00  0.00     0.021 A 
ATOM      3  C   UNL     1     -11.606 -44.676  30.599  1.00  0.00     0.000 A 
ATOM      4  C   UNL     1     -12.697 -45.174  31.503  1.00  0.00     0.068 A 
ATOM      5  C   UNL     1     -13.348 -44.176  32.413  1.00  0.00     0.023 A 
ATOM      6  C   UNL     1     -14.335 -44.544  33.341  1.00  0.00     0.014 A 
ATOM      7  C   UNL     1     -14.920 -43.577  34.163  1.00  0.00     0.021 A 
ATOM      8  C   UNL     1     -14.527 -42.246  34.058  1.00  0.00     0.043 A 
ATOM      9  Cl  UNL     1     -15.258 -41.057  35.064  1.00  0.00    -0.084 Cl
ATOM     10  C   UNL     1     -13.545 -41.870  33.143  1.00  0.00     0.047 A 
ATOM     11  C   UNL     1     -12.938 -42.833  32.326  1.00  0.00     0.049 A 
ATOM     12  C   UNL     1     -10.898 -45.686  29.710  1.00  0.00     0.028 C 
ATOM     13  C   UNL     1      -9.787 -46.425  30.491  1.00  0.00     0.039 C 
ATOM     14  C   UNL     1      -8.507 -45.620  30.643  1.00  0.00    -0.076 C 
ATOM     15  C   UNL     1      -7.477 -46.192  31.572  1.00  0.00     0.039 C 
ATOM     16  C   UNL     1      -8.323 -44.458  29.987  1.00  0.00    -0.024 C 
ATOM     17  C   UNL     1      -9.345 -43.882  29.027  1.00  0.00     0.018 C 
ATOM     18  C   UNL     1     -10.199 -42.803  29.722  1.00  0.00     0.062 C 
ATOM     19  C   UNL     1     -10.270 -44.983  28.499  1.00  0.00     0.017 C 
ATOM     20  H   UNL     1     -11.590 -41.507  31.449  1.00  0.00     0.166 HD
ENDROOT
BRANCH   4  21
ATOM     21  N   UNL     1     -13.022 -46.431  31.462  1.00  0.00    -0.300 NA
ATOM     22  H   UNL     1     -13.377 -46.784  32.348  1.00  0.00     0.188 HD
ENDBRANCH   4  21
TORSDOF 1
ENDMDL
MODEL 8
REMARK VINA RESULT:    -7.880      4.442      6.413
REMARK INTER + INTRA:          -8.111
REMARK INTER:                  -8.111
REMARK INTRA:                   0.000
REMARK UNBOUND:                 0.000
REMARK SMILES CC1=C[C@@H]2Cc3[nH]c4cc(Cl)ccc4c(=N)c3[C@H](C1)C2
REMARK SMILES IDX 7 1 6 2 17 3 15 4 14 5 13 6 12 7 10 8 11 9 9 10 8 11 18 12
REMARK SMILES IDX 19 13 2 14 1 15 3 16 4 17 5 18 20 19 16 21
REMARK H PARENT 7 20 16 22
ROOT
ATOM      1  N   UNL     1     -12.864 -43.805  31.640  1.00  0.00    -0.358 N 
ATOM      2  C   UNL     1     -11.781 -44.318  30.962  1.00  0.00     0.021 A 
ATOM      3  C   UNL     1     -10.506 -44.119  31.358  1.00  0.00     0.000 A 
ATOM      4  C   UNL     1     -10.249 -43.290  32.583  1.00  0.00     0.068 A 
ATOM      5  C   UNL     1     -11.436 -42.670  33.257  1.00  0.00     0.023 A 
ATOM      6  C   UNL     1     -11.308 -41.828  34.372  1.00  0.00     0.014 A 
ATOM      7  C   UNL     1     -12.444 -41.278  34.971  1.00  0.00     0.021 A 
ATOM      8  C   UNL     1     -13.707 -41.571  34.465  1.00  0.00     0.043 A 
ATOM      9  Cl  UNL     1     -15.104 -40.902  35.213  1.00  0.00    -0.084 Cl
ATOM     10  C   UNL     1     -13.847 -42.403  33.355  1.00  0.00     0.047 A 
ATOM     11  C   UNL     1     -12.714 -42.945  32.734  1.00  0.00     0.049 A 
ATOM     12  C   UNL     1      -9.307 -44.710  30.632  1.00  0.00     0.028 C 
ATOM     13  C   UNL     1      -8.668 -43.669  29.682  1.00  0.00     0.039 C 
ATOM     14  C   UNL     1      -9.415 -43.500  28.370  1.00  0.00    -0.076 C 
ATOM     15  C   UNL     1      -8.974 -42.356  27.506  1.00  0.00     0.039 C 
ATOM     16  C   UNL     1     -10.419 -44.326  28.018  1.00  0.00    -0.024 C 
ATOM     17  C   UNL     1     -10.858 -45.500  28.871  1.00  0.00     0.018 C 
ATOM     18  C   UNL     1     -12.096 -45.130  29.713  1.00  0.00     0.062 C 
ATOM     19  C   UNL     1      -9.731 -45.935  29.812  1.00  0.00     0.017 C 
ATOM     20  H   UNL     1     -13.772 -43.864  31.192  1.00  0.00     0.166 HD
ENDROOT
BRANCH   4  21
ATOM     21  N   UNL     1      -9.027 -43.145  33.000  1.00  0.00    -0.300 NA
ATOM     22  H   UNL     1      -8.376 -42.898  32.257  1.00  0.00     0.188 HD
ENDBRANCH   4  21
TORSDOF 1
ENDMDL
MODEL 9
REMARK VINA RESULT:    -7.724      5.021      9.432
REMARK INTER + INTRA:          -7.950
REMARK INTER:                  -7.950
REMARK INTRA:                   0.000
REMARK UNBOUND:                 0.000
REMARK SMILES CC1=C[C@@H]2Cc3[nH]c4cc(Cl)ccc4c(=N)c3[C@H](C1)C2
REMARK SMILES IDX 7 1 6 2 17 3 15 4 14 5 13 6 12 7 10 8 11 9 9 10 8 11 18 12
REMARK SMILES IDX 19 13 2 14 1 15 3 16 4 17 5 18 20 19 16 21
REMARK H PARENT 7 20 16 22
ROOT
ATOM      1  N   UNL     1     -18.809 -41.698  23.417  1.00  0.00    -0.358 N 
ATOM      2  C   UNL     1     -20.117 -41.349  23.667  1.00  0.00     0.021 A 
ATOM      3  C   UNL     1     -20.637 -41.289  24.912  1.00  0.00     0.000 A 
ATOM      4  C   UNL     1     -19.758 -41.633  26.080  1.00  0.00     0.068 A 
ATOM      5  C   UNL     1     -18.363 -42.094  25.781  1.00  0.00     0.023 A 
ATOM      6  C   UNL     1     -17.476 -42.498  26.791  1.00  0.00     0.014 A 
ATOM      7  C   UNL     1     -16.182 -42.913  26.464  1.00  0.00     0.021 A 
ATOM      8  C   UNL     1     -15.770 -42.920  25.135  1.00  0.00     0.043 A 
ATOM      9  Cl  UNL     1     -14.172 -43.420  24.738  1.00  0.00    -0.084 Cl
ATOM     10  C   UNL     1     -16.643 -42.524  24.123  1.00  0.00     0.047 A 
ATOM     11  C   UNL     1     -17.948 -42.124  24.436  1.00  0.00     0.049 A 
ATOM     12  C   UNL     1     -22.071 -40.873  25.197  1.00  0.00     0.028 C 
ATOM     13  C   UNL     1     -22.976 -42.112  25.396  1.00  0.00     0.039 C 
ATOM     14  C   UNL     1     -23.398 -42.776  24.097  1.00  0.00    -0.076 C 
ATOM     15  C   UNL     1     -24.091 -44.100  24.230  1.00  0.00     0.039 C 
ATOM     16  C   UNL     1     -23.149 -42.209  22.901  1.00  0.00    -0.024 C 
ATOM     17  C   UNL     1     -22.473 -40.860  22.753  1.00  0.00     0.018 C 
ATOM     18  C   UNL     1     -20.971 -41.034  22.447  1.00  0.00     0.062 C 
ATOM     19  C   UNL     1     -22.624 -40.037  24.035  1.00  0.00     0.017 C 
ATOM     20  H   UNL     1     -18.544 -41.873  22.455  1.00  0.00     0.166 HD
ENDROOT
BRANCH   4  21
ATOM     21  N   UNL     1     -20.237 -41.522  27.282  1.00  0.00    -0.300 NA
ATOM     22  H   UNL     1     -20.889 -42.265  27.526  1.00  0.00     0.188 HD
ENDBRANCH   4  21
TORSDOF 1
ENDMDL
