MODEL 1
REMARK VINA RESULT:   -10.012      0.000      0.000
REMARK INTER + INTRA:         -10.986
REMARK INTER:                 -10.890
REMARK INTRA:                  -0.096
REMARK UNBOUND:                -0.096
REMARK SMILES CCC1=C[C@H]2Cc3nc4cc(Cl)ccc4c(N)c3[C@@H](C1)C2
REMARK SMILES IDX 3 1 4 2 5 3 6 4 7 5 8 6 9 7 10 8 11 9 12 10 13 11 14 12
REMARK SMILES IDX 15 13 16 14 18 15 19 16 20 17 21 18 2 19 1 20 17 21
REMARK H PARENT 17 22 17 23
ROOT
ATOM      1  C   UNL     1     -11.067 -44.597  31.050  1.00  0.00    -0.074 C 
ATOM      2  C   UNL     1     -12.138 -44.245  31.786  1.00  0.00    -0.024 C 
ATOM      3  C   UNL     1     -13.457 -44.986  31.738  1.00  0.00     0.018 C 
ATOM      4  C   UNL     1     -14.458 -44.256  30.834  1.00  0.00     0.064 C 
ATOM      5  C   UNL     1     -14.222 -44.472  29.355  1.00  0.00     0.047 A 
ATOM      6  N   UNL     1     -14.966 -43.682  28.545  1.00  0.00    -0.252 NA
ATOM      7  C   UNL     1     -14.889 -43.856  27.222  1.00  0.00     0.074 A 
ATOM      8  C   UNL     1     -15.700 -43.061  26.427  1.00  0.00     0.049 A 
ATOM      9  C   UNL     1     -15.709 -43.192  25.042  1.00  0.00     0.043 A 
ATOM     10  Cl  UNL     1     -16.733 -42.190  24.090  1.00  0.00    -0.084 Cl
ATOM     11  C   UNL     1     -14.902 -44.135  24.425  1.00  0.00     0.021 A 
ATOM     12  C   UNL     1     -14.075 -44.939  25.208  1.00  0.00     0.014 A 
ATOM     13  C   UNL     1     -14.041 -44.810  26.621  1.00  0.00     0.024 A 
ATOM     14  C   UNL     1     -13.202 -45.579  27.478  1.00  0.00     0.046 A 
ATOM     15  C   UNL     1     -13.349 -45.457  28.874  1.00  0.00     0.001 A 
ATOM     16  C   UNL     1     -12.561 -46.319  29.856  1.00  0.00     0.028 C 
ATOM     17  C   UNL     1     -11.133 -45.760  30.076  1.00  0.00     0.039 C 
ATOM     18  C   UNL     1     -13.275 -46.410  31.209  1.00  0.00     0.017 C 
ENDROOT
BRANCH   1  19
ATOM     19  C   UNL     1      -9.767 -43.833  31.118  1.00  0.00     0.027 C 
ATOM     20  C   UNL     1      -9.354 -43.505  32.544  1.00  0.00     0.008 C 
ENDBRANCH   1  19
BRANCH  14  21
ATOM     21  N   UNL     1     -12.382 -46.602  26.939  1.00  0.00    -0.398 N 
ATOM     22  H   UNL     1     -12.813 -47.519  26.932  1.00  0.00     0.156 HD
ATOM     23  H   UNL     1     -11.463 -46.648  27.365  1.00  0.00     0.156 HD
ENDBRANCH  14  21
TORSDOF 2
ENDMDL
MODEL 2
REMARK VINA RESULT:    -9.673      4.566      8.339
REMARK INTER + INTRA:         -10.617
REMARK INTER:                 -10.487
REMARK INTRA:                  -0.130
REMARK UNBOUND:                -0.096
REMARK SMILES CCC1=C[C@H]2Cc3nc4cc(Cl)ccc4c(N)c3[C@@H](C1)C2
REMARK SMILES IDX 3 1 4 2 5 3 6 4 7 5 8 6 9 7 10 8 11 9 12 10 13 11 14 12
REMARK SMILES IDX 15 13 16 14 18 15 19 16 20 17 21 18 2 19 1 20 17 21
REMARK H PARENT 17 22 17 23
ROOT
ATOM      1  C   UNL     1     -21.782 -43.643  25.302  1.00  0.00    -0.074 C 
ATOM      2  C   UNL     1     -21.809 -42.876  26.409  1.00  0.00    -0.024 C 
ATOM      3  C   UNL     1     -21.179 -41.501  26.481  1.00  0.00     0.018 C 
ATOM      4  C   UNL     1     -19.806 -41.568  27.161  1.00  0.00     0.064 C 
ATOM      5  C   UNL     1     -18.700 -42.086  26.266  1.00  0.00     0.047 A 
ATOM      6  N   UNL     1     -17.532 -42.339  26.902  1.00  0.00    -0.252 NA
ATOM      7  C   UNL     1     -16.472 -42.721  26.183  1.00  0.00     0.074 A 
ATOM      8  C   UNL     1     -15.281 -42.925  26.864  1.00  0.00     0.049 A 
ATOM      9  C   UNL     1     -14.119 -43.294  26.195  1.00  0.00     0.043 A 
ATOM     10  Cl  UNL     1     -12.660 -43.534  27.074  1.00  0.00    -0.084 Cl
ATOM     11  C   UNL     1     -14.130 -43.463  24.819  1.00  0.00     0.021 A 
ATOM     12  C   UNL     1     -15.320 -43.268  24.119  1.00  0.00     0.014 A 
ATOM     13  C   UNL     1     -16.519 -42.905  24.786  1.00  0.00     0.024 A 
ATOM     14  C   UNL     1     -17.773 -42.716  24.137  1.00  0.00     0.046 A 
ATOM     15  C   UNL     1     -18.866 -42.228  24.882  1.00  0.00     0.001 A 
ATOM     16  C   UNL     1     -20.211 -41.904  24.239  1.00  0.00     0.028 C 
ATOM     17  C   UNL     1     -21.066 -43.181  24.046  1.00  0.00     0.039 C 
ATOM     18  C   UNL     1     -21.001 -40.899  25.086  1.00  0.00     0.017 C 
ENDROOT
BRANCH   1  19
ATOM     19  C   UNL     1     -22.415 -45.013  25.266  1.00  0.00     0.027 C 
ATOM     20  C   UNL     1     -21.402 -46.131  25.456  1.00  0.00     0.008 C 
ENDBRANCH   1  19
BRANCH  14  21
ATOM     21  N   UNL     1     -17.866 -42.816  22.726  1.00  0.00    -0.398 N 
ATOM     22  H   UNL     1     -18.237 -43.699  22.396  1.00  0.00     0.156 HD
ATOM     23  H   UNL     1     -17.000 -42.596  22.249  1.00  0.00     0.156 HD
ENDBRANCH  14  21
TORSDOF 2
ENDMDL
MODEL 3
REMARK VINA RESULT:    -9.183      4.359      6.104
REMARK INTER + INTRA:         -10.085
REMARK INTER:                  -9.953
REMARK INTRA:                  -0.132
REMARK UNBOUND:                -0.096
REMARK SMILES CCC1=C[C@H]2Cc3nc4cc(Cl)ccc4c(N)c3[C@@H](C1)C2
REMARK SMILES IDX 3 1 4 2 5 3 6 4 7 5 8 6 9 7 10 8 11 9 12 10 13 11 14 12
REMARK SMILES IDX 15 13 16 14 18 15 19 16 20 17 21 18 2 19 1 20 17 21
REMARK H PARENT 17 22 17 23
ROOT
ATOM      1  C   UNL     1      -8.931 -43.656  29.219  1.00  0.00    -0.074 C 
ATOM      2  C   UNL     1      -8.103 -43.538  30.274  1.00  0.00    -0.024 C 
ATOM      3  C   UNL     1      -8.233 -44.378  31.528  1.00  0.00     0.018 C 
ATOM      4  C   UNL     1      -8.951 -43.595  32.634  1.00  0.00     0.064 C 
ATOM      5  C   UNL     1     -10.454 -43.524  32.462  1.00  0.00     0.047 A 
ATOM      6  N   UNL     1     -11.079 -42.677  33.311  1.00  0.00    -0.252 NA
ATOM      7  C   UNL     1     -12.414 -42.607  33.292  1.00  0.00     0.074 A 
ATOM      8  C   UNL     1     -13.021 -41.763  34.209  1.00  0.00     0.049 A 
ATOM      9  C   UNL     1     -14.406 -41.649  34.283  1.00  0.00     0.043 A 
ATOM     10  Cl  UNL     1     -15.122 -40.593  35.437  1.00  0.00    -0.084 Cl
ATOM     11  C   UNL     1     -15.213 -42.390  33.434  1.00  0.00     0.021 A 
ATOM     12  C   UNL     1     -14.619 -43.241  32.501  1.00  0.00     0.014 A 
ATOM     13  C   UNL     1     -13.209 -43.359  32.401  1.00  0.00     0.024 A 
ATOM     14  C   UNL     1     -12.537 -44.187  31.456  1.00  0.00     0.046 A 
ATOM     15  C   UNL     1     -11.137 -44.325  31.536  1.00  0.00     0.001 A 
ATOM     16  C   UNL     1     -10.358 -45.271  30.627  1.00  0.00     0.028 C 
ATOM     17  C   UNL     1     -10.095 -44.630  29.241  1.00  0.00     0.039 C 
ATOM     18  C   UNL     1      -9.016 -45.663  31.257  1.00  0.00     0.017 C 
ENDROOT
BRANCH   1  19
ATOM     19  C   UNL     1      -8.778 -42.799  27.986  1.00  0.00     0.027 C 
ATOM     20  C   UNL     1     -10.060 -42.067  27.619  1.00  0.00     0.008 C 
ENDBRANCH   1  19
BRANCH  14  21
ATOM     21  N   UNL     1     -13.282 -45.020  30.584  1.00  0.00    -0.398 N 
ATOM     22  H   UNL     1     -13.926 -44.521  29.982  1.00  0.00     0.156 HD
ATOM     23  H   UNL     1     -13.760 -45.776  31.060  1.00  0.00     0.156 HD
ENDBRANCH  14  21
TORSDOF 2
ENDMDL
MODEL 4
REMARK VINA RESULT:    -8.881      5.586     10.317
REMARK INTER + INTRA:          -9.756
REMARK INTER:                  -9.625
REMARK INTRA:                  -0.131
REMARK UNBOUND:                -0.096
REMARK SMILES CCC1=C[C@H]2Cc3nc4cc(Cl)ccc4c(N)c3[C@@H](C1)C2
REMARK SMILES IDX 3 1 4 2 5 3 6 4 7 5 8 6 9 7 10 8 11 9 12 10 13 11 14 12
REMARK SMILES IDX 15 13 16 14 18 15 19 16 20 17 21 18 2 19 1 20 17 21
REMARK H PARENT 17 22 17 23
ROOT
ATOM      1  C   UNL     1     -21.504 -41.610  20.831  1.00  0.00    -0.074 C 
ATOM      2  C   UNL     1     -22.178 -41.385  21.975  1.00  0.00    -0.024 C 
ATOM      3  C   UNL     1     -21.778 -40.324  22.978  1.00  0.00     0.018 C 
ATOM      4  C   UNL     1     -20.996 -40.944  24.143  1.00  0.00     0.064 C 
ATOM      5  C   UNL     1     -19.551 -41.256  23.817  1.00  0.00     0.047 A 
ATOM      6  N   UNL     1     -18.905 -41.982  24.759  1.00  0.00    -0.252 NA
ATOM      7  C   UNL     1     -17.602 -42.237  24.600  1.00  0.00     0.074 A 
ATOM      8  C   UNL     1     -16.964 -42.943  25.609  1.00  0.00     0.049 A 
ATOM      9  C   UNL     1     -15.604 -43.227  25.544  1.00  0.00     0.043 A 
ATOM     10  Cl  UNL     1     -14.847 -44.102  26.817  1.00  0.00    -0.084 Cl
ATOM     11  C   UNL     1     -14.853 -42.803  24.459  1.00  0.00     0.021 A 
ATOM     12  C   UNL     1     -15.479 -42.097  23.432  1.00  0.00     0.014 A 
ATOM     13  C   UNL     1     -16.868 -41.809  23.474  1.00  0.00     0.024 A 
ATOM     14  C   UNL     1     -17.576 -41.117  22.449  1.00  0.00     0.046 A 
ATOM     15  C   UNL     1     -18.927 -40.773  22.659  1.00  0.00     0.001 A 
ATOM     16  C   UNL     1     -19.722 -39.945  21.654  1.00  0.00     0.028 C 
ATOM     17  C   UNL     1     -20.250 -40.823  20.493  1.00  0.00     0.039 C 
ATOM     18  C   UNL     1     -20.908 -39.246  22.330  1.00  0.00     0.017 C 
ENDROOT
BRANCH   1  19
ATOM     19  C   UNL     1     -21.926 -42.680  19.854  1.00  0.00     0.027 C 
ATOM     20  C   UNL     1     -20.967 -43.861  19.829  1.00  0.00     0.008 C 
ENDBRANCH   1  19
BRANCH  14  21
ATOM     21  N   UNL     1     -16.880 -40.600  21.328  1.00  0.00    -0.398 N 
ATOM     22  H   UNL     1     -15.888 -40.807  21.323  1.00  0.00     0.156 HD
ATOM     23  H   UNL     1     -17.033 -39.609  21.181  1.00  0.00     0.156 HD
ENDBRANCH  14  21
TORSDOF 2
ENDMDL
MODEL 5
REMARK VINA RESULT:    -8.229      5.568     10.279
REMARK INTER + INTRA:          -9.047
REMARK INTER:                  -8.944
REMARK INTRA:                  -0.103
REMARK UNBOUND:                -0.096
REMARK SMILES CCC1=C[C@H]2Cc3nc4cc(Cl)ccc4c(N)c3[C@@H](C1)C2
REMARK SMILES IDX 3 1 4 2 5 3 6 4 7 5 8 6 9 7 10 8 11 9 12 10 13 11 14 12
REMARK SMILES IDX 15 13 16 14 18 15 19 16 20 17 21 18 2 19 1 20 17 21
REMARK H PARENT 17 22 17 23
ROOT
ATOM      1  C   UNL     1     -21.912 -42.601  21.575  1.00  0.00    -0.074 C 
ATOM      2  C   UNL     1     -22.655 -41.754  22.312  1.00  0.00    -0.024 C 
ATOM      3  C   UNL     1     -22.144 -40.416  22.804  1.00  0.00     0.018 C 
ATOM      4  C   UNL     1     -21.694 -40.511  24.267  1.00  0.00     0.064 C 
ATOM      5  C   UNL     1     -20.338 -41.157  24.453  1.00  0.00     0.047 A 
ATOM      6  N   UNL     1     -20.014 -41.428  25.739  1.00  0.00    -0.252 NA
ATOM      7  C   UNL     1     -18.803 -41.923  26.012  1.00  0.00     0.074 A 
ATOM      8  C   UNL     1     -18.492 -42.143  27.346  1.00  0.00     0.049 A 
ATOM      9  C   UNL     1     -17.244 -42.628  27.727  1.00  0.00     0.043 A 
ATOM     10  Cl  UNL     1     -16.894 -42.885  29.391  1.00  0.00    -0.084 Cl
ATOM     11  C   UNL     1     -16.278 -42.897  26.770  1.00  0.00     0.021 A 
ATOM     12  C   UNL     1     -16.576 -42.686  25.424  1.00  0.00     0.014 A 
ATOM     13  C   UNL     1     -17.847 -42.207  25.015  1.00  0.00     0.024 A 
ATOM     14  C   UNL     1     -18.227 -41.995  23.658  1.00  0.00     0.046 A 
ATOM     15  C   UNL     1     -19.470 -41.391  23.378  1.00  0.00     0.001 A 
ATOM     16  C   UNL     1     -19.903 -41.038  21.959  1.00  0.00     0.028 C 
ATOM     17  C   UNL     1     -20.472 -42.275  21.220  1.00  0.00     0.039 C 
ATOM     18  C   UNL     1     -20.963 -39.930  21.963  1.00  0.00     0.017 C 
ENDROOT
BRANCH   1  19
ATOM     19  C   UNL     1     -22.450 -43.931  21.105  1.00  0.00     0.027 C 
ATOM     20  C   UNL     1     -21.922 -44.325  19.734  1.00  0.00     0.008 C 
ENDBRANCH   1  19
BRANCH  14  21
ATOM     21  N   UNL     1     -17.286 -42.193  22.617  1.00  0.00    -0.398 N 
ATOM     22  H   UNL     1     -17.448 -43.027  22.064  1.00  0.00     0.156 HD
ATOM     23  H   UNL     1     -16.323 -42.161  22.932  1.00  0.00     0.156 HD
ENDBRANCH  14  21
TORSDOF 2
ENDMDL
MODEL 6
REMARK VINA RESULT:    -7.621      6.491      9.436
REMARK INTER + INTRA:          -8.385
REMARK INTER:                  -8.260
REMARK INTRA:                  -0.125
REMARK UNBOUND:                -0.096
REMARK SMILES CCC1=C[C@H]2Cc3nc4cc(Cl)ccc4c(N)c3[C@@H](C1)C2
REMARK SMILES IDX 3 1 4 2 5 3 6 4 7 5 8 6 9 7 10 8 11 9 12 10 13 11 14 12
REMARK SMILES IDX 15 13 16 14 18 15 19 16 20 17 21 18 2 19 1 20 17 21
REMARK H PARENT 17 22 17 23
ROOT
ATOM      1  C   UNL     1     -18.710 -42.444  26.168  1.00  0.00    -0.074 C 
ATOM      2  C   UNL     1     -19.673 -41.793  26.846  1.00  0.00    -0.024 C 
ATOM      3  C   UNL     1     -21.148 -41.931  26.529  1.00  0.00     0.018 C 
ATOM      4  C   UNL     1     -21.634 -40.748  25.683  1.00  0.00     0.064 C 
ATOM      5  C   UNL     1     -21.256 -40.841  24.220  1.00  0.00     0.047 A 
ATOM      6  N   UNL     1     -21.501 -39.720  23.502  1.00  0.00    -0.252 NA
ATOM      7  C   UNL     1     -21.278 -39.733  22.184  1.00  0.00     0.074 A 
ATOM      8  C   UNL     1     -21.585 -38.582  21.475  1.00  0.00     0.049 A 
ATOM      9  C   UNL     1     -21.414 -38.514  20.096  1.00  0.00     0.043 A 
ATOM     10  Cl  UNL     1     -21.810 -37.068  19.251  1.00  0.00    -0.084 Cl
ATOM     11  C   UNL     1     -20.933 -39.610  19.397  1.00  0.00     0.021 A 
ATOM     12  C   UNL     1     -20.613 -40.774  20.095  1.00  0.00     0.014 A 
ATOM     13  C   UNL     1     -20.767 -40.858  21.503  1.00  0.00     0.024 A 
ATOM     14  C   UNL     1     -20.435 -42.005  22.280  1.00  0.00     0.046 A 
ATOM     15  C   UNL     1     -20.753 -42.021  23.653  1.00  0.00     0.001 A 
ATOM     16  C   UNL     1     -20.524 -43.248  24.529  1.00  0.00     0.028 C 
ATOM     17  C   UNL     1     -19.049 -43.342  24.992  1.00  0.00     0.039 C 
ATOM     18  C   UNL     1     -21.433 -43.224  25.764  1.00  0.00     0.017 C 
ENDROOT
BRANCH   1  19
ATOM     19  C   UNL     1     -17.248 -42.280  26.506  1.00  0.00     0.027 C 
ATOM     20  C   UNL     1     -16.331 -42.834  25.426  1.00  0.00     0.008 C 
ENDBRANCH   1  19
BRANCH  14  21
ATOM     21  N   UNL     1     -19.987 -43.190  21.644  1.00  0.00    -0.398 N 
ATOM     22  H   UNL     1     -18.980 -43.300  21.634  1.00  0.00     0.156 HD
ATOM     23  H   UNL     1     -20.365 -43.315  20.712  1.00  0.00     0.156 HD
ENDBRANCH  14  21
TORSDOF 2
ENDMDL
MODEL 7
REMARK VINA RESULT:    -7.224      7.765     10.230
REMARK INTER + INTRA:          -7.954
REMARK INTER:                  -7.837
REMARK INTRA:                  -0.117
REMARK UNBOUND:                -0.096
REMARK SMILES CCC1=C[C@H]2Cc3nc4cc(Cl)ccc4c(N)c3[C@@H](C1)C2
REMARK SMILES IDX 3 1 4 2 5 3 6 4 7 5 8 6 9 7 10 8 11 9 12 10 13 11 14 12
REMARK SMILES IDX 15 13 16 14 18 15 19 16 20 17 21 18 2 19 1 20 17 21
REMARK H PARENT 17 22 17 23
ROOT
ATOM      1  C   UNL     1     -21.217 -43.846  26.373  1.00  0.00    -0.074 C 
ATOM      2  C   UNL     1     -19.892 -43.770  26.148  1.00  0.00    -0.024 C 
ATOM      3  C   UNL     1     -19.105 -42.481  26.257  1.00  0.00     0.018 C 
ATOM      4  C   UNL     1     -18.875 -41.866  24.871  1.00  0.00     0.064 C 
ATOM      5  C   UNL     1     -20.081 -41.143  24.310  1.00  0.00     0.047 A 
ATOM      6  N   UNL     1     -19.962 -40.769  23.015  1.00  0.00    -0.252 NA
ATOM      7  C   UNL     1     -20.942 -40.053  22.455  1.00  0.00     0.074 A 
ATOM      8  C   UNL     1     -20.763 -39.648  21.141  1.00  0.00     0.049 A 
ATOM      9  C   UNL     1     -21.715 -38.874  20.486  1.00  0.00     0.043 A 
ATOM     10  Cl  UNL     1     -21.455 -38.387  18.856  1.00  0.00    -0.084 Cl
ATOM     11  C   UNL     1     -22.871 -38.485  21.144  1.00  0.00     0.021 A 
ATOM     12  C   UNL     1     -23.071 -38.888  22.464  1.00  0.00     0.014 A 
ATOM     13  C   UNL     1     -22.118 -39.690  23.144  1.00  0.00     0.024 A 
ATOM     14  C   UNL     1     -22.270 -40.158  24.481  1.00  0.00     0.046 A 
ATOM     15  C   UNL     1     -21.199 -40.837  25.098  1.00  0.00     0.001 A 
ATOM     16  C   UNL     1     -21.247 -41.279  26.557  1.00  0.00     0.028 C 
ATOM     17  C   UNL     1     -22.026 -42.608  26.718  1.00  0.00     0.039 C 
ATOM     18  C   UNL     1     -19.835 -41.457  27.127  1.00  0.00     0.017 C 
ENDROOT
BRANCH   1  19
ATOM     19  C   UNL     1     -21.973 -45.146  26.250  1.00  0.00     0.027 C 
ATOM     20  C   UNL     1     -21.339 -46.100  25.249  1.00  0.00     0.008 C 
ENDBRANCH   1  19
BRANCH  14  21
ATOM     21  N   UNL     1     -23.395 -39.767  25.248  1.00  0.00    -0.398 N 
ATOM     22  H   UNL     1     -23.755 -40.491  25.858  1.00  0.00     0.156 HD
ATOM     23  H   UNL     1     -24.144 -39.371  24.691  1.00  0.00     0.156 HD
ENDBRANCH  14  21
TORSDOF 2
ENDMDL
MODEL 8
REMARK VINA RESULT:    -7.213      8.864     13.655
REMARK INTER + INTRA:          -7.941
REMARK INTER:                  -7.820
REMARK INTRA:                  -0.122
REMARK UNBOUND:                -0.096
REMARK SMILES CCC1=C[C@H]2Cc3nc4cc(Cl)ccc4c(N)c3[C@@H](C1)C2
REMARK SMILES IDX 3 1 4 2 5 3 6 4 7 5 8 6 9 7 10 8 11 9 12 10 13 11 14 12
REMARK SMILES IDX 15 13 16 14 18 15 19 16 20 17 21 18 2 19 1 20 17 21
REMARK H PARENT 17 22 17 23
ROOT
ATOM      1  C   UNL     1     -23.844 -39.239  18.430  1.00  0.00    -0.074 C 
ATOM      2  C   UNL     1     -24.571 -38.845  19.492  1.00  0.00    -0.024 C 
ATOM      3  C   UNL     1     -24.089 -37.814  20.491  1.00  0.00     0.018 C 
ATOM      4  C   UNL     1     -23.534 -38.495  21.749  1.00  0.00     0.064 C 
ATOM      5  C   UNL     1     -22.140 -39.061  21.579  1.00  0.00     0.047 A 
ATOM      6  N   UNL     1     -21.717 -39.834  22.606  1.00  0.00    -0.252 NA
ATOM      7  C   UNL     1     -20.468 -40.311  22.586  1.00  0.00     0.074 A 
ATOM      8  C   UNL     1     -20.055 -41.060  23.678  1.00  0.00     0.049 A 
ATOM      9  C   UNL     1     -18.764 -41.571  23.757  1.00  0.00     0.043 A 
ATOM     10  Cl  UNL     1     -18.288 -42.492  25.130  1.00  0.00    -0.084 Cl
ATOM     11  C   UNL     1     -17.856 -41.336  22.738  1.00  0.00     0.021 A 
ATOM     12  C   UNL     1     -18.255 -40.590  21.629  1.00  0.00     0.014 A 
ATOM     13  C   UNL     1     -19.572 -40.072  21.523  1.00  0.00     0.024 A 
ATOM     14  C   UNL     1     -20.054 -39.326  20.409  1.00  0.00     0.046 A 
ATOM     15  C   UNL     1     -21.339 -38.750  20.471  1.00  0.00     0.001 A 
ATOM     16  C   UNL     1     -21.886 -37.854  19.364  1.00  0.00     0.028 C 
ATOM     17  C   UNL     1     -22.449 -38.692  18.189  1.00  0.00     0.039 C 
ATOM     18  C   UNL     1     -22.991 -36.933  19.893  1.00  0.00     0.017 C 
ENDROOT
BRANCH   1  19
ATOM     19  C   UNL     1     -24.353 -40.273  17.455  1.00  0.00     0.027 C 
ATOM     20  C   UNL     1     -24.510 -41.647  18.089  1.00  0.00     0.008 C 
ENDBRANCH   1  19
BRANCH  14  21
ATOM     21  N   UNL     1     -19.180 -38.992  19.344  1.00  0.00    -0.398 N 
ATOM     22  H   UNL     1     -18.210 -38.895  19.619  1.00  0.00     0.156 HD
ATOM     23  H   UNL     1     -19.480 -38.180  18.817  1.00  0.00     0.156 HD
ENDBRANCH  14  21
TORSDOF 2
ENDMDL
