MODEL 1
REMARK VINA RESULT:    -9.676      0.000      0.000
REMARK INTER + INTRA:         -10.607
REMARK INTER:                 -10.525
REMARK INTRA:                  -0.083
REMARK UNBOUND:                -0.083
REMARK SMILES CCC1=C[C@@H]2Cc3nc4cc(Cl)ccc4c(N)c3[C@H](C1)C2
REMARK SMILES IDX 3 1 4 2 5 3 6 4 7 5 8 6 9 7 10 8 11 9 12 10 13 11 14 12
REMARK SMILES IDX 15 13 16 14 18 15 19 16 20 17 21 18 2 19 1 20 17 21
REMARK H PARENT 17 22 17 23
ROOT
ATOM      1  C   UNL     1     -11.473 -44.099  31.114  1.00  0.00    -0.074 C 
ATOM      2  C   UNL     1     -10.921 -45.090  30.388  1.00  0.00    -0.024 C 
ATOM      3  C   UNL     1     -11.705 -46.271  29.856  1.00  0.00     0.018 C 
ATOM      4  C   UNL     1     -12.072 -46.063  28.382  1.00  0.00     0.064 C 
ATOM      5  C   UNL     1     -13.244 -45.129  28.166  1.00  0.00     0.047 A 
ATOM      6  N   UNL     1     -13.456 -44.780  26.875  1.00  0.00    -0.252 NA
ATOM      7  C   UNL     1     -14.516 -44.025  26.573  1.00  0.00     0.074 A 
ATOM      8  C   UNL     1     -14.727 -43.728  25.235  1.00  0.00     0.049 A 
ATOM      9  C   UNL     1     -15.822 -42.974  24.825  1.00  0.00     0.043 A 
ATOM     10  Cl  UNL     1     -16.051 -42.630  23.155  1.00  0.00    -0.084 Cl
ATOM     11  C   UNL     1     -16.735 -42.505  25.757  1.00  0.00     0.021 A 
ATOM     12  C   UNL     1     -16.536 -42.789  27.108  1.00  0.00     0.014 A 
ATOM     13  C   UNL     1     -15.417 -43.543  27.547  1.00  0.00     0.024 A 
ATOM     14  C   UNL     1     -15.139 -43.848  28.910  1.00  0.00     0.046 A 
ATOM     15  C   UNL     1     -14.072 -44.716  29.217  1.00  0.00     0.001 A 
ATOM     16  C   UNL     1     -13.774 -45.170  30.644  1.00  0.00     0.028 C 
ATOM     17  C   UNL     1     -12.964 -44.100  31.415  1.00  0.00     0.039 C 
ATOM     18  C   UNL     1     -12.992 -46.488  30.653  1.00  0.00     0.017 C 
ENDROOT
BRANCH   1  19
ATOM     19  C   UNL     1     -10.720 -42.912  31.681  1.00  0.00     0.027 C 
ATOM     20  C   UNL     1      -9.892 -43.151  32.937  1.00  0.00     0.008 C 
ENDBRANCH   1  19
BRANCH  14  21
ATOM     21  N   UNL     1     -16.046 -43.454  29.926  1.00  0.00    -0.398 N 
ATOM     22  H   UNL     1     -16.691 -44.181  30.212  1.00  0.00     0.156 HD
ATOM     23  H   UNL     1     -15.591 -43.047  30.735  1.00  0.00     0.156 HD
ENDBRANCH  14  21
TORSDOF 2
ENDMDL
MODEL 2
REMARK VINA RESULT:    -9.657      1.968      3.108
REMARK INTER + INTRA:         -10.587
REMARK INTER:                 -10.506
REMARK INTRA:                  -0.081
REMARK UNBOUND:                -0.083
REMARK SMILES CCC1=C[C@@H]2Cc3nc4cc(Cl)ccc4c(N)c3[C@H](C1)C2
REMARK SMILES IDX 3 1 4 2 5 3 6 4 7 5 8 6 9 7 10 8 11 9 12 10 13 11 14 12
REMARK SMILES IDX 15 13 16 14 18 15 19 16 20 17 21 18 2 19 1 20 17 21
REMARK H PARENT 17 22 17 23
ROOT
ATOM      1  C   UNL     1      -9.821 -43.572  32.502  1.00  0.00    -0.074 C 
ATOM      2  C   UNL     1      -8.798 -43.175  31.721  1.00  0.00    -0.024 C 
ATOM      3  C   UNL     1      -8.310 -43.959  30.521  1.00  0.00     0.018 C 
ATOM      4  C   UNL     1      -8.881 -43.379  29.221  1.00  0.00     0.064 C 
ATOM      5  C   UNL     1     -10.317 -43.772  28.951  1.00  0.00     0.047 A 
ATOM      6  N   UNL     1     -10.897 -43.115  27.919  1.00  0.00    -0.252 NA
ATOM      7  C   UNL     1     -12.137 -43.451  27.551  1.00  0.00     0.074 A 
ATOM      8  C   UNL     1     -12.679 -42.790  26.460  1.00  0.00     0.049 A 
ATOM      9  C   UNL     1     -13.951 -43.095  25.987  1.00  0.00     0.043 A 
ATOM     10  Cl  UNL     1     -14.587 -42.255  24.627  1.00  0.00    -0.084 Cl
ATOM     11  C   UNL     1     -14.706 -44.082  26.602  1.00  0.00     0.021 A 
ATOM     12  C   UNL     1     -14.179 -44.754  27.705  1.00  0.00     0.014 A 
ATOM     13  C   UNL     1     -12.890 -44.446  28.211  1.00  0.00     0.024 A 
ATOM     14  C   UNL     1     -12.302 -45.073  29.347  1.00  0.00     0.046 A 
ATOM     15  C   UNL     1     -10.964 -44.779  29.678  1.00  0.00     0.001 A 
ATOM     16  C   UNL     1     -10.232 -45.485  30.818  1.00  0.00     0.028 C 
ATOM     17  C   UNL     1     -10.582 -44.851  32.185  1.00  0.00     0.039 C 
ATOM     18  C   UNL     1      -8.714 -45.430  30.617  1.00  0.00     0.017 C 
ENDROOT
BRANCH   1  19
ATOM     19  C   UNL     1     -10.326 -42.828  33.721  1.00  0.00     0.027 C 
ATOM     20  C   UNL     1      -9.290 -42.094  34.564  1.00  0.00     0.008 C 
ENDBRANCH   1  19
BRANCH  14  21
ATOM     21  N   UNL     1     -12.980 -46.128  30.007  1.00  0.00    -0.398 N 
ATOM     22  H   UNL     1     -13.383 -46.818  29.382  1.00  0.00     0.156 HD
ATOM     23  H   UNL     1     -12.421 -46.582  30.720  1.00  0.00     0.156 HD
ENDBRANCH  14  21
TORSDOF 2
ENDMDL
MODEL 3
REMARK VINA RESULT:    -8.716      2.003      2.900
REMARK INTER + INTRA:          -9.563
REMARK INTER:                  -9.470
REMARK INTRA:                  -0.093
REMARK UNBOUND:                -0.083
REMARK SMILES CCC1=C[C@@H]2Cc3nc4cc(Cl)ccc4c(N)c3[C@H](C1)C2
REMARK SMILES IDX 3 1 4 2 5 3 6 4 7 5 8 6 9 7 10 8 11 9 12 10 13 11 14 12
REMARK SMILES IDX 15 13 16 14 18 15 19 16 20 17 21 18 2 19 1 20 17 21
REMARK H PARENT 17 22 17 23
ROOT
ATOM      1  C   UNL     1     -12.349 -45.092  31.122  1.00  0.00    -0.074 C 
ATOM      2  C   UNL     1     -11.610 -43.966  31.070  1.00  0.00    -0.024 C 
ATOM      3  C   UNL     1     -10.585 -43.690  29.990  1.00  0.00     0.018 C 
ATOM      4  C   UNL     1     -11.166 -42.770  28.910  1.00  0.00     0.064 C 
ATOM      5  C   UNL     1     -12.078 -43.474  27.928  1.00  0.00     0.047 A 
ATOM      6  N   UNL     1     -12.752 -42.649  27.093  1.00  0.00    -0.252 NA
ATOM      7  C   UNL     1     -13.519 -43.179  26.136  1.00  0.00     0.074 A 
ATOM      8  C   UNL     1     -14.155 -42.303  25.270  1.00  0.00     0.049 A 
ATOM      9  C   UNL     1     -14.949 -42.766  24.225  1.00  0.00     0.043 A 
ATOM     10  Cl  UNL     1     -15.718 -41.647  23.170  1.00  0.00    -0.084 Cl
ATOM     11  C   UNL     1     -15.116 -44.128  24.027  1.00  0.00     0.021 A 
ATOM     12  C   UNL     1     -14.489 -45.024  24.892  1.00  0.00     0.014 A 
ATOM     13  C   UNL     1     -13.688 -44.571  25.972  1.00  0.00     0.024 A 
ATOM     14  C   UNL     1     -13.040 -45.428  26.907  1.00  0.00     0.046 A 
ATOM     15  C   UNL     1     -12.163 -44.870  27.859  1.00  0.00     0.001 A 
ATOM     16  C   UNL     1     -11.356 -45.731  28.827  1.00  0.00     0.028 C 
ATOM     17  C   UNL     1     -12.210 -46.156  30.045  1.00  0.00     0.039 C 
ATOM     18  C   UNL     1     -10.114 -44.984  29.327  1.00  0.00     0.017 C 
ENDROOT
BRANCH   1  19
ATOM     19  C   UNL     1     -13.368 -45.415  32.195  1.00  0.00     0.027 C 
ATOM     20  C   UNL     1     -14.176 -44.252  32.757  1.00  0.00     0.008 C 
ENDBRANCH   1  19
BRANCH  14  21
ATOM     21  N   UNL     1     -13.114 -46.835  26.750  1.00  0.00    -0.398 N 
ATOM     22  H   UNL     1     -12.473 -47.353  27.341  1.00  0.00     0.156 HD
ATOM     23  H   UNL     1     -14.054 -47.202  26.843  1.00  0.00     0.156 HD
ENDBRANCH  14  21
TORSDOF 2
ENDMDL
MODEL 4
REMARK VINA RESULT:    -8.373      4.302      9.046
REMARK INTER + INTRA:          -9.190
REMARK INTER:                  -9.081
REMARK INTRA:                  -0.108
REMARK UNBOUND:                -0.083
REMARK SMILES CCC1=C[C@@H]2Cc3nc4cc(Cl)ccc4c(N)c3[C@H](C1)C2
REMARK SMILES IDX 3 1 4 2 5 3 6 4 7 5 8 6 9 7 10 8 11 9 12 10 13 11 14 12
REMARK SMILES IDX 15 13 16 14 18 15 19 16 20 17 21 18 2 19 1 20 17 21
REMARK H PARENT 17 22 17 23
ROOT
ATOM      1  C   UNL     1     -22.060 -43.025  23.313  1.00  0.00    -0.074 C 
ATOM      2  C   UNL     1     -21.384 -42.589  22.232  1.00  0.00    -0.024 C 
ATOM      3  C   UNL     1     -20.566 -41.315  22.217  1.00  0.00     0.018 C 
ATOM      4  C   UNL     1     -19.076 -41.622  22.413  1.00  0.00     0.064 C 
ATOM      5  C   UNL     1     -18.690 -41.908  23.848  1.00  0.00     0.047 A 
ATOM      6  N   UNL     1     -17.429 -42.371  24.012  1.00  0.00    -0.252 NA
ATOM      7  C   UNL     1     -16.967 -42.574  25.249  1.00  0.00     0.074 A 
ATOM      8  C   UNL     1     -15.655 -43.004  25.378  1.00  0.00     0.049 A 
ATOM      9  C   UNL     1     -15.081 -43.211  26.628  1.00  0.00     0.043 A 
ATOM     10  Cl  UNL     1     -13.448 -43.740  26.746  1.00  0.00    -0.084 Cl
ATOM     11  C   UNL     1     -15.818 -42.986  27.781  1.00  0.00     0.021 A 
ATOM     12  C   UNL     1     -17.141 -42.559  27.670  1.00  0.00     0.014 A 
ATOM     13  C   UNL     1     -17.749 -42.357  26.405  1.00  0.00     0.024 A 
ATOM     14  C   UNL     1     -19.100 -41.948  26.219  1.00  0.00     0.046 A 
ATOM     15  C   UNL     1     -19.556 -41.650  24.919  1.00  0.00     0.001 A 
ATOM     16  C   UNL     1     -20.959 -41.111  24.649  1.00  0.00     0.028 C 
ATOM     17  C   UNL     1     -22.003 -42.252  24.622  1.00  0.00     0.039 C 
ATOM     18  C   UNL     1     -21.014 -40.354  23.318  1.00  0.00     0.017 C 
ENDROOT
BRANCH   1  19
ATOM     19  C   UNL     1     -22.906 -44.281  23.363  1.00  0.00     0.027 C 
ATOM     20  C   UNL     1     -22.362 -45.451  24.172  1.00  0.00     0.008 C 
ENDBRANCH   1  19
BRANCH  14  21
ATOM     21  N   UNL     1     -19.912 -41.644  27.341  1.00  0.00    -0.398 N 
ATOM     22  H   UNL     1     -20.395 -42.444  27.733  1.00  0.00     0.156 HD
ATOM     23  H   UNL     1     -19.420 -41.138  28.068  1.00  0.00     0.156 HD
ENDBRANCH  14  21
TORSDOF 2
ENDMDL
MODEL 5
REMARK VINA RESULT:    -8.339      5.080     10.076
REMARK INTER + INTRA:          -9.153
REMARK INTER:                  -9.068
REMARK INTRA:                  -0.085
REMARK UNBOUND:                -0.083
REMARK SMILES CCC1=C[C@@H]2Cc3nc4cc(Cl)ccc4c(N)c3[C@H](C1)C2
REMARK SMILES IDX 3 1 4 2 5 3 6 4 7 5 8 6 9 7 10 8 11 9 12 10 13 11 14 12
REMARK SMILES IDX 15 13 16 14 18 15 19 16 20 17 21 18 2 19 1 20 17 21
REMARK H PARENT 17 22 17 23
ROOT
ATOM      1  C   UNL     1     -20.977 -39.916  21.648  1.00  0.00    -0.074 C 
ATOM      2  C   UNL     1     -22.076 -40.196  22.376  1.00  0.00    -0.024 C 
ATOM      3  C   UNL     1     -22.412 -41.584  22.879  1.00  0.00     0.018 C 
ATOM      4  C   UNL     1     -22.001 -41.746  24.348  1.00  0.00     0.064 C 
ATOM      5  C   UNL     1     -20.520 -41.981  24.549  1.00  0.00     0.047 A 
ATOM      6  N   UNL     1     -20.111 -41.930  25.839  1.00  0.00    -0.252 NA
ATOM      7  C   UNL     1     -18.836 -42.207  26.127  1.00  0.00     0.074 A 
ATOM      8  C   UNL     1     -18.466 -42.190  27.463  1.00  0.00     0.049 A 
ATOM      9  C   UNL     1     -17.167 -42.496  27.859  1.00  0.00     0.043 A 
ATOM     10  Cl  UNL     1     -16.749 -42.468  29.527  1.00  0.00    -0.084 Cl
ATOM     11  C   UNL     1     -16.211 -42.830  26.913  1.00  0.00     0.021 A 
ATOM     12  C   UNL     1     -16.563 -42.846  25.564  1.00  0.00     0.014 A 
ATOM     13  C   UNL     1     -17.878 -42.523  25.140  1.00  0.00     0.024 A 
ATOM     14  C   UNL     1     -18.299 -42.494  23.780  1.00  0.00     0.046 A 
ATOM     15  C   UNL     1     -19.662 -42.289  23.486  1.00  0.00     0.001 A 
ATOM     16  C   UNL     1     -20.207 -42.345  22.061  1.00  0.00     0.028 C 
ATOM     17  C   UNL     1     -19.971 -41.008  21.318  1.00  0.00     0.039 C 
ATOM     18  C   UNL     1     -21.706 -42.660  22.054  1.00  0.00     0.017 C 
ENDROOT
BRANCH   1  19
ATOM     19  C   UNL     1     -20.615 -38.547  21.109  1.00  0.00     0.027 C 
ATOM     20  C   UNL     1     -20.935 -38.271  19.646  1.00  0.00     0.008 C 
ENDBRANCH   1  19
BRANCH  14  21
ATOM     21  N   UNL     1     -17.401 -42.873  22.750  1.00  0.00    -0.398 N 
ATOM     22  H   UNL     1     -17.841 -43.347  21.969  1.00  0.00     0.156 HD
ATOM     23  H   UNL     1     -16.823 -42.109  22.418  1.00  0.00     0.156 HD
ENDBRANCH  14  21
TORSDOF 2
ENDMDL
MODEL 6
REMARK VINA RESULT:    -8.131      7.590      9.731
REMARK INTER + INTRA:          -8.927
REMARK INTER:                  -8.826
REMARK INTRA:                  -0.101
REMARK UNBOUND:                -0.083
REMARK SMILES CCC1=C[C@@H]2Cc3nc4cc(Cl)ccc4c(N)c3[C@H](C1)C2
REMARK SMILES IDX 3 1 4 2 5 3 6 4 7 5 8 6 9 7 10 8 11 9 12 10 13 11 14 12
REMARK SMILES IDX 15 13 16 14 18 15 19 16 20 17 21 18 2 19 1 20 17 21
REMARK H PARENT 17 22 17 23
ROOT
ATOM      1  C   UNL     1     -20.820 -44.029  25.686  1.00  0.00    -0.074 C 
ATOM      2  C   UNL     1     -21.549 -43.139  26.388  1.00  0.00    -0.024 C 
ATOM      3  C   UNL     1     -21.067 -41.742  26.719  1.00  0.00     0.018 C 
ATOM      4  C   UNL     1     -21.660 -40.716  25.746  1.00  0.00     0.064 C 
ATOM      5  C   UNL     1     -20.976 -40.682  24.396  1.00  0.00     0.047 A 
ATOM      6  N   UNL     1     -21.606 -39.929  23.464  1.00  0.00    -0.252 NA
ATOM      7  C   UNL     1     -21.036 -39.770  22.266  1.00  0.00     0.074 A 
ATOM      8  C   UNL     1     -21.687 -38.953  21.353  1.00  0.00     0.049 A 
ATOM      9  C   UNL     1     -21.152 -38.705  20.093  1.00  0.00     0.043 A 
ATOM     10  Cl  UNL     1     -21.989 -37.682  18.991  1.00  0.00    -0.084 Cl
ATOM     11  C   UNL     1     -19.943 -39.274  19.724  1.00  0.00     0.021 A 
ATOM     12  C   UNL     1     -19.277 -40.102  20.627  1.00  0.00     0.014 A 
ATOM     13  C   UNL     1     -19.813 -40.379  21.910  1.00  0.00     0.024 A 
ATOM     14  C   UNL     1     -19.200 -41.235  22.870  1.00  0.00     0.046 A 
ATOM     15  C   UNL     1     -19.757 -41.331  24.161  1.00  0.00     0.001 A 
ATOM     16  C   UNL     1     -19.103 -42.147  25.273  1.00  0.00     0.028 C 
ATOM     17  C   UNL     1     -19.450 -43.649  25.145  1.00  0.00     0.039 C 
ATOM     18  C   UNL     1     -19.543 -41.650  26.655  1.00  0.00     0.017 C 
ENDROOT
BRANCH   1  19
ATOM     19  C   UNL     1     -21.257 -45.441  25.352  1.00  0.00     0.027 C 
ATOM     20  C   UNL     1     -22.248 -45.607  24.207  1.00  0.00     0.008 C 
ENDBRANCH   1  19
BRANCH  14  21
ATOM     21  N   UNL     1     -17.937 -41.817  22.598  1.00  0.00    -0.398 N 
ATOM     22  H   UNL     1     -17.359 -41.278  21.965  1.00  0.00     0.156 HD
ATOM     23  H   UNL     1     -17.416 -42.057  23.434  1.00  0.00     0.156 HD
ENDBRANCH  14  21
TORSDOF 2
ENDMDL
MODEL 7
REMARK VINA RESULT:    -8.094      4.723      5.711
REMARK INTER + INTRA:          -8.887
REMARK INTER:                  -8.790
REMARK INTRA:                  -0.097
REMARK UNBOUND:                -0.083
REMARK SMILES CCC1=C[C@@H]2Cc3nc4cc(Cl)ccc4c(N)c3[C@H](C1)C2
REMARK SMILES IDX 3 1 4 2 5 3 6 4 7 5 8 6 9 7 10 8 11 9 12 10 13 11 14 12
REMARK SMILES IDX 15 13 16 14 18 15 19 16 20 17 21 18 2 19 1 20 17 21
REMARK H PARENT 17 22 17 23
ROOT
ATOM      1  C   UNL     1      -8.149 -45.042  30.669  1.00  0.00    -0.074 C 
ATOM      2  C   UNL     1      -8.154 -43.885  29.979  1.00  0.00    -0.024 C 
ATOM      3  C   UNL     1      -9.266 -43.484  29.032  1.00  0.00     0.018 C 
ATOM      4  C   UNL     1     -10.236 -42.510  29.713  1.00  0.00     0.064 C 
ATOM      5  C   UNL     1     -11.216 -43.175  30.655  1.00  0.00     0.047 A 
ATOM      6  N   UNL     1     -11.944 -42.319  31.409  1.00  0.00    -0.252 NA
ATOM      7  C   UNL     1     -12.894 -42.807  32.211  1.00  0.00     0.074 A 
ATOM      8  C   UNL     1     -13.651 -41.896  32.933  1.00  0.00     0.049 A 
ATOM      9  C   UNL     1     -14.682 -42.312  33.770  1.00  0.00     0.043 A 
ATOM     10  Cl  UNL     1     -15.600 -41.150  34.644  1.00  0.00    -0.084 Cl
ATOM     11  C   UNL     1     -14.976 -43.660  33.896  1.00  0.00     0.021 A 
ATOM     12  C   UNL     1     -14.222 -44.592  33.183  1.00  0.00     0.014 A 
ATOM     13  C   UNL     1     -13.158 -44.189  32.336  1.00  0.00     0.024 A 
ATOM     14  C   UNL     1     -12.331 -45.086  31.601  1.00  0.00     0.046 A 
ATOM     15  C   UNL     1     -11.391 -44.565  30.690  1.00  0.00     0.001 A 
ATOM     16  C   UNL     1     -10.540 -45.461  29.793  1.00  0.00     0.028 C 
ATOM     17  C   UNL     1      -9.313 -46.015  30.555  1.00  0.00     0.039 C 
ATOM     18  C   UNL     1     -10.055 -44.702  28.553  1.00  0.00     0.017 C 
ENDROOT
BRANCH   1  19
ATOM     19  C   UNL     1      -7.048 -45.490  31.609  1.00  0.00     0.027 C 
ATOM     20  C   UNL     1      -6.653 -44.528  32.723  1.00  0.00     0.008 C 
ENDBRANCH   1  19
BRANCH  14  21
ATOM     21  N   UNL     1     -12.594 -46.479  31.629  1.00  0.00    -0.398 N 
ATOM     22  H   UNL     1     -11.954 -47.033  31.072  1.00  0.00     0.156 HD
ATOM     23  H   UNL     1     -12.663 -46.856  32.567  1.00  0.00     0.156 HD
ENDBRANCH  14  21
TORSDOF 2
ENDMDL
MODEL 8
REMARK VINA RESULT:    -7.268      5.820      8.768
REMARK INTER + INTRA:          -7.988
REMARK INTER:                  -7.908
REMARK INTRA:                  -0.080
REMARK UNBOUND:                -0.083
REMARK SMILES CCC1=C[C@@H]2Cc3nc4cc(Cl)ccc4c(N)c3[C@H](C1)C2
REMARK SMILES IDX 3 1 4 2 5 3 6 4 7 5 8 6 9 7 10 8 11 9 12 10 13 11 14 12
REMARK SMILES IDX 15 13 16 14 18 15 19 16 20 17 21 18 2 19 1 20 17 21
REMARK H PARENT 17 22 17 23
ROOT
ATOM      1  C   UNL     1     -17.776 -42.456  25.573  1.00  0.00    -0.074 C 
ATOM      2  C   UNL     1     -18.232 -42.567  26.836  1.00  0.00    -0.024 C 
ATOM      3  C   UNL     1     -19.637 -42.187  27.253  1.00  0.00     0.018 C 
ATOM      4  C   UNL     1     -20.533 -43.429  27.345  1.00  0.00     0.064 C 
ATOM      5  C   UNL     1     -21.019 -43.937  26.005  1.00  0.00     0.047 A 
ATOM      6  N   UNL     1     -21.643 -45.138  26.049  1.00  0.00    -0.252 NA
ATOM      7  C   UNL     1     -22.180 -45.632  24.930  1.00  0.00     0.074 A 
ATOM      8  C   UNL     1     -22.853 -46.841  25.025  1.00  0.00     0.049 A 
ATOM      9  C   UNL     1     -23.469 -47.416  23.919  1.00  0.00     0.043 A 
ATOM     10  Cl  UNL     1     -24.297 -48.915  24.079  1.00  0.00    -0.084 Cl
ATOM     11  C   UNL     1     -23.425 -46.780  22.688  1.00  0.00     0.021 A 
ATOM     12  C   UNL     1     -22.748 -45.566  22.571  1.00  0.00     0.014 A 
ATOM     13  C   UNL     1     -22.101 -44.972  23.685  1.00  0.00     0.024 A 
ATOM     14  C   UNL     1     -21.371 -43.750  23.632  1.00  0.00     0.046 A 
ATOM     15  C   UNL     1     -20.882 -43.188  24.829  1.00  0.00     0.001 A 
ATOM     16  C   UNL     1     -20.180 -41.834  24.867  1.00  0.00     0.028 C 
ATOM     17  C   UNL     1     -18.692 -41.962  24.463  1.00  0.00     0.039 C 
ATOM     18  C   UNL     1     -20.264 -41.206  26.262  1.00  0.00     0.017 C 
ENDROOT
BRANCH   1  19
ATOM     19  C   UNL     1     -16.374 -42.806  25.119  1.00  0.00     0.027 C 
ATOM     20  C   UNL     1     -15.339 -43.070  26.206  1.00  0.00     0.008 C 
ENDBRANCH   1  19
BRANCH  14  21
ATOM     21  N   UNL     1     -21.318 -43.006  22.427  1.00  0.00    -0.398 N 
ATOM     22  H   UNL     1     -20.481 -43.165  21.877  1.00  0.00     0.156 HD
ATOM     23  H   UNL     1     -22.145 -43.114  21.850  1.00  0.00     0.156 HD
ENDBRANCH  14  21
TORSDOF 2
ENDMDL
