MODEL 1
REMARK VINA RESULT:   -12.440      0.000      0.000
REMARK INTER + INTRA:         -16.640
REMARK INTER:                 -16.077
REMARK INTRA:                  -0.563
REMARK UNBOUND:                -0.563
REMARK SMILES O=C1C=C(NCCN=c2c3c([nH]c4cc(Cl)ccc24)CCCC3)C(=O)c2ccccc21
REMARK SMILES IDX 7 1 8 2 9 3 12 4 11 5 13 6 10 7 20 8 14 9 19 10 23 11 21 12
REMARK SMILES IDX 15 13 18 14 22 15 17 16 16 18 6 19 5 20 4 22 3 23 24 24 2 25
REMARK SMILES IDX 26 26 31 27 27 28 30 29 28 30 29 31 25 32 1 33
REMARK H PARENT 12 17 5 21
ROOT
ATOM      1  C   UNL     1     -12.450 -44.701  28.471  1.00  0.00     0.164 C 
ENDROOT
BRANCH   1   2
ATOM      2  N   UNL     1     -12.770 -45.108  29.838  1.00  0.00    -0.282 NA
BRANCH   2   3
ATOM      3  C   UNL     1     -12.098 -44.756  30.883  1.00  0.00     0.072 A 
ATOM      4  N   UNL     1     -10.714 -43.104  32.687  1.00  0.00    -0.358 N 
ATOM      5  C   UNL     1     -12.095 -43.112  32.701  1.00  0.00     0.021 A 
ATOM      6  C   UNL     1     -10.007 -44.162  32.091  1.00  0.00     0.049 A 
ATOM      7  C   UNL     1     -12.826 -43.905  31.892  1.00  0.00    -0.003 A 
ATOM      8  C   UNL     1     -12.761 -42.165  33.676  1.00  0.00     0.054 C 
ATOM      9  C   UNL     1      -8.644 -44.335  32.360  1.00  0.00     0.047 A 
ATOM     10  C   UNL     1     -10.663 -45.044  31.210  1.00  0.00     0.024 A 
ATOM     11  C   UNL     1     -14.330 -43.939  31.881  1.00  0.00     0.039 C 
ATOM     12  C   UNL     1     -14.251 -41.944  33.407  1.00  0.00     0.007 C 
ATOM     13  C   UNL     1      -7.962 -45.426  31.826  1.00  0.00     0.043 A 
ATOM     14  C   UNL     1      -9.980 -46.169  30.731  1.00  0.00     0.014 A 
ATOM     15  C   UNL     1     -14.951 -43.263  33.103  1.00  0.00     0.005 C 
ATOM     16  C   UNL     1      -8.628 -46.354  31.030  1.00  0.00     0.021 A 
ATOM     17  H   UNL     1     -10.256 -42.617  33.451  1.00  0.00     0.166 HD
ATOM     18  Cl  UNL     1      -6.293 -45.647  32.180  1.00  0.00    -0.084 Cl
ENDBRANCH   2   3
ENDBRANCH   1   2
BRANCH   1  19
ATOM     19  C   UNL     1     -13.728 -44.790  27.617  1.00  0.00     0.136 C 
BRANCH  19  20
ATOM     20  N   UNL     1     -14.081 -43.481  27.061  1.00  0.00    -0.380 N 
ATOM     21  H   UNL     1     -13.294 -43.142  26.505  1.00  0.00     0.160 HD
BRANCH  20  22
ATOM     22  C   UNL     1     -15.306 -43.133  26.481  1.00  0.00     0.087 C 
ATOM     23  C   UNL     1     -15.454 -43.129  25.147  1.00  0.00     0.082 C 
ATOM     24  C   UNL     1     -16.498 -42.757  27.337  1.00  0.00     0.209 C 
ATOM     25  C   UNL     1     -16.701 -42.777  24.452  1.00  0.00     0.188 C 
ATOM     26  C   UNL     1     -17.754 -42.368  26.659  1.00  0.00     0.035 A 
ATOM     27  C   UNL     1     -17.853 -42.380  25.272  1.00  0.00     0.033 A 
ATOM     28  C   UNL     1     -18.865 -41.988  27.427  1.00  0.00     0.013 A 
ATOM     29  C   UNL     1     -19.054 -42.016  24.647  1.00  0.00     0.013 A 
ATOM     30  C   UNL     1     -20.061 -41.624  26.806  1.00  0.00     0.001 A 
ATOM     31  C   UNL     1     -20.155 -41.638  25.415  1.00  0.00     0.001 A 
ATOM     32  O   UNL     1     -16.473 -42.777  28.564  1.00  0.00    -0.287 OA
ATOM     33  O   UNL     1     -16.762 -42.815  23.230  1.00  0.00    -0.289 OA
ENDBRANCH  20  22
ENDBRANCH  19  20
ENDBRANCH   1  19
TORSDOF 5
ENDMDL
MODEL 2
REMARK VINA RESULT:   -12.153      2.190      4.061
REMARK INTER + INTRA:         -16.268
REMARK INTER:                 -15.783
REMARK INTRA:                  -0.485
REMARK UNBOUND:                -0.563
REMARK SMILES O=C1C=C(NCCN=c2c3c([nH]c4cc(Cl)ccc24)CCCC3)C(=O)c2ccccc21
REMARK SMILES IDX 7 1 8 2 9 3 12 4 11 5 13 6 10 7 20 8 14 9 19 10 23 11 21 12
REMARK SMILES IDX 15 13 18 14 22 15 17 16 16 18 6 19 5 20 4 22 3 23 24 24 2 25
REMARK SMILES IDX 26 26 31 27 27 28 30 29 28 30 29 31 25 32 1 33
REMARK H PARENT 12 17 5 21
ROOT
ATOM      1  C   UNL     1     -13.169 -46.128  30.241  1.00  0.00     0.164 C 
ENDROOT
BRANCH   1   2
ATOM      2  N   UNL     1     -12.008 -45.895  31.097  1.00  0.00    -0.282 NA
BRANCH   2   3
ATOM      3  C   UNL     1     -11.721 -44.763  31.651  1.00  0.00     0.072 A 
ATOM      4  N   UNL     1     -10.726 -42.937  33.541  1.00  0.00    -0.358 N 
ATOM      5  C   UNL     1      -9.853 -43.533  32.653  1.00  0.00     0.021 A 
ATOM      6  C   UNL     1     -12.105 -42.915  33.270  1.00  0.00     0.049 A 
ATOM      7  C   UNL     1     -10.262 -44.391  31.696  1.00  0.00    -0.003 A 
ATOM      8  C   UNL     1      -8.389 -43.183  32.814  1.00  0.00     0.054 C 
ATOM      9  C   UNL     1     -12.944 -42.040  33.970  1.00  0.00     0.047 A 
ATOM     10  C   UNL     1     -12.650 -43.782  32.303  1.00  0.00     0.024 A 
ATOM     11  C   UNL     1      -9.338 -45.058  30.714  1.00  0.00     0.039 C 
ATOM     12  C   UNL     1      -7.440 -44.124  32.070  1.00  0.00     0.007 C 
ATOM     13  C   UNL     1     -14.298 -41.968  33.649  1.00  0.00     0.043 A 
ATOM     14  C   UNL     1     -13.998 -43.654  31.949  1.00  0.00     0.014 A 
ATOM     15  C   UNL     1      -7.953 -44.415  30.665  1.00  0.00     0.005 C 
ATOM     16  C   UNL     1     -14.824 -42.756  32.629  1.00  0.00     0.021 A 
ATOM     17  H   UNL     1     -10.354 -42.174  34.098  1.00  0.00     0.166 HD
ATOM     18  Cl  UNL     1     -15.320 -40.874  34.497  1.00  0.00    -0.084 Cl
ENDBRANCH   2   3
ENDBRANCH   1   2
BRANCH   1  19
ATOM     19  C   UNL     1     -12.816 -45.703  28.804  1.00  0.00     0.136 C 
BRANCH  19  20
ATOM     20  N   UNL     1     -13.275 -44.337  28.532  1.00  0.00    -0.380 N 
ATOM     21  H   UNL     1     -12.466 -43.714  28.552  1.00  0.00     0.160 HD
BRANCH  20  22
ATOM     22  C   UNL     1     -14.192 -43.956  27.547  1.00  0.00     0.087 C 
ATOM     23  C   UNL     1     -13.894 -44.092  26.246  1.00  0.00     0.082 C 
ATOM     24  C   UNL     1     -15.545 -43.385  27.918  1.00  0.00     0.209 C 
ATOM     25  C   UNL     1     -14.794 -43.717  25.145  1.00  0.00     0.188 C 
ATOM     26  C   UNL     1     -16.454 -42.970  26.828  1.00  0.00     0.035 A 
ATOM     27  C   UNL     1     -16.096 -43.132  25.494  1.00  0.00     0.033 A 
ATOM     28  C   UNL     1     -17.702 -42.411  27.144  1.00  0.00     0.013 A 
ATOM     29  C   UNL     1     -16.974 -42.741  24.474  1.00  0.00     0.013 A 
ATOM     30  C   UNL     1     -18.577 -42.021  26.129  1.00  0.00     0.001 A 
ATOM     31  C   UNL     1     -18.213 -42.185  24.793  1.00  0.00     0.001 A 
ATOM     32  O   UNL     1     -15.925 -43.266  29.079  1.00  0.00    -0.287 OA
ATOM     33  O   UNL     1     -14.457 -43.889  23.981  1.00  0.00    -0.289 OA
ENDBRANCH  20  22
ENDBRANCH  19  20
ENDBRANCH   1  19
TORSDOF 5
ENDMDL
MODEL 3
REMARK VINA RESULT:   -11.910      1.016      2.058
REMARK INTER + INTRA:         -15.955
REMARK INTER:                 -15.267
REMARK INTRA:                  -0.688
REMARK UNBOUND:                -0.563
REMARK SMILES O=C1C=C(NCCN=c2c3c([nH]c4cc(Cl)ccc24)CCCC3)C(=O)c2ccccc21
REMARK SMILES IDX 7 1 8 2 9 3 12 4 11 5 13 6 10 7 20 8 14 9 19 10 23 11 21 12
REMARK SMILES IDX 15 13 18 14 22 15 17 16 16 18 6 19 5 20 4 22 3 23 24 24 2 25
REMARK SMILES IDX 26 26 31 27 27 28 30 29 28 30 29 31 25 32 1 33
REMARK H PARENT 12 17 5 21
ROOT
ATOM      1  C   UNL     1     -12.648 -45.589  28.708  1.00  0.00     0.164 C 
ENDROOT
BRANCH   1   2
ATOM      2  N   UNL     1     -12.909 -45.710  30.141  1.00  0.00    -0.282 NA
BRANCH   2   3
ATOM      3  C   UNL     1     -12.185 -45.171  31.065  1.00  0.00     0.072 A 
ATOM      4  N   UNL     1     -10.760 -43.203  32.477  1.00  0.00    -0.358 N 
ATOM      5  C   UNL     1     -12.134 -43.257  32.595  1.00  0.00     0.021 A 
ATOM      6  C   UNL     1     -10.046 -44.317  32.005  1.00  0.00     0.049 A 
ATOM      7  C   UNL     1     -12.881 -44.195  31.978  1.00  0.00    -0.003 A 
ATOM      8  C   UNL     1     -12.776 -42.190  33.456  1.00  0.00     0.054 C 
ATOM      9  C   UNL     1      -8.662 -44.397  32.196  1.00  0.00     0.047 A 
ATOM     10  C   UNL     1     -10.718 -45.352  31.325  1.00  0.00     0.024 A 
ATOM     11  C   UNL     1     -14.379 -44.283  32.085  1.00  0.00     0.039 C 
ATOM     12  C   UNL     1     -14.290 -42.067  33.266  1.00  0.00     0.007 C 
ATOM     13  C   UNL     1      -7.967 -45.535  31.792  1.00  0.00     0.043 A 
ATOM     14  C   UNL     1     -10.019 -46.514  30.981  1.00  0.00     0.014 A 
ATOM     15  C   UNL     1     -14.947 -43.441  33.227  1.00  0.00     0.005 C 
ATOM     16  C   UNL     1      -8.642 -46.601  31.204  1.00  0.00     0.021 A 
ATOM     17  H   UNL     1     -10.274 -42.584  33.119  1.00  0.00     0.166 HD
ATOM     18  Cl  UNL     1      -6.269 -45.637  32.051  1.00  0.00    -0.084 Cl
ENDBRANCH   2   3
ENDBRANCH   1   2
BRANCH   1  19
ATOM     19  C   UNL     1     -12.612 -44.096  28.337  1.00  0.00     0.136 C 
BRANCH  19  20
ATOM     20  N   UNL     1     -13.096 -43.881  26.970  1.00  0.00    -0.380 N 
ATOM     21  H   UNL     1     -12.781 -44.660  26.389  1.00  0.00     0.160 HD
BRANCH  20  22
ATOM     22  C   UNL     1     -14.379 -43.456  26.606  1.00  0.00     0.087 C 
ATOM     23  C   UNL     1     -15.301 -43.186  27.542  1.00  0.00     0.082 C 
ATOM     24  C   UNL     1     -14.762 -43.285  25.150  1.00  0.00     0.209 C 
ATOM     25  C   UNL     1     -16.671 -42.736  27.251  1.00  0.00     0.188 C 
ATOM     26  C   UNL     1     -16.143 -42.864  24.833  1.00  0.00     0.035 A 
ATOM     27  C   UNL     1     -17.062 -42.597  25.843  1.00  0.00     0.033 A 
ATOM     28  C   UNL     1     -16.533 -42.726  23.492  1.00  0.00     0.013 A 
ATOM     29  C   UNL     1     -18.365 -42.192  25.523  1.00  0.00     0.013 A 
ATOM     30  C   UNL     1     -17.830 -42.323  23.172  1.00  0.00     0.001 A 
ATOM     31  C   UNL     1     -18.747 -42.056  24.188  1.00  0.00     0.001 A 
ATOM     32  O   UNL     1     -13.973 -43.463  24.227  1.00  0.00    -0.287 OA
ATOM     33  O   UNL     1     -17.450 -42.491  28.164  1.00  0.00    -0.289 OA
ENDBRANCH  20  22
ENDBRANCH  19  20
ENDBRANCH   1  19
TORSDOF 5
ENDMDL
MODEL 4
REMARK VINA RESULT:   -11.866      4.447      9.747
REMARK INTER + INTRA:         -15.897
REMARK INTER:                 -15.809
REMARK INTRA:                  -0.087
REMARK UNBOUND:                -0.563
REMARK SMILES O=C1C=C(NCCN=c2c3c([nH]c4cc(Cl)ccc24)CCCC3)C(=O)c2ccccc21
REMARK SMILES IDX 7 1 8 2 9 3 12 4 11 5 13 6 10 7 20 8 14 9 19 10 23 11 21 12
REMARK SMILES IDX 15 13 18 14 22 15 17 16 16 18 6 19 5 20 4 22 3 23 24 24 2 25
REMARK SMILES IDX 26 26 31 27 27 28 30 29 28 30 29 31 25 32 1 33
REMARK H PARENT 12 17 5 21
ROOT
ATOM      1  C   UNL     1     -14.003 -42.790  25.269  1.00  0.00     0.164 C 
ENDROOT
BRANCH   1   2
ATOM      2  N   UNL     1     -15.331 -43.347  25.018  1.00  0.00    -0.282 NA
BRANCH   2   3
ATOM      3  C   UNL     1     -16.424 -42.660  25.015  1.00  0.00     0.072 A 
ATOM      4  N   UNL     1     -19.177 -42.096  25.096  1.00  0.00    -0.358 N 
ATOM      5  C   UNL     1     -18.505 -42.356  26.274  1.00  0.00     0.021 A 
ATOM      6  C   UNL     1     -18.464 -41.723  23.944  1.00  0.00     0.049 A 
ATOM      7  C   UNL     1     -17.179 -42.598  26.318  1.00  0.00    -0.003 A 
ATOM      8  C   UNL     1     -19.343 -42.368  27.535  1.00  0.00     0.054 C 
ATOM      9  C   UNL     1     -19.134 -41.140  22.862  1.00  0.00     0.047 A 
ATOM     10  C   UNL     1     -17.076 -41.947  23.867  1.00  0.00     0.024 A 
ATOM     11  C   UNL     1     -16.417 -42.885  27.583  1.00  0.00     0.039 C 
ATOM     12  C   UNL     1     -18.646 -43.007  28.738  1.00  0.00     0.007 C 
ATOM     13  C   UNL     1     -18.416 -40.705  21.751  1.00  0.00     0.043 A 
ATOM     14  C   UNL     1     -16.360 -41.448  22.772  1.00  0.00     0.014 A 
ATOM     15  C   UNL     1     -17.202 -42.532  28.846  1.00  0.00     0.005 C 
ATOM     16  C   UNL     1     -17.031 -40.838  21.710  1.00  0.00     0.021 A 
ATOM     17  H   UNL     1     -20.126 -41.747  25.184  1.00  0.00     0.166 HD
ATOM     18  Cl  UNL     1     -19.243 -39.967  20.434  1.00  0.00    -0.084 Cl
ENDBRANCH   2   3
ENDBRANCH   1   2
BRANCH   1  19
ATOM     19  C   UNL     1     -13.308 -43.639  26.348  1.00  0.00     0.136 C 
BRANCH  19  20
ATOM     20  N   UNL     1     -12.595 -42.790  27.307  1.00  0.00    -0.380 N 
ATOM     21  H   UNL     1     -13.282 -42.239  27.825  1.00  0.00     0.160 HD
BRANCH  20  22
ATOM     22  C   UNL     1     -11.530 -43.184  28.126  1.00  0.00     0.087 C 
ATOM     23  C   UNL     1     -10.390 -42.477  28.150  1.00  0.00     0.082 C 
ATOM     24  C   UNL     1     -11.635 -44.409  29.010  1.00  0.00     0.209 C 
ATOM     25  C   UNL     1      -9.222 -42.816  28.977  1.00  0.00     0.188 C 
ATOM     26  C   UNL     1     -10.462 -44.788  29.826  1.00  0.00     0.035 A 
ATOM     27  C   UNL     1      -9.301 -44.021  29.814  1.00  0.00     0.033 A 
ATOM     28  C   UNL     1     -10.521 -45.936  30.631  1.00  0.00     0.013 A 
ATOM     29  C   UNL     1      -8.202 -44.391  30.600  1.00  0.00     0.013 A 
ATOM     30  C   UNL     1      -9.427 -46.306  31.414  1.00  0.00     0.001 A 
ATOM     31  C   UNL     1      -8.266 -45.533  31.398  1.00  0.00     0.001 A 
ATOM     32  O   UNL     1     -12.653 -45.090  29.090  1.00  0.00    -0.287 OA
ATOM     33  O   UNL     1      -8.221 -42.110  28.958  1.00  0.00    -0.289 OA
ENDBRANCH  20  22
ENDBRANCH  19  20
ENDBRANCH   1  19
TORSDOF 5
ENDMDL
MODEL 5
REMARK VINA RESULT:   -11.526      4.028      9.810
REMARK INTER + INTRA:         -15.458
REMARK INTER:                 -14.889
REMARK INTRA:                  -0.569
REMARK UNBOUND:                -0.563
REMARK SMILES O=C1C=C(NCCN=c2c3c([nH]c4cc(Cl)ccc24)CCCC3)C(=O)c2ccccc21
REMARK SMILES IDX 7 1 8 2 9 3 12 4 11 5 13 6 10 7 20 8 14 9 19 10 23 11 21 12
REMARK SMILES IDX 15 13 18 14 22 15 17 16 16 18 6 19 5 20 4 22 3 23 24 24 2 25
REMARK SMILES IDX 26 26 31 27 27 28 30 29 28 30 29 31 25 32 1 33
REMARK H PARENT 12 17 5 21
ROOT
ATOM      1  C   UNL     1     -17.113 -42.815  29.577  1.00  0.00     0.164 C 
ENDROOT
BRANCH   1   2
ATOM      2  N   UNL     1     -16.690 -42.115  28.366  1.00  0.00    -0.282 NA
BRANCH   2   3
ATOM      3  C   UNL     1     -17.111 -42.391  27.176  1.00  0.00     0.072 A 
ATOM      4  N   UNL     1     -17.378 -42.249  24.382  1.00  0.00    -0.358 N 
ATOM      5  C   UNL     1     -16.298 -42.916  24.925  1.00  0.00     0.021 A 
ATOM      6  C   UNL     1     -18.518 -41.997  25.164  1.00  0.00     0.049 A 
ATOM      7  C   UNL     1     -16.123 -43.057  26.254  1.00  0.00    -0.003 A 
ATOM      8  C   UNL     1     -15.296 -43.482  23.941  1.00  0.00     0.054 C 
ATOM      9  C   UNL     1     -19.724 -41.635  24.551  1.00  0.00     0.047 A 
ATOM     10  C   UNL     1     -18.449 -42.093  26.567  1.00  0.00     0.024 A 
ATOM     11  C   UNL     1     -14.958 -43.776  26.878  1.00  0.00     0.039 C 
ATOM     12  C   UNL     1     -13.961 -43.880  24.574  1.00  0.00     0.007 C 
ATOM     13  C   UNL     1     -20.870 -41.455  25.322  1.00  0.00     0.043 A 
ATOM     14  C   UNL     1     -19.622 -41.971  27.322  1.00  0.00     0.014 A 
ATOM     15  C   UNL     1     -14.182 -44.634  25.880  1.00  0.00     0.005 C 
ATOM     16  C   UNL     1     -20.830 -41.641  26.700  1.00  0.00     0.021 A 
ATOM     17  H   UNL     1     -17.520 -42.354  23.383  1.00  0.00     0.166 HD
ATOM     18  Cl  UNL     1     -22.355 -41.034  24.560  1.00  0.00    -0.084 Cl
ENDBRANCH   2   3
ENDBRANCH   1   2
BRANCH   1  19
ATOM     19  C   UNL     1     -15.976 -42.740  30.613  1.00  0.00     0.136 C 
BRANCH  19  20
ATOM     20  N   UNL     1     -15.174 -43.967  30.603  1.00  0.00    -0.380 N 
ATOM     21  H   UNL     1     -15.344 -44.458  29.724  1.00  0.00     0.160 HD
BRANCH  20  22
ATOM     22  C   UNL     1     -13.839 -44.084  31.006  1.00  0.00     0.087 C 
ATOM     23  C   UNL     1     -13.286 -43.165  31.813  1.00  0.00     0.082 C 
ATOM     24  C   UNL     1     -12.984 -45.248  30.550  1.00  0.00     0.209 C 
ATOM     25  C   UNL     1     -11.893 -43.207  32.284  1.00  0.00     0.188 C 
ATOM     26  C   UNL     1     -11.572 -45.294  30.985  1.00  0.00     0.035 A 
ATOM     27  C   UNL     1     -11.046 -44.314  31.822  1.00  0.00     0.033 A 
ATOM     28  C   UNL     1     -10.749 -46.345  30.553  1.00  0.00     0.013 A 
ATOM     29  C   UNL     1      -9.707 -44.379  32.230  1.00  0.00     0.013 A 
ATOM     30  C   UNL     1      -9.415 -46.410  30.959  1.00  0.00     0.001 A 
ATOM     31  C   UNL     1      -8.894 -45.426  31.798  1.00  0.00     0.001 A 
ATOM     32  O   UNL     1     -13.415 -46.160  29.850  1.00  0.00    -0.287 OA
ATOM     33  O   UNL     1     -11.466 -42.340  33.036  1.00  0.00    -0.289 OA
ENDBRANCH  20  22
ENDBRANCH  19  20
ENDBRANCH   1  19
TORSDOF 5
ENDMDL
MODEL 6
REMARK VINA RESULT:   -11.404      4.180      9.699
REMARK INTER + INTRA:         -15.301
REMARK INTER:                 -14.682
REMARK INTRA:                  -0.619
REMARK UNBOUND:                -0.563
REMARK SMILES O=C1C=C(NCCN=c2c3c([nH]c4cc(Cl)ccc24)CCCC3)C(=O)c2ccccc21
REMARK SMILES IDX 7 1 8 2 9 3 12 4 11 5 13 6 10 7 20 8 14 9 19 10 23 11 21 12
REMARK SMILES IDX 15 13 18 14 22 15 17 16 16 18 6 19 5 20 4 22 3 23 24 24 2 25
REMARK SMILES IDX 26 26 31 27 27 28 30 29 28 30 29 31 25 32 1 33
REMARK H PARENT 12 17 5 21
ROOT
ATOM      1  C   UNL     1     -16.826 -43.135  29.262  1.00  0.00     0.164 C 
ENDROOT
BRANCH   1   2
ATOM      2  N   UNL     1     -16.746 -42.179  28.159  1.00  0.00    -0.282 NA
BRANCH   2   3
ATOM      3  C   UNL     1     -17.253 -42.370  26.986  1.00  0.00     0.072 A 
ATOM      4  N   UNL     1     -17.727 -42.026  24.238  1.00  0.00    -0.358 N 
ATOM      5  C   UNL     1     -16.609 -42.725  24.649  1.00  0.00     0.021 A 
ATOM      6  C   UNL     1     -18.806 -41.839  25.118  1.00  0.00     0.049 A 
ATOM      7  C   UNL     1     -16.335 -42.961  25.948  1.00  0.00    -0.003 A 
ATOM      8  C   UNL     1     -15.682 -43.211  23.555  1.00  0.00     0.054 C 
ATOM      9  C   UNL     1     -20.054 -41.441  24.623  1.00  0.00     0.047 A 
ATOM     10  C   UNL     1     -18.633 -42.036  26.501  1.00  0.00     0.024 A 
ATOM     11  C   UNL     1     -15.127 -43.717  26.429  1.00  0.00     0.039 C 
ATOM     12  C   UNL     1     -14.303 -43.646  24.056  1.00  0.00     0.007 C 
ATOM     13  C   UNL     1     -21.140 -41.325  25.488  1.00  0.00     0.043 A 
ATOM     14  C   UNL     1     -19.747 -41.977  27.347  1.00  0.00     0.014 A 
ATOM     15  C   UNL     1     -14.426 -44.494  25.316  1.00  0.00     0.005 C 
ATOM     16  C   UNL     1     -20.997 -41.611  26.842  1.00  0.00     0.021 A 
ATOM     17  H   UNL     1     -17.942 -42.059  23.246  1.00  0.00     0.166 HD
ATOM     18  Cl  UNL     1     -22.677 -40.858  24.870  1.00  0.00    -0.084 Cl
ENDBRANCH   2   3
ENDBRANCH   1   2
BRANCH   1  19
ATOM     19  C   UNL     1     -15.484 -43.132  30.016  1.00  0.00     0.136 C 
BRANCH  19  20
ATOM     20  N   UNL     1     -15.015 -44.499  30.258  1.00  0.00    -0.380 N 
ATOM     21  H   UNL     1     -15.721 -45.151  29.911  1.00  0.00     0.160 HD
BRANCH  20  22
ATOM     22  C   UNL     1     -13.720 -44.980  30.034  1.00  0.00     0.087 C 
ATOM     23  C   UNL     1     -13.398 -45.557  28.866  1.00  0.00     0.082 C 
ATOM     24  C   UNL     1     -12.646 -44.861  31.095  1.00  0.00     0.209 C 
ATOM     25  C   UNL     1     -12.066 -46.091  28.543  1.00  0.00     0.188 C 
ATOM     26  C   UNL     1     -11.308 -45.419  30.806  1.00  0.00     0.035 A 
ATOM     27  C   UNL     1     -11.027 -46.009  29.577  1.00  0.00     0.033 A 
ATOM     28  C   UNL     1     -10.303 -45.348  31.783  1.00  0.00     0.013 A 
ATOM     29  C   UNL     1      -9.750 -46.526  29.318  1.00  0.00     0.013 A 
ATOM     30  C   UNL     1      -9.031 -45.863  31.525  1.00  0.00     0.001 A 
ATOM     31  C   UNL     1      -8.755 -46.452  30.293  1.00  0.00     0.001 A 
ATOM     32  O   UNL     1     -12.833 -44.308  32.175  1.00  0.00    -0.287 OA
ATOM     33  O   UNL     1     -11.845 -46.587  27.446  1.00  0.00    -0.289 OA
ENDBRANCH  20  22
ENDBRANCH  19  20
ENDBRANCH   1  19
TORSDOF 5
ENDMDL
MODEL 7
REMARK VINA RESULT:   -11.129      1.821      3.864
REMARK INTER + INTRA:         -14.945
REMARK INTER:                 -14.703
REMARK INTRA:                  -0.242
REMARK UNBOUND:                -0.563
REMARK SMILES O=C1C=C(NCCN=c2c3c([nH]c4cc(Cl)ccc24)CCCC3)C(=O)c2ccccc21
REMARK SMILES IDX 7 1 8 2 9 3 12 4 11 5 13 6 10 7 20 8 14 9 19 10 23 11 21 12
REMARK SMILES IDX 15 13 18 14 22 15 17 16 16 18 6 19 5 20 4 22 3 23 24 24 2 25
REMARK SMILES IDX 26 26 31 27 27 28 30 29 28 30 29 31 25 32 1 33
REMARK H PARENT 12 17 5 21
ROOT
ATOM      1  C   UNL     1     -15.035 -43.074  31.239  1.00  0.00     0.164 C 
ENDROOT
BRANCH   1   2
ATOM      2  N   UNL     1     -14.360 -44.294  30.801  1.00  0.00    -0.282 NA
BRANCH   2   3
ATOM      3  C   UNL     1     -13.090 -44.391  30.585  1.00  0.00     0.072 A 
ATOM      4  N   UNL     1     -10.546 -45.558  30.333  1.00  0.00    -0.358 N 
ATOM      5  C   UNL     1     -11.452 -45.683  29.299  1.00  0.00     0.021 A 
ATOM      6  C   UNL     1     -10.714 -44.555  31.303  1.00  0.00     0.049 A 
ATOM      7  C   UNL     1     -12.677 -45.120  29.333  1.00  0.00    -0.003 A 
ATOM      8  C   UNL     1     -11.004 -46.507  28.110  1.00  0.00     0.054 C 
ATOM      9  C   UNL     1      -9.650 -44.204  32.142  1.00  0.00     0.047 A 
ATOM     10  C   UNL     1     -11.958 -43.910  31.445  1.00  0.00     0.024 A 
ATOM     11  C   UNL     1     -13.688 -45.237  28.226  1.00  0.00     0.039 C 
ATOM     12  C   UNL     1     -12.143 -46.918  27.175  1.00  0.00     0.007 C 
ATOM     13  C   UNL     1      -9.797 -43.161  33.053  1.00  0.00     0.043 A 
ATOM     14  C   UNL     1     -12.071 -42.824  32.321  1.00  0.00     0.014 A 
ATOM     15  C   UNL     1     -13.085 -45.748  26.918  1.00  0.00     0.005 C 
ATOM     16  C   UNL     1     -10.995 -42.457  33.132  1.00  0.00     0.021 A 
ATOM     17  H   UNL     1      -9.595 -45.856  30.140  1.00  0.00     0.166 HD
ATOM     18  Cl  UNL     1      -8.477 -42.718  34.065  1.00  0.00    -0.084 Cl
ENDBRANCH   2   3
ENDBRANCH   1   2
BRANCH   1  19
ATOM     19  C   UNL     1     -16.308 -42.884  30.394  1.00  0.00     0.136 C 
BRANCH  19  20
ATOM     20  N   UNL     1     -16.032 -43.105  28.972  1.00  0.00    -0.380 N 
ATOM     21  H   UNL     1     -15.648 -44.045  28.858  1.00  0.00     0.160 HD
BRANCH  20  22
ATOM     22  C   UNL     1     -16.870 -42.762  27.905  1.00  0.00     0.087 C 
ATOM     23  C   UNL     1     -18.142 -42.395  28.126  1.00  0.00     0.082 C 
ATOM     24  C   UNL     1     -16.369 -42.790  26.476  1.00  0.00     0.209 C 
ATOM     25  C   UNL     1     -19.092 -42.020  27.068  1.00  0.00     0.188 C 
ATOM     26  C   UNL     1     -17.316 -42.448  25.393  1.00  0.00     0.035 A 
ATOM     27  C   UNL     1     -18.625 -42.074  25.677  1.00  0.00     0.033 A 
ATOM     28  C   UNL     1     -16.885 -42.494  24.058  1.00  0.00     0.013 A 
ATOM     29  C   UNL     1     -19.507 -41.746  24.638  1.00  0.00     0.013 A 
ATOM     30  C   UNL     1     -17.763 -42.167  23.023  1.00  0.00     0.001 A 
ATOM     31  C   UNL     1     -19.074 -41.793  23.313  1.00  0.00     0.001 A 
ATOM     32  O   UNL     1     -15.210 -43.067  26.180  1.00  0.00    -0.287 OA
ATOM     33  O   UNL     1     -20.233 -41.677  27.352  1.00  0.00    -0.289 OA
ENDBRANCH  20  22
ENDBRANCH  19  20
ENDBRANCH   1  19
TORSDOF 5
ENDMDL
MODEL 8
REMARK VINA RESULT:   -10.416      5.690     11.457
REMARK INTER + INTRA:         -14.024
REMARK INTER:                 -13.597
REMARK INTRA:                  -0.427
REMARK UNBOUND:                -0.563
REMARK SMILES O=C1C=C(NCCN=c2c3c([nH]c4cc(Cl)ccc24)CCCC3)C(=O)c2ccccc21
REMARK SMILES IDX 7 1 8 2 9 3 12 4 11 5 13 6 10 7 20 8 14 9 19 10 23 11 21 12
REMARK SMILES IDX 15 13 18 14 22 15 17 16 16 18 6 19 5 20 4 22 3 23 24 24 2 25
REMARK SMILES IDX 26 26 31 27 27 28 30 29 28 30 29 31 25 32 1 33
REMARK H PARENT 12 17 5 21
ROOT
ATOM      1  C   UNL     1     -18.123 -41.582  22.839  1.00  0.00     0.164 C 
ENDROOT
BRANCH   1   2
ATOM      2  N   UNL     1     -19.555 -41.819  23.008  1.00  0.00    -0.282 NA
BRANCH   2   3
ATOM      3  C   UNL     1     -20.445 -40.888  23.106  1.00  0.00     0.072 A 
ATOM      4  N   UNL     1     -22.971 -39.678  23.336  1.00  0.00    -0.358 N 
ATOM      5  C   UNL     1     -22.368 -40.203  24.462  1.00  0.00     0.021 A 
ATOM      6  C   UNL     1     -22.205 -39.385  22.196  1.00  0.00     0.049 A 
ATOM      7  C   UNL     1     -21.143 -40.766  24.436  1.00  0.00    -0.003 A 
ATOM      8  C   UNL     1     -23.165 -40.128  25.747  1.00  0.00     0.054 C 
ATOM      9  C   UNL     1     -22.726 -38.557  21.195  1.00  0.00     0.047 A 
ATOM     10  C   UNL     1     -20.916 -39.933  22.049  1.00  0.00     0.024 A 
ATOM     11  C   UNL     1     -20.458 -41.347  25.642  1.00  0.00     0.039 C 
ATOM     12  C   UNL     1     -22.631 -41.028  26.863  1.00  0.00     0.007 C 
ATOM     13  C   UNL     1     -21.938 -38.209  20.100  1.00  0.00     0.043 A 
ATOM     14  C   UNL     1     -20.115 -39.525  20.976  1.00  0.00     0.014 A 
ATOM     15  C   UNL     1     -21.113 -40.933  26.959  1.00  0.00     0.005 C 
ATOM     16  C   UNL     1     -20.630 -38.672  19.996  1.00  0.00     0.021 A 
ATOM     17  H   UNL     1     -23.803 -39.117  23.489  1.00  0.00     0.166 HD
ATOM     18  Cl  UNL     1     -22.575 -37.171  18.884  1.00  0.00    -0.084 Cl
ENDBRANCH   2   3
ENDBRANCH   1   2
BRANCH   1  19
ATOM     19  C   UNL     1     -17.361 -42.858  23.237  1.00  0.00     0.136 C 
BRANCH  19  20
ATOM     20  N   UNL     1     -16.102 -42.530  23.914  1.00  0.00    -0.380 N 
ATOM     21  H   UNL     1     -15.981 -41.516  23.898  1.00  0.00     0.160 HD
BRANCH  20  22
ATOM     22  C   UNL     1     -15.641 -43.084  25.113  1.00  0.00     0.087 C 
ATOM     23  C   UNL     1     -16.108 -42.646  26.292  1.00  0.00     0.082 C 
ATOM     24  C   UNL     1     -14.608 -44.192  25.117  1.00  0.00     0.209 C 
ATOM     25  C   UNL     1     -15.680 -43.167  27.599  1.00  0.00     0.188 C 
ATOM     26  C   UNL     1     -14.139 -44.709  26.420  1.00  0.00     0.035 A 
ATOM     27  C   UNL     1     -14.656 -44.219  27.615  1.00  0.00     0.033 A 
ATOM     28  C   UNL     1     -13.161 -45.716  26.453  1.00  0.00     0.013 A 
ATOM     29  C   UNL     1     -14.205 -44.727  28.841  1.00  0.00     0.013 A 
ATOM     30  C   UNL     1     -12.711 -46.222  27.674  1.00  0.00     0.001 A 
ATOM     31  C   UNL     1     -13.233 -45.727  28.868  1.00  0.00     0.001 A 
ATOM     32  O   UNL     1     -14.157 -44.689  24.089  1.00  0.00    -0.287 OA
ATOM     33  O   UNL     1     -16.168 -42.727  28.633  1.00  0.00    -0.289 OA
ENDBRANCH  20  22
ENDBRANCH  19  20
ENDBRANCH   1  19
TORSDOF 5
ENDMDL
MODEL 9
REMARK VINA RESULT:   -10.385      5.153      8.529
REMARK INTER + INTRA:         -13.983
REMARK INTER:                 -13.367
REMARK INTRA:                  -0.616
REMARK UNBOUND:                -0.563
REMARK SMILES O=C1C=C(NCCN=c2c3c([nH]c4cc(Cl)ccc24)CCCC3)C(=O)c2ccccc21
REMARK SMILES IDX 7 1 8 2 9 3 12 4 11 5 13 6 10 7 20 8 14 9 19 10 23 11 21 12
REMARK SMILES IDX 15 13 18 14 22 15 17 16 16 18 6 19 5 20 4 22 3 23 24 24 2 25
REMARK SMILES IDX 26 26 31 27 27 28 30 29 28 30 29 31 25 32 1 33
REMARK H PARENT 12 17 5 21
ROOT
ATOM      1  C   UNL     1     -16.504 -41.248  22.478  1.00  0.00     0.164 C 
ENDROOT
BRANCH   1   2
ATOM      2  N   UNL     1     -17.284 -42.328  23.080  1.00  0.00    -0.282 NA
BRANCH   2   3
ATOM      3  C   UNL     1     -17.254 -42.642  24.333  1.00  0.00     0.072 A 
ATOM      4  N   UNL     1     -17.180 -42.321  27.124  1.00  0.00    -0.358 N 
ATOM      5  C   UNL     1     -18.381 -42.172  26.458  1.00  0.00     0.021 A 
ATOM      6  C   UNL     1     -16.113 -43.002  26.513  1.00  0.00     0.049 A 
ATOM      7  C   UNL     1     -18.501 -42.347  25.126  1.00  0.00    -0.003 A 
ATOM      8  C   UNL     1     -19.574 -41.785  27.306  1.00  0.00     0.054 C 
ATOM      9  C   UNL     1     -15.033 -43.449  27.283  1.00  0.00     0.047 A 
ATOM     10  C   UNL     1     -16.119 -43.225  25.122  1.00  0.00     0.024 A 
ATOM     11  C   UNL     1     -19.792 -42.192  24.371  1.00  0.00     0.039 C 
ATOM     12  C   UNL     1     -20.772 -41.282  26.498  1.00  0.00     0.007 C 
ATOM     13  C   UNL     1     -14.011 -44.185  26.688  1.00  0.00     0.043 A 
ATOM     14  C   UNL     1     -15.119 -44.019  24.550  1.00  0.00     0.014 A 
ATOM     15  C   UNL     1     -21.018 -42.167  25.282  1.00  0.00     0.005 C 
ATOM     16  C   UNL     1     -14.059 -44.490  25.331  1.00  0.00     0.021 A 
ATOM     17  H   UNL     1     -17.225 -42.352  28.137  1.00  0.00     0.166 HD
ATOM     18  Cl  UNL     1     -12.698 -44.752  27.644  1.00  0.00    -0.084 Cl
ENDBRANCH   2   3
ENDBRANCH   1   2
BRANCH   1  19
ATOM     19  C   UNL     1     -17.444 -40.378  21.625  1.00  0.00     0.136 C 
BRANCH  19  20
ATOM     20  N   UNL     1     -18.800 -40.933  21.604  1.00  0.00    -0.380 N 
ATOM     21  H   UNL     1     -19.118 -41.049  22.568  1.00  0.00     0.160 HD
BRANCH  20  22
ATOM     22  C   UNL     1     -19.845 -40.529  20.765  1.00  0.00     0.087 C 
ATOM     23  C   UNL     1     -19.929 -39.259  20.341  1.00  0.00     0.082 C 
ATOM     24  C   UNL     1     -20.905 -41.510  20.309  1.00  0.00     0.209 C 
ATOM     25  C   UNL     1     -20.990 -38.747  19.461  1.00  0.00     0.188 C 
ATOM     26  C   UNL     1     -22.000 -41.011  19.450  1.00  0.00     0.035 A 
ATOM     27  C   UNL     1     -22.041 -39.682  19.039  1.00  0.00     0.033 A 
ATOM     28  C   UNL     1     -23.012 -41.892  19.037  1.00  0.00     0.013 A 
ATOM     29  C   UNL     1     -23.082 -39.229  18.218  1.00  0.00     0.013 A 
ATOM     30  C   UNL     1     -24.050 -41.440  18.220  1.00  0.00     0.001 A 
ATOM     31  C   UNL     1     -24.085 -40.108  17.811  1.00  0.00     0.001 A 
ATOM     32  O   UNL     1     -20.886 -42.701  20.607  1.00  0.00    -0.287 OA
ATOM     33  O   UNL     1     -20.988 -37.576  19.101  1.00  0.00    -0.289 OA
ENDBRANCH  20  22
ENDBRANCH  19  20
ENDBRANCH   1  19
TORSDOF 5
ENDMDL
