MODEL 1
REMARK VINA RESULT:    -8.426      0.000      0.000
REMARK INTER + INTRA:         -10.268
REMARK INTER:                  -9.904
REMARK INTRA:                  -0.364
REMARK UNBOUND:                -0.364
REMARK SMILES O=C(c1cnn(C2CCCC2)c1)C(F)(F)F
REMARK SMILES IDX 1 1 2 2 3 3 4 4 12 5 5 6 6 7 7 8 8 9 11 10 9 11 10 12 13 13
REMARK SMILES IDX 14 14 15 15 16 16
REMARK H PARENT
ROOT
ATOM      1  O   UNL     1     -12.697 -47.046  26.640  1.00  0.00    -0.284 OA
ATOM      2  C   UNL     1     -12.905 -46.089  27.390  1.00  0.00     0.269 C 
ENDROOT
BRANCH   2   3
ATOM      3  C   UNL     1     -12.416 -46.126  28.762  1.00  0.00     0.065 A 
ATOM      4  C   UNL     1     -13.188 -46.211  29.941  1.00  0.00     0.147 A 
ATOM      5  C   UNL     1     -11.114 -46.090  29.222  1.00  0.00     0.121 A 
ATOM      6  N   UNL     1     -12.442 -46.227  31.047  1.00  0.00    -0.180 NA
ATOM      7  N   UNL     1     -11.179 -46.149  30.589  1.00  0.00    -0.269 N 
BRANCH   7   8
ATOM      8  C   UNL     1     -10.076 -46.145  31.535  1.00  0.00     0.107 C 
ATOM      9  C   UNL     1      -8.778 -46.710  30.934  1.00  0.00     0.027 C 
ATOM     10  C   UNL     1      -9.724 -44.746  32.070  1.00  0.00     0.027 C 
ATOM     11  C   UNL     1      -7.673 -45.798  31.450  1.00  0.00     0.002 C 
ATOM     12  C   UNL     1      -8.342 -44.436  31.512  1.00  0.00     0.002 C 
ENDBRANCH   7   8
ENDBRANCH   2   3
BRANCH   2  13
ATOM     13  C   UNL     1     -13.666 -44.845  26.937  1.00  0.00     0.454 C 
ATOM     14  F   UNL     1     -14.718 -44.530  27.743  1.00  0.00    -0.163 F 
ATOM     15  F   UNL     1     -14.181 -44.979  25.680  1.00  0.00    -0.163 F 
ATOM     16  F   UNL     1     -12.873 -43.734  26.899  1.00  0.00    -0.163 F 
ENDBRANCH   2  13
TORSDOF 3
ENDMDL
MODEL 2
REMARK VINA RESULT:    -8.065      4.113      6.143
REMARK INTER + INTRA:          -9.844
REMARK INTER:                  -9.470
REMARK INTRA:                  -0.374
REMARK UNBOUND:                -0.364
REMARK SMILES O=C(c1cnn(C2CCCC2)c1)C(F)(F)F
REMARK SMILES IDX 1 1 2 2 3 3 4 4 12 5 5 6 6 7 7 8 8 9 11 10 9 11 10 12 13 13
REMARK SMILES IDX 14 14 15 15 16 16
REMARK H PARENT
ROOT
ATOM      1  O   UNL     1      -7.521 -43.075  30.384  1.00  0.00    -0.284 OA
ATOM      2  C   UNL     1      -8.553 -43.588  30.825  1.00  0.00     0.269 C 
ENDROOT
BRANCH   2   3
ATOM      3  C   UNL     1      -9.767 -43.578  30.019  1.00  0.00     0.065 A 
ATOM      4  C   UNL     1     -10.234 -42.534  29.191  1.00  0.00     0.147 A 
ATOM      5  C   UNL     1     -10.723 -44.566  29.876  1.00  0.00     0.121 A 
ATOM      6  N   UNL     1     -11.383 -42.834  28.580  1.00  0.00    -0.180 NA
ATOM      7  N   UNL     1     -11.667 -44.076  29.013  1.00  0.00    -0.269 N 
BRANCH   7   8
ATOM      8  C   UNL     1     -12.872 -44.738  28.540  1.00  0.00     0.107 C 
ATOM      9  C   UNL     1     -13.347 -44.202  27.179  1.00  0.00     0.027 C 
ATOM     10  C   UNL     1     -12.713 -46.259  28.367  1.00  0.00     0.027 C 
ATOM     11  C   UNL     1     -13.783 -45.434  26.399  1.00  0.00     0.002 C 
ATOM     12  C   UNL     1     -12.817 -46.508  26.868  1.00  0.00     0.002 C 
ENDBRANCH   7   8
ENDBRANCH   2   3
BRANCH   2  13
ATOM     13  C   UNL     1      -8.617 -44.244  32.202  1.00  0.00     0.454 C 
ATOM     14  F   UNL     1      -8.714 -45.602  32.151  1.00  0.00    -0.163 F 
ATOM     15  F   UNL     1      -9.688 -43.816  32.933  1.00  0.00    -0.163 F 
ATOM     16  F   UNL     1      -7.516 -43.972  32.961  1.00  0.00    -0.163 F 
ENDBRANCH   2  13
TORSDOF 3
ENDMDL
MODEL 3
REMARK VINA RESULT:    -8.052      3.836      5.011
REMARK INTER + INTRA:          -9.828
REMARK INTER:                  -9.594
REMARK INTRA:                  -0.234
REMARK UNBOUND:                -0.364
REMARK SMILES O=C(c1cnn(C2CCCC2)c1)C(F)(F)F
REMARK SMILES IDX 1 1 2 2 3 3 4 4 12 5 5 6 6 7 7 8 8 9 11 10 9 11 10 12 13 13
REMARK SMILES IDX 14 14 15 15 16 16
REMARK H PARENT
ROOT
ATOM      1  O   UNL     1     -14.551 -41.898  23.790  1.00  0.00    -0.284 OA
ATOM      2  C   UNL     1     -15.415 -42.531  24.402  1.00  0.00     0.269 C 
ENDROOT
BRANCH   2   3
ATOM      3  C   UNL     1     -15.098 -43.125  25.695  1.00  0.00     0.065 A 
ATOM      4  C   UNL     1     -15.681 -42.816  26.942  1.00  0.00     0.147 A 
ATOM      5  C   UNL     1     -14.175 -44.108  25.996  1.00  0.00     0.121 A 
ATOM      6  N   UNL     1     -15.173 -43.539  27.943  1.00  0.00    -0.180 NA
ATOM      7  N   UNL     1     -14.253 -44.318  27.347  1.00  0.00    -0.269 N 
BRANCH   7   8
ATOM      8  C   UNL     1     -13.487 -45.258  28.149  1.00  0.00     0.107 C 
ATOM      9  C   UNL     1     -12.774 -46.321  27.296  1.00  0.00     0.027 C 
ATOM     10  C   UNL     1     -12.393 -44.593  29.003  1.00  0.00     0.027 C 
ATOM     11  C   UNL     1     -11.399 -46.480  27.930  1.00  0.00     0.002 C 
ATOM     12  C   UNL     1     -11.074 -45.079  28.419  1.00  0.00     0.002 C 
ENDBRANCH   7   8
ENDBRANCH   2   3
BRANCH   2  13
ATOM     13  C   UNL     1     -16.828 -42.725  23.856  1.00  0.00     0.454 C 
ATOM     14  F   UNL     1     -17.705 -43.206  24.781  1.00  0.00    -0.163 F 
ATOM     15  F   UNL     1     -16.866 -43.601  22.809  1.00  0.00    -0.163 F 
ATOM     16  F   UNL     1     -17.371 -41.563  23.390  1.00  0.00    -0.163 F 
ENDBRANCH   2  13
TORSDOF 3
ENDMDL
MODEL 4
REMARK VINA RESULT:    -8.043      3.355      6.141
REMARK INTER + INTRA:          -9.818
REMARK INTER:                  -9.407
REMARK INTRA:                  -0.411
REMARK UNBOUND:                -0.364
REMARK SMILES O=C(c1cnn(C2CCCC2)c1)C(F)(F)F
REMARK SMILES IDX 1 1 2 2 3 3 4 4 12 5 5 6 6 7 7 8 8 9 11 10 9 11 10 12 13 13
REMARK SMILES IDX 14 14 15 15 16 16
REMARK H PARENT
ROOT
ATOM      1  O   UNL     1      -9.911 -46.679  28.840  1.00  0.00    -0.284 OA
ATOM      2  C   UNL     1     -10.788 -46.022  29.406  1.00  0.00     0.269 C 
ENDROOT
BRANCH   2   3
ATOM      3  C   UNL     1     -11.702 -45.205  28.618  1.00  0.00     0.065 A 
ATOM      4  C   UNL     1     -11.568 -43.835  28.305  1.00  0.00     0.147 A 
ATOM      5  C   UNL     1     -12.885 -45.570  28.004  1.00  0.00     0.121 A 
ATOM      6  N   UNL     1     -12.575 -43.374  27.561  1.00  0.00    -0.180 NA
ATOM      7  N   UNL     1     -13.370 -44.446  27.391  1.00  0.00    -0.269 N 
BRANCH   7   8
ATOM      8  C   UNL     1     -14.588 -44.313  26.608  1.00  0.00     0.107 C 
ATOM      9  C   UNL     1     -15.253 -42.937  26.774  1.00  0.00     0.027 C 
ATOM     10  C   UNL     1     -14.375 -44.503  25.096  1.00  0.00     0.027 C 
ATOM     11  C   UNL     1     -15.718 -42.550  25.377  1.00  0.00     0.002 C 
ATOM     12  C   UNL     1     -14.648 -43.140  24.475  1.00  0.00     0.002 C 
ENDBRANCH   7   8
ENDBRANCH   2   3
BRANCH   2  13
ATOM     13  C   UNL     1     -10.963 -46.026  30.923  1.00  0.00     0.454 C 
ATOM     14  F   UNL     1     -12.199 -46.435  31.325  1.00  0.00    -0.163 F 
ATOM     15  F   UNL     1     -10.779 -44.789  31.471  1.00  0.00    -0.163 F 
ATOM     16  F   UNL     1     -10.071 -46.848  31.549  1.00  0.00    -0.163 F 
ENDBRANCH   2  13
TORSDOF 3
ENDMDL
MODEL 5
REMARK VINA RESULT:    -7.964      2.195      3.065
REMARK INTER + INTRA:          -9.724
REMARK INTER:                  -9.307
REMARK INTRA:                  -0.418
REMARK UNBOUND:                -0.364
REMARK SMILES O=C(c1cnn(C2CCCC2)c1)C(F)(F)F
REMARK SMILES IDX 1 1 2 2 3 3 4 4 12 5 5 6 6 7 7 8 8 9 11 10 9 11 10 12 13 13
REMARK SMILES IDX 14 14 15 15 16 16
REMARK H PARENT
ROOT
ATOM      1  O   UNL     1     -15.466 -42.711  27.209  1.00  0.00    -0.284 OA
ATOM      2  C   UNL     1     -14.639 -43.419  26.630  1.00  0.00     0.269 C 
ENDROOT
BRANCH   2   3
ATOM      3  C   UNL     1     -13.507 -43.962  27.370  1.00  0.00     0.065 A 
ATOM      4  C   UNL     1     -12.220 -43.397  27.498  1.00  0.00     0.147 A 
ATOM      5  C   UNL     1     -13.430 -45.130  28.105  1.00  0.00     0.121 A 
ATOM      6  N   UNL     1     -11.402 -44.140  28.247  1.00  0.00    -0.180 NA
ATOM      7  N   UNL     1     -12.156 -45.195  28.604  1.00  0.00    -0.269 N 
BRANCH   7   8
ATOM      8  C   UNL     1     -11.581 -46.231  29.446  1.00  0.00     0.107 C 
ATOM      9  C   UNL     1     -10.063 -46.381  29.248  1.00  0.00     0.027 C 
ATOM     10  C   UNL     1     -11.792 -45.993  30.952  1.00  0.00     0.027 C 
ATOM     11  C   UNL     1      -9.499 -46.582  30.647  1.00  0.00     0.002 C 
ATOM     12  C   UNL     1     -10.403 -45.726  31.517  1.00  0.00     0.002 C 
ENDBRANCH   7   8
ENDBRANCH   2   3
BRANCH   2  13
ATOM     13  C   UNL     1     -14.748 -43.757  25.145  1.00  0.00     0.454 C 
ATOM     14  F   UNL     1     -13.905 -43.030  24.360  1.00  0.00    -0.163 F 
ATOM     15  F   UNL     1     -16.003 -43.541  24.653  1.00  0.00    -0.163 F 
ATOM     16  F   UNL     1     -14.468 -45.069  24.887  1.00  0.00    -0.163 F 
ENDBRANCH   2  13
TORSDOF 3
ENDMDL
MODEL 6
REMARK VINA RESULT:    -7.955      1.606      2.048
REMARK INTER + INTRA:          -9.714
REMARK INTER:                  -9.472
REMARK INTRA:                  -0.242
REMARK UNBOUND:                -0.364
REMARK SMILES O=C(c1cnn(C2CCCC2)c1)C(F)(F)F
REMARK SMILES IDX 1 1 2 2 3 3 4 4 12 5 5 6 6 7 7 8 8 9 11 10 9 11 10 12 13 13
REMARK SMILES IDX 14 14 15 15 16 16
REMARK H PARENT
ROOT
ATOM      1  O   UNL     1     -15.291 -43.905  28.498  1.00  0.00    -0.284 OA
ATOM      2  C   UNL     1     -14.351 -44.303  27.806  1.00  0.00     0.269 C 
ENDROOT
BRANCH   2   3
ATOM      3  C   UNL     1     -13.250 -45.027  28.428  1.00  0.00     0.065 A 
ATOM      4  C   UNL     1     -12.402 -45.977  27.819  1.00  0.00     0.147 A 
ATOM      5  C   UNL     1     -12.787 -44.956  29.728  1.00  0.00     0.121 A 
ATOM      6  N   UNL     1     -11.484 -46.463  28.659  1.00  0.00    -0.180 NA
ATOM      7  N   UNL     1     -11.738 -45.831  29.818  1.00  0.00    -0.269 N 
BRANCH   7   8
ATOM      8  C   UNL     1     -10.913 -46.116  30.981  1.00  0.00     0.107 C 
ATOM      9  C   UNL     1      -9.526 -46.662  30.604  1.00  0.00     0.027 C 
ATOM     10  C   UNL     1     -10.659 -44.888  31.874  1.00  0.00     0.027 C 
ATOM     11  C   UNL     1      -8.557 -45.975  31.557  1.00  0.00     0.002 C 
ATOM     12  C   UNL     1      -9.169 -44.598  31.747  1.00  0.00     0.002 C 
ENDBRANCH   7   8
ENDBRANCH   2   3
BRANCH   2  13
ATOM     13  C   UNL     1     -14.286 -44.065  26.299  1.00  0.00     0.454 C 
ATOM     14  F   UNL     1     -14.211 -45.214  25.572  1.00  0.00    -0.163 F 
ATOM     15  F   UNL     1     -13.203 -43.317  25.936  1.00  0.00    -0.163 F 
ATOM     16  F   UNL     1     -15.378 -43.392  25.830  1.00  0.00    -0.163 F 
ENDBRANCH   2  13
TORSDOF 3
ENDMDL
MODEL 7
REMARK VINA RESULT:    -7.765      4.434      6.175
REMARK INTER + INTRA:          -9.491
REMARK INTER:                  -9.240
REMARK INTRA:                  -0.251
REMARK UNBOUND:                -0.364
REMARK SMILES O=C(c1cnn(C2CCCC2)c1)C(F)(F)F
REMARK SMILES IDX 1 1 2 2 3 3 4 4 12 5 5 6 6 7 7 8 8 9 11 10 9 11 10 12 13 13
REMARK SMILES IDX 14 14 15 15 16 16
REMARK H PARENT
ROOT
ATOM      1  O   UNL     1      -7.680 -42.862  33.545  1.00  0.00    -0.284 OA
ATOM      2  C   UNL     1      -8.846 -43.071  33.199  1.00  0.00     0.269 C 
ENDROOT
BRANCH   2   3
ATOM      3  C   UNL     1      -9.116 -43.910  32.039  1.00  0.00     0.065 A 
ATOM      4  C   UNL     1      -8.698 -45.242  31.832  1.00  0.00     0.147 A 
ATOM      5  C   UNL     1      -9.831 -43.607  30.895  1.00  0.00     0.121 A 
ATOM      6  N   UNL     1      -9.110 -45.737  30.663  1.00  0.00    -0.180 NA
ATOM      7  N   UNL     1      -9.796 -44.724  30.104  1.00  0.00    -0.269 N 
BRANCH   7   8
ATOM      8  C   UNL     1     -10.407 -44.911  28.798  1.00  0.00     0.107 C 
ATOM      9  C   UNL     1     -10.630 -46.393  28.454  1.00  0.00     0.027 C 
ATOM     10  C   UNL     1     -11.779 -44.229  28.655  1.00  0.00     0.027 C 
ATOM     11  C   UNL     1     -11.999 -46.444  27.792  1.00  0.00     0.002 C 
ATOM     12  C   UNL     1     -12.783 -45.367  28.521  1.00  0.00     0.002 C 
ENDBRANCH   7   8
ENDBRANCH   2   3
BRANCH   2  13
ATOM     13  C   UNL     1     -10.040 -42.479  33.944  1.00  0.00     0.454 C 
ATOM     14  F   UNL     1     -10.049 -42.774  35.274  1.00  0.00    -0.163 F 
ATOM     15  F   UNL     1     -11.233 -42.922  33.451  1.00  0.00    -0.163 F 
ATOM     16  F   UNL     1     -10.084 -41.117  33.860  1.00  0.00    -0.163 F 
ENDBRANCH   2  13
TORSDOF 3
ENDMDL
MODEL 8
REMARK VINA RESULT:    -7.744      4.353      5.734
REMARK INTER + INTRA:          -9.466
REMARK INTER:                  -9.085
REMARK INTRA:                  -0.381
REMARK UNBOUND:                -0.364
REMARK SMILES O=C(c1cnn(C2CCCC2)c1)C(F)(F)F
REMARK SMILES IDX 1 1 2 2 3 3 4 4 12 5 5 6 6 7 7 8 8 9 11 10 9 11 10 12 13 13
REMARK SMILES IDX 14 14 15 15 16 16
REMARK H PARENT
ROOT
ATOM      1  O   UNL     1     -11.861 -41.805  34.058  1.00  0.00    -0.284 OA
ATOM      2  C   UNL     1     -12.746 -42.388  33.426  1.00  0.00     0.269 C 
ENDROOT
BRANCH   2   3
ATOM      3  C   UNL     1     -12.399 -43.155  32.237  1.00  0.00     0.065 A 
ATOM      4  C   UNL     1     -11.595 -42.737  31.155  1.00  0.00     0.147 A 
ATOM      5  C   UNL     1     -12.765 -44.444  31.897  1.00  0.00     0.121 A 
ATOM      6  N   UNL     1     -11.464 -43.675  30.215  1.00  0.00    -0.180 NA
ATOM      7  N   UNL     1     -12.188 -44.708  30.683  1.00  0.00    -0.269 N 
BRANCH   7   8
ATOM      8  C   UNL     1     -12.271 -45.933  29.905  1.00  0.00     0.107 C 
ATOM      9  C   UNL     1     -13.059 -45.752  28.597  1.00  0.00     0.027 C 
ATOM     10  C   UNL     1     -10.899 -46.501  29.501  1.00  0.00     0.027 C 
ATOM     11  C   UNL     1     -12.278 -46.537  27.552  1.00  0.00     0.002 C 
ATOM     12  C   UNL     1     -10.833 -46.358  27.986  1.00  0.00     0.002 C 
ENDBRANCH   7   8
ENDBRANCH   2   3
BRANCH   2  13
ATOM     13  C   UNL     1     -14.215 -42.340  33.841  1.00  0.00     0.454 C 
ATOM     14  F   UNL     1     -14.667 -43.511  34.369  1.00  0.00    -0.163 F 
ATOM     15  F   UNL     1     -15.042 -42.056  32.793  1.00  0.00    -0.163 F 
ATOM     16  F   UNL     1     -14.461 -41.381  34.781  1.00  0.00    -0.163 F 
ENDBRANCH   2  13
TORSDOF 3
ENDMDL
MODEL 9
REMARK VINA RESULT:    -7.593      3.349      6.190
REMARK INTER + INTRA:          -9.289
REMARK INTER:                  -9.048
REMARK INTRA:                  -0.241
REMARK UNBOUND:                -0.364
REMARK SMILES O=C(c1cnn(C2CCCC2)c1)C(F)(F)F
REMARK SMILES IDX 1 1 2 2 3 3 4 4 12 5 5 6 6 7 7 8 8 9 11 10 9 11 10 12 13 13
REMARK SMILES IDX 14 14 15 15 16 16
REMARK H PARENT
ROOT
ATOM      1  O   UNL     1     -12.413 -46.366  30.641  1.00  0.00    -0.284 OA
ATOM      2  C   UNL     1     -11.977 -45.940  29.569  1.00  0.00     0.269 C 
ENDROOT
BRANCH   2   3
ATOM      3  C   UNL     1     -12.848 -45.173  28.687  1.00  0.00     0.065 A 
ATOM      4  C   UNL     1     -14.157 -44.722  28.962  1.00  0.00     0.147 A 
ATOM      5  C   UNL     1     -12.603 -44.716  27.406  1.00  0.00     0.121 A 
ATOM      6  N   UNL     1     -14.692 -44.041  27.946  1.00  0.00    -0.180 NA
ATOM      7  N   UNL     1     -13.731 -44.051  27.005  1.00  0.00    -0.269 N 
BRANCH   7   8
ATOM      8  C   UNL     1     -13.969 -43.385  25.735  1.00  0.00     0.107 C 
ATOM      9  C   UNL     1     -14.494 -44.342  24.652  1.00  0.00     0.027 C 
ATOM     10  C   UNL     1     -14.991 -42.237  25.822  1.00  0.00     0.027 C 
ATOM     11  C   UNL     1     -15.572 -43.557  23.919  1.00  0.00     0.002 C 
ATOM     12  C   UNL     1     -16.194 -42.707  25.014  1.00  0.00     0.002 C 
ENDBRANCH   7   8
ENDBRANCH   2   3
BRANCH   2  13
ATOM     13  C   UNL     1     -10.540 -46.183  29.115  1.00  0.00     0.454 C 
ATOM     14  F   UNL     1     -10.448 -46.963  28.001  1.00  0.00    -0.163 F 
ATOM     15  F   UNL     1      -9.789 -46.804  30.072  1.00  0.00    -0.163 F 
ATOM     16  F   UNL     1      -9.882 -45.024  28.819  1.00  0.00    -0.163 F 
ENDBRANCH   2  13
TORSDOF 3
ENDMDL
