MODEL 1
REMARK VINA RESULT:    -7.460      0.000      0.000
REMARK INTER + INTRA:          -9.536
REMARK INTER:                  -9.205
REMARK INTRA:                  -0.331
REMARK UNBOUND:                -0.331
REMARK SMILES CC[C@@H](C)n1cc(C(=O)C(F)(F)F)cn1
REMARK SMILES IDX 5 1 6 2 7 3 14 4 15 5 3 6 4 7 2 8 1 9 8 10 9 11 10 12 11 13
REMARK SMILES IDX 12 14 13 15
REMARK H PARENT
ROOT
ATOM      1  N   UNL     1     -11.792 -44.444  28.795  1.00  0.00    -0.269 N 
ATOM      2  C   UNL     1     -10.776 -44.795  29.639  1.00  0.00     0.121 A 
ATOM      3  C   UNL     1     -10.024 -43.654  29.852  1.00  0.00     0.065 A 
ATOM      4  C   UNL     1     -10.681 -42.669  29.082  1.00  0.00     0.147 A 
ATOM      5  N   UNL     1     -11.749 -43.145  28.442  1.00  0.00    -0.180 NA
ENDROOT
BRANCH   1   6
ATOM      6  C   UNL     1     -12.839 -45.330  28.290  1.00  0.00     0.104 C 
ATOM      7  C   UNL     1     -12.291 -46.434  27.383  1.00  0.00     0.033 C 
BRANCH   6   8
ATOM      8  C   UNL     1     -14.008 -44.549  27.661  1.00  0.00     0.023 C 
ATOM      9  C   UNL     1     -14.127 -44.649  26.146  1.00  0.00     0.006 C 
ENDBRANCH   6   8
ENDBRANCH   1   6
BRANCH   3  10
ATOM     10  C   UNL     1      -8.835 -43.553  30.693  1.00  0.00     0.269 C 
ATOM     11  O   UNL     1      -7.814 -43.010  30.262  1.00  0.00    -0.284 OA
BRANCH  10  12
ATOM     12  C   UNL     1      -8.924 -44.141  32.099  1.00  0.00     0.454 C 
ATOM     13  F   UNL     1      -8.693 -45.486  32.112  1.00  0.00    -0.163 F 
ATOM     14  F   UNL     1      -8.002 -43.596  32.945  1.00  0.00    -0.163 F 
ATOM     15  F   UNL     1     -10.137 -43.959  32.690  1.00  0.00    -0.163 F 
ENDBRANCH  10  12
ENDBRANCH   3  10
TORSDOF 4
ENDMDL
MODEL 2
REMARK VINA RESULT:    -7.456      3.859      4.953
REMARK INTER + INTRA:          -9.530
REMARK INTER:                  -9.170
REMARK INTRA:                  -0.361
REMARK UNBOUND:                -0.331
REMARK SMILES CC[C@@H](C)n1cc(C(=O)C(F)(F)F)cn1
REMARK SMILES IDX 5 1 6 2 7 3 14 4 15 5 3 6 4 7 2 8 1 9 8 10 9 11 10 12 11 13
REMARK SMILES IDX 12 14 13 15
REMARK H PARENT
ROOT
ATOM      1  N   UNL     1     -14.877 -43.649  26.670  1.00  0.00    -0.269 N 
ATOM      2  C   UNL     1     -14.003 -44.580  26.184  1.00  0.00     0.121 A 
ATOM      3  C   UNL     1     -13.490 -45.253  27.279  1.00  0.00     0.065 A 
ATOM      4  C   UNL     1     -14.127 -44.639  28.380  1.00  0.00     0.147 A 
ATOM      5  N   UNL     1     -14.966 -43.669  28.013  1.00  0.00    -0.180 NA
ENDROOT
BRANCH   1   6
ATOM      6  C   UNL     1     -15.658 -42.703  25.876  1.00  0.00     0.104 C 
ATOM      7  C   UNL     1     -17.130 -42.657  26.293  1.00  0.00     0.033 C 
BRANCH   6   8
ATOM      8  C   UNL     1     -15.459 -42.911  24.362  1.00  0.00     0.023 C 
ATOM      9  C   UNL     1     -15.326 -41.639  23.536  1.00  0.00     0.006 C 
ENDBRANCH   6   8
ENDBRANCH   1   6
BRANCH   3  10
ATOM     10  C   UNL     1     -12.517 -46.340  27.241  1.00  0.00     0.269 C 
ATOM     11  O   UNL     1     -12.677 -47.291  26.472  1.00  0.00    -0.284 OA
BRANCH  10  12
ATOM     12  C   UNL     1     -11.318 -46.236  28.181  1.00  0.00     0.454 C 
ATOM     13  F   UNL     1     -10.283 -47.032  27.787  1.00  0.00    -0.163 F 
ATOM     14  F   UNL     1     -10.815 -44.970  28.238  1.00  0.00    -0.163 F 
ATOM     15  F   UNL     1     -11.602 -46.590  29.465  1.00  0.00    -0.163 F 
ENDBRANCH  10  12
ENDBRANCH   3  10
TORSDOF 4
ENDMDL
MODEL 3
REMARK VINA RESULT:    -7.426      4.017      5.998
REMARK INTER + INTRA:          -9.494
REMARK INTER:                  -9.171
REMARK INTRA:                  -0.323
REMARK UNBOUND:                -0.331
REMARK SMILES CC[C@@H](C)n1cc(C(=O)C(F)(F)F)cn1
REMARK SMILES IDX 5 1 6 2 7 3 14 4 15 5 3 6 4 7 2 8 1 9 8 10 9 11 10 12 11 13
REMARK SMILES IDX 12 14 13 15
REMARK H PARENT
ROOT
ATOM      1  N   UNL     1     -11.199 -45.931  30.687  1.00  0.00    -0.269 N 
ATOM      2  C   UNL     1     -11.162 -45.811  29.326  1.00  0.00     0.121 A 
ATOM      3  C   UNL     1     -12.448 -46.034  28.871  1.00  0.00     0.065 A 
ATOM      4  C   UNL     1     -13.184 -46.283  30.051  1.00  0.00     0.147 A 
ATOM      5  N   UNL     1     -12.430 -46.221  31.149  1.00  0.00    -0.180 NA
ENDROOT
BRANCH   1   6
ATOM      6  C   UNL     1     -10.068 -45.778  31.598  1.00  0.00     0.104 C 
ATOM      7  C   UNL     1      -9.757 -44.312  31.913  1.00  0.00     0.033 C 
BRANCH   6   8
ATOM      8  C   UNL     1      -8.834 -46.576  31.133  1.00  0.00     0.023 C 
ATOM      9  C   UNL     1      -7.487 -45.923  31.408  1.00  0.00     0.006 C 
ENDBRANCH   6   8
ENDBRANCH   1   6
BRANCH   3  10
ATOM     10  C   UNL     1     -12.884 -46.005  27.479  1.00  0.00     0.269 C 
ATOM     11  O   UNL     1     -12.630 -46.951  26.728  1.00  0.00    -0.284 OA
BRANCH  10  12
ATOM     12  C   UNL     1     -13.654 -44.771  27.015  1.00  0.00     0.454 C 
ATOM     13  F   UNL     1     -14.182 -44.930  25.767  1.00  0.00    -0.163 F 
ATOM     14  F   UNL     1     -14.707 -44.482  27.831  1.00  0.00    -0.163 F 
ATOM     15  F   UNL     1     -12.893 -43.643  26.963  1.00  0.00    -0.163 F 
ENDBRANCH  10  12
ENDBRANCH   3  10
TORSDOF 4
ENDMDL
MODEL 4
REMARK VINA RESULT:    -7.343      3.291      5.352
REMARK INTER + INTRA:          -9.391
REMARK INTER:                  -9.256
REMARK INTRA:                  -0.135
REMARK UNBOUND:                -0.331
REMARK SMILES CC[C@@H](C)n1cc(C(=O)C(F)(F)F)cn1
REMARK SMILES IDX 5 1 6 2 7 3 14 4 15 5 3 6 4 7 2 8 1 9 8 10 9 11 10 12 11 13
REMARK SMILES IDX 12 14 13 15
REMARK H PARENT
ROOT
ATOM      1  N   UNL     1      -8.409 -43.763  30.411  1.00  0.00    -0.269 N 
ATOM      2  C   UNL     1      -9.484 -44.563  30.143  1.00  0.00     0.121 A 
ATOM      3  C   UNL     1     -10.126 -44.015  29.048  1.00  0.00     0.065 A 
ATOM      4  C   UNL     1      -9.348 -42.877  28.737  1.00  0.00     0.147 A 
ATOM      5  N   UNL     1      -8.310 -42.724  29.560  1.00  0.00    -0.180 NA
ENDROOT
BRANCH   1   6
ATOM      6  C   UNL     1      -7.438 -43.953  31.486  1.00  0.00     0.104 C 
ATOM      7  C   UNL     1      -7.142 -45.429  31.760  1.00  0.00     0.033 C 
BRANCH   6   8
ATOM      8  C   UNL     1      -7.812 -43.161  32.754  1.00  0.00     0.023 C 
ATOM      9  C   UNL     1      -9.299 -43.099  33.075  1.00  0.00     0.006 C 
ENDBRANCH   6   8
ENDBRANCH   1   6
BRANCH   3  10
ATOM     10  C   UNL     1     -11.327 -44.538  28.405  1.00  0.00     0.269 C 
ATOM     11  O   UNL     1     -12.203 -43.766  28.004  1.00  0.00    -0.284 OA
BRANCH  10  12
ATOM     12  C   UNL     1     -11.437 -46.053  28.260  1.00  0.00     0.454 C 
ATOM     13  F   UNL     1     -11.883 -46.650  29.403  1.00  0.00    -0.163 F 
ATOM     14  F   UNL     1     -12.316 -46.416  27.283  1.00  0.00    -0.163 F 
ATOM     15  F   UNL     1     -10.256 -46.658  27.953  1.00  0.00    -0.163 F 
ENDBRANCH  10  12
ENDBRANCH   3  10
TORSDOF 4
ENDMDL
MODEL 5
REMARK VINA RESULT:    -7.150      3.693      5.884
REMARK INTER + INTRA:          -9.153
REMARK INTER:                  -8.825
REMARK INTRA:                  -0.328
REMARK UNBOUND:                -0.331
REMARK SMILES CC[C@@H](C)n1cc(C(=O)C(F)(F)F)cn1
REMARK SMILES IDX 5 1 6 2 7 3 14 4 15 5 3 6 4 7 2 8 1 9 8 10 9 11 10 12 11 13
REMARK SMILES IDX 12 14 13 15
REMARK H PARENT
ROOT
ATOM      1  N   UNL     1      -9.980 -44.341  31.770  1.00  0.00    -0.269 N 
ATOM      2  C   UNL     1     -11.090 -44.333  30.972  1.00  0.00     0.121 A 
ATOM      3  C   UNL     1     -11.248 -45.621  30.496  1.00  0.00     0.065 A 
ATOM      4  C   UNL     1     -10.170 -46.328  31.073  1.00  0.00     0.147 A 
ATOM      5  N   UNL     1      -9.403 -45.555  31.843  1.00  0.00    -0.180 NA
ENDROOT
BRANCH   1   6
ATOM      6  C   UNL     1      -9.427 -43.197  32.490  1.00  0.00     0.104 C 
ATOM      7  C   UNL     1      -7.959 -43.395  32.873  1.00  0.00     0.033 C 
BRANCH   6   8
ATOM      8  C   UNL     1     -10.314 -42.771  33.675  1.00  0.00     0.023 C 
ATOM      9  C   UNL     1      -9.593 -42.068  34.817  1.00  0.00     0.006 C 
ENDBRANCH   6   8
ENDBRANCH   1   6
BRANCH   3  10
ATOM     10  C   UNL     1     -12.307 -46.084  29.605  1.00  0.00     0.269 C 
ATOM     11  O   UNL     1     -13.398 -46.433  30.064  1.00  0.00    -0.284 OA
BRANCH  10  12
ATOM     12  C   UNL     1     -11.998 -46.112  28.110  1.00  0.00     0.454 C 
ATOM     13  F   UNL     1     -13.050 -46.574  27.374  1.00  0.00    -0.163 F 
ATOM     14  F   UNL     1     -11.716 -44.871  27.618  1.00  0.00    -0.163 F 
ATOM     15  F   UNL     1     -10.935 -46.899  27.788  1.00  0.00    -0.163 F 
ENDBRANCH  10  12
ENDBRANCH   3  10
TORSDOF 4
ENDMDL
MODEL 6
REMARK VINA RESULT:    -7.100      3.236      3.957
REMARK INTER + INTRA:          -9.091
REMARK INTER:                  -8.974
REMARK INTRA:                  -0.117
REMARK UNBOUND:                -0.331
REMARK SMILES CC[C@@H](C)n1cc(C(=O)C(F)(F)F)cn1
REMARK SMILES IDX 5 1 6 2 7 3 14 4 15 5 3 6 4 7 2 8 1 9 8 10 9 11 10 12 11 13
REMARK SMILES IDX 12 14 13 15
REMARK H PARENT
ROOT
ATOM      1  N   UNL     1     -14.211 -44.382  27.748  1.00  0.00    -0.269 N 
ATOM      2  C   UNL     1     -13.034 -45.073  27.819  1.00  0.00     0.121 A 
ATOM      3  C   UNL     1     -12.820 -45.359  29.155  1.00  0.00     0.065 A 
ATOM      4  C   UNL     1     -13.936 -44.786  29.805  1.00  0.00     0.147 A 
ATOM      5  N   UNL     1     -14.777 -44.195  28.956  1.00  0.00    -0.180 NA
ENDROOT
BRANCH   1   6
ATOM      6  C   UNL     1     -14.839 -43.870  26.533  1.00  0.00     0.104 C 
ATOM      7  C   UNL     1     -13.831 -43.242  25.567  1.00  0.00     0.033 C 
BRANCH   6   8
ATOM      8  C   UNL     1     -16.040 -42.955  26.839  1.00  0.00     0.023 C 
ATOM      9  C   UNL     1     -16.929 -42.617  25.650  1.00  0.00     0.006 C 
ENDBRANCH   6   8
ENDBRANCH   1   6
BRANCH   3  10
ATOM     10  C   UNL     1     -11.683 -46.088  29.706  1.00  0.00     0.269 C 
ATOM     11  O   UNL     1     -11.723 -46.522  30.861  1.00  0.00    -0.284 OA
BRANCH  10  12
ATOM     12  C   UNL     1     -10.471 -46.280  28.798  1.00  0.00     0.454 C 
ATOM     13  F   UNL     1      -9.954 -45.092  28.369  1.00  0.00    -0.163 F 
ATOM     14  F   UNL     1      -9.448 -46.925  29.430  1.00  0.00    -0.163 F 
ATOM     15  F   UNL     1     -10.740 -47.003  27.676  1.00  0.00    -0.163 F 
ENDBRANCH  10  12
ENDBRANCH   3  10
TORSDOF 4
ENDMDL
MODEL 7
REMARK VINA RESULT:    -6.909      4.765      6.375
REMARK INTER + INTRA:          -8.855
REMARK INTER:                  -8.524
REMARK INTRA:                  -0.331
REMARK UNBOUND:                -0.331
REMARK SMILES CC[C@@H](C)n1cc(C(=O)C(F)(F)F)cn1
REMARK SMILES IDX 5 1 6 2 7 3 14 4 15 5 3 6 4 7 2 8 1 9 8 10 9 11 10 12 11 13
REMARK SMILES IDX 12 14 13 15
REMARK H PARENT
ROOT
ATOM      1  N   UNL     1     -16.382 -43.110  25.095  1.00  0.00    -0.269 N 
ATOM      2  C   UNL     1     -15.701 -43.184  26.278  1.00  0.00     0.121 A 
ATOM      3  C   UNL     1     -14.405 -43.551  25.968  1.00  0.00     0.065 A 
ATOM      4  C   UNL     1     -14.416 -43.674  24.561  1.00  0.00     0.147 A 
ATOM      5  N   UNL     1     -15.611 -43.408  24.032  1.00  0.00    -0.180 NA
ENDROOT
BRANCH   1   6
ATOM      6  C   UNL     1     -17.790 -42.757  24.931  1.00  0.00     0.104 C 
ATOM      7  C   UNL     1     -18.056 -41.970  23.646  1.00  0.00     0.033 C 
BRANCH   6   8
ATOM      8  C   UNL     1     -18.371 -42.083  26.189  1.00  0.00     0.023 C 
ATOM      9  C   UNL     1     -19.819 -41.626  26.081  1.00  0.00     0.006 C 
ENDBRANCH   6   8
ENDBRANCH   1   6
BRANCH   3  10
ATOM     10  C   UNL     1     -13.317 -43.750  26.920  1.00  0.00     0.269 C 
ATOM     11  O   UNL     1     -12.640 -42.790  27.300  1.00  0.00    -0.284 OA
BRANCH  10  12
ATOM     12  C   UNL     1     -13.069 -45.175  27.409  1.00  0.00     0.454 C 
ATOM     13  F   UNL     1     -13.845 -45.494  28.485  1.00  0.00    -0.163 F 
ATOM     14  F   UNL     1     -13.355 -46.105  26.454  1.00  0.00    -0.163 F 
ATOM     15  F   UNL     1     -11.782 -45.404  27.790  1.00  0.00    -0.163 F 
ENDBRANCH  10  12
ENDBRANCH   3  10
TORSDOF 4
ENDMDL
MODEL 8
REMARK VINA RESULT:    -6.850      4.351      6.095
REMARK INTER + INTRA:          -8.783
REMARK INTER:                  -8.497
REMARK INTRA:                  -0.286
REMARK UNBOUND:                -0.331
REMARK SMILES CC[C@@H](C)n1cc(C(=O)C(F)(F)F)cn1
REMARK SMILES IDX 5 1 6 2 7 3 14 4 15 5 3 6 4 7 2 8 1 9 8 10 9 11 10 12 11 13
REMARK SMILES IDX 12 14 13 15
REMARK H PARENT
ROOT
ATOM      1  N   UNL     1     -11.040 -45.421  29.232  1.00  0.00    -0.269 N 
ATOM      2  C   UNL     1     -12.020 -44.483  29.057  1.00  0.00     0.121 A 
ATOM      3  C   UNL     1     -12.927 -45.018  28.161  1.00  0.00     0.065 A 
ATOM      4  C   UNL     1     -12.390 -46.289  27.857  1.00  0.00     0.147 A 
ATOM      5  N   UNL     1     -11.250 -46.533  28.503  1.00  0.00    -0.180 NA
ENDROOT
BRANCH   1   6
ATOM      6  C   UNL     1      -9.868 -45.293  30.095  1.00  0.00     0.104 C 
ATOM      7  C   UNL     1      -9.723 -46.463  31.070  1.00  0.00     0.033 C 
BRANCH   6   8
ATOM      8  C   UNL     1      -9.799 -43.915  30.781  1.00  0.00     0.023 C 
ATOM      9  C   UNL     1     -10.251 -43.881  32.235  1.00  0.00     0.006 C 
ENDBRANCH   6   8
ENDBRANCH   1   6
BRANCH   3  10
ATOM     10  C   UNL     1     -14.141 -44.369  27.678  1.00  0.00     0.269 C 
ATOM     11  O   UNL     1     -15.012 -44.008  28.474  1.00  0.00    -0.284 OA
BRANCH  10  12
ATOM     12  C   UNL     1     -14.272 -44.167  26.170  1.00  0.00     0.454 C 
ATOM     13  F   UNL     1     -15.487 -43.655  25.821  1.00  0.00    -0.163 F 
ATOM     14  F   UNL     1     -13.345 -43.292  25.684  1.00  0.00    -0.163 F 
ATOM     15  F   UNL     1     -14.124 -45.315  25.452  1.00  0.00    -0.163 F 
ENDBRANCH  10  12
ENDBRANCH   3  10
TORSDOF 4
ENDMDL
MODEL 9
REMARK VINA RESULT:    -6.828      4.026      5.135
REMARK INTER + INTRA:          -8.755
REMARK INTER:                  -8.512
REMARK INTRA:                  -0.243
REMARK UNBOUND:                -0.331
REMARK SMILES CC[C@@H](C)n1cc(C(=O)C(F)(F)F)cn1
REMARK SMILES IDX 5 1 6 2 7 3 14 4 15 5 3 6 4 7 2 8 1 9 8 10 9 11 10 12 11 13
REMARK SMILES IDX 12 14 13 15
REMARK H PARENT
ROOT
ATOM      1  N   UNL     1     -11.131 -45.254  30.859  1.00  0.00    -0.269 N 
ATOM      2  C   UNL     1     -11.172 -44.045  31.496  1.00  0.00     0.121 A 
ATOM      3  C   UNL     1     -12.410 -43.960  32.107  1.00  0.00     0.065 A 
ATOM      4  C   UNL     1     -13.037 -45.179  31.769  1.00  0.00     0.147 A 
ATOM      5  N   UNL     1     -12.265 -45.962  31.015  1.00  0.00    -0.180 NA
ENDROOT
BRANCH   1   6
ATOM      6  C   UNL     1     -10.014 -45.778  30.077  1.00  0.00     0.104 C 
ATOM      7  C   UNL     1     -10.469 -46.481  28.796  1.00  0.00     0.033 C 
BRANCH   6   8
ATOM      8  C   UNL     1      -9.055 -46.630  30.931  1.00  0.00     0.023 C 
ATOM      9  C   UNL     1      -7.804 -45.916  31.424  1.00  0.00     0.006 C 
ENDBRANCH   6   8
ENDBRANCH   1   6
BRANCH   3  10
ATOM     10  C   UNL     1     -12.898 -42.840  32.906  1.00  0.00     0.269 C 
ATOM     11  O   UNL     1     -12.104 -42.030  33.392  1.00  0.00    -0.284 OA
BRANCH  10  12
ATOM     12  C   UNL     1     -14.408 -42.730  33.103  1.00  0.00     0.454 C 
ATOM     13  F   UNL     1     -14.783 -41.493  33.539  1.00  0.00    -0.163 F 
ATOM     14  F   UNL     1     -15.096 -42.941  31.944  1.00  0.00    -0.163 F 
ATOM     15  F   UNL     1     -14.905 -43.617  34.008  1.00  0.00    -0.163 F 
ENDBRANCH  10  12
ENDBRANCH   3  10
TORSDOF 4
ENDMDL
