MODEL 1
REMARK VINA RESULT:   -12.513      0.000      0.000
REMARK INTER + INTRA:         -16.689
REMARK INTER:                 -16.170
REMARK INTRA:                  -0.519
REMARK UNBOUND:                -0.519
REMARK SMILES Cn1c(=O)cc2cc3o[nH]c(CC[C@H]4CC[N@H+](Cc5ccccc5)CC4)c3cc21
REMARK SMILES IDX 13 1 12 2 11 3 10 4 9 5 8 6 27 7 7 8 28 9 6 10 29 11 5 12
REMARK SMILES IDX 2 13 3 14 1 16 4 17 14 18 15 19 26 20 16 21 25 22 17 23
REMARK SMILES IDX 18 25 19 26 20 27 24 28 21 29 23 30 22 31
REMARK H PARENT 10 15 17 24
ROOT
ATOM      1  C   UNL     1     -13.816 -45.155  26.540  1.00  0.00     0.010 C 
ENDROOT
BRANCH   1   2
ATOM      2  C   UNL     1     -14.760 -43.952  26.704  1.00  0.00     0.058 C 
BRANCH   2   3
ATOM      3  C   UNL     1     -15.289 -43.433  25.406  1.00  0.00     0.060 A 
ATOM      4  N   UNL     1     -14.521 -43.482  24.239  1.00  0.00    -0.226 N 
ATOM      5  O   UNL     1     -15.272 -42.984  23.137  1.00  0.00    -0.382 OA
ATOM      6  C   UNL     1     -16.465 -42.590  23.712  1.00  0.00     0.164 A 
ATOM      7  C   UNL     1     -16.479 -42.884  25.140  1.00  0.00     0.044 A 
ATOM      8  C   UNL     1     -17.518 -42.021  23.099  1.00  0.00     0.061 A 
ATOM      9  C   UNL     1     -17.627 -42.602  25.983  1.00  0.00     0.041 A 
ATOM     10  C   UNL     1     -18.662 -41.718  23.944  1.00  0.00     0.008 A 
ATOM     11  C   UNL     1     -18.675 -42.029  25.371  1.00  0.00     0.052 A 
ATOM     12  C   UNL     1     -19.824 -41.154  23.593  1.00  0.00     0.082 A 
ATOM     13  N   UNL     1     -19.887 -41.631  25.850  1.00  0.00    -0.311 N 
ATOM     14  C   UNL     1     -20.649 -41.082  24.827  1.00  0.00     0.251 A 
ATOM     15  H   UNL     1     -14.185 -44.427  24.048  1.00  0.00     0.208 HD
ATOM     16  C   UNL     1     -20.346 -41.758  27.209  1.00  0.00     0.153 C 
ATOM     17  O   UNL     1     -21.773 -40.615  24.872  1.00  0.00    -0.269 OA
ENDBRANCH   2   3
ENDBRANCH   1   2
BRANCH   1  18
ATOM     18  C   UNL     1     -13.237 -45.736  27.846  1.00  0.00     0.000 C 
ATOM     19  C   UNL     1     -13.577 -44.883  29.076  1.00  0.00     0.065 C 
ATOM     20  C   UNL     1     -11.713 -45.887  27.733  1.00  0.00     0.065 C 
ATOM     21  C   UNL     1     -12.976 -45.471  30.346  1.00  0.00     0.262 C 
ATOM     22  C   UNL     1     -11.115 -46.473  29.004  1.00  0.00     0.262 C 
ATOM     23  N   UNL     1     -11.480 -45.611  30.185  1.00  0.00    -0.331 N 
ATOM     24  H   UNL     1     -11.107 -44.668  30.013  1.00  0.00     0.348 HD
BRANCH  23  25
ATOM     25  C   UNL     1     -10.804 -46.101  31.450  1.00  0.00     0.299 C 
BRANCH  25  26
ATOM     26  C   UNL     1      -9.525 -45.370  31.754  1.00  0.00     0.006 A 
ATOM     27  C   UNL     1      -9.556 -44.069  32.280  1.00  0.00     0.009 A 
ATOM     28  C   UNL     1      -8.282 -45.984  31.533  1.00  0.00     0.009 A 
ATOM     29  C   UNL     1      -8.368 -43.402  32.587  1.00  0.00     0.001 A 
ATOM     30  C   UNL     1      -7.099 -45.314  31.842  1.00  0.00     0.001 A 
ATOM     31  C   UNL     1      -7.142 -44.025  32.369  1.00  0.00     0.000 A 
ENDBRANCH  25  26
ENDBRANCH  23  25
ENDBRANCH   1  18
TORSDOF 5
ENDMDL
MODEL 2
REMARK VINA RESULT:   -12.303      3.441     10.273
REMARK INTER + INTRA:         -16.418
REMARK INTER:                 -15.896
REMARK INTRA:                  -0.522
REMARK UNBOUND:                -0.519
REMARK SMILES Cn1c(=O)cc2cc3o[nH]c(CC[C@H]4CC[N@H+](Cc5ccccc5)CC4)c3cc21
REMARK SMILES IDX 13 1 12 2 11 3 10 4 9 5 8 6 27 7 7 8 28 9 6 10 29 11 5 12
REMARK SMILES IDX 2 13 3 14 1 16 4 17 14 18 15 19 26 20 16 21 25 22 17 23
REMARK SMILES IDX 18 25 19 26 20 27 24 28 21 29 23 30 22 31
REMARK H PARENT 10 15 17 24
ROOT
ATOM      1  C   UNL     1     -12.010 -46.184  28.872  1.00  0.00     0.010 C 
ENDROOT
BRANCH   1   2
ATOM      2  C   UNL     1     -13.040 -46.153  30.013  1.00  0.00     0.058 C 
BRANCH   2   3
ATOM      3  C   UNL     1     -12.868 -44.989  30.935  1.00  0.00     0.060 A 
ATOM      4  N   UNL     1     -13.961 -44.215  31.336  1.00  0.00    -0.226 N 
ATOM      5  O   UNL     1     -13.540 -43.214  32.256  1.00  0.00    -0.382 OA
ATOM      6  C   UNL     1     -12.172 -43.393  32.324  1.00  0.00     0.164 A 
ATOM      7  C   UNL     1     -11.751 -44.520  31.499  1.00  0.00     0.044 A 
ATOM      8  C   UNL     1     -11.289 -42.675  33.040  1.00  0.00     0.061 A 
ATOM      9  C   UNL     1     -10.367 -44.949  31.415  1.00  0.00     0.041 A 
ATOM     10  C   UNL     1      -9.899 -43.089  32.942  1.00  0.00     0.008 A 
ATOM     11  C   UNL     1      -9.486 -44.229  32.126  1.00  0.00     0.052 A 
ATOM     12  C   UNL     1      -8.830 -42.552  33.542  1.00  0.00     0.082 A 
ATOM     13  N   UNL     1      -8.136 -44.345  32.268  1.00  0.00    -0.311 N 
ATOM     14  C   UNL     1      -7.656 -43.356  33.115  1.00  0.00     0.251 A 
ATOM     15  H   UNL     1     -14.701 -44.788  31.742  1.00  0.00     0.208 HD
ATOM     16  C   UNL     1      -7.302 -45.345  31.652  1.00  0.00     0.153 C 
ATOM     17  O   UNL     1      -6.512 -43.138  33.471  1.00  0.00    -0.269 OA
ENDBRANCH   2   3
ENDBRANCH   1   2
BRANCH   1  18
ATOM     18  C   UNL     1     -12.328 -45.287  27.658  1.00  0.00     0.000 C 
ATOM     19  C   UNL     1     -12.128 -43.795  27.954  1.00  0.00     0.065 C 
ATOM     20  C   UNL     1     -13.768 -45.527  27.181  1.00  0.00     0.065 C 
ATOM     21  C   UNL     1     -12.468 -42.935  26.744  1.00  0.00     0.262 C 
ATOM     22  C   UNL     1     -14.106 -44.665  25.973  1.00  0.00     0.262 C 
ATOM     23  N   UNL     1     -13.888 -43.211  26.306  1.00  0.00    -0.331 N 
ATOM     24  H   UNL     1     -14.498 -42.975  27.098  1.00  0.00     0.348 HD
BRANCH  23  25
ATOM     25  C   UNL     1     -14.326 -42.316  25.162  1.00  0.00     0.299 C 
BRANCH  25  26
ATOM     26  C   UNL     1     -15.778 -42.484  24.807  1.00  0.00     0.006 A 
ATOM     27  C   UNL     1     -16.764 -42.450  25.807  1.00  0.00     0.009 A 
ATOM     28  C   UNL     1     -16.170 -42.660  23.471  1.00  0.00     0.009 A 
ATOM     29  C   UNL     1     -18.113 -42.579  25.472  1.00  0.00     0.001 A 
ATOM     30  C   UNL     1     -17.520 -42.788  23.143  1.00  0.00     0.001 A 
ATOM     31  C   UNL     1     -18.489 -42.746  24.142  1.00  0.00     0.000 A 
ENDBRANCH  25  26
ENDBRANCH  23  25
ENDBRANCH   1  18
TORSDOF 5
ENDMDL
MODEL 3
REMARK VINA RESULT:   -12.132      1.965      2.823
REMARK INTER + INTRA:         -16.198
REMARK INTER:                 -15.385
REMARK INTRA:                  -0.812
REMARK UNBOUND:                -0.519
REMARK SMILES Cn1c(=O)cc2cc3o[nH]c(CC[C@H]4CC[N@H+](Cc5ccccc5)CC4)c3cc21
REMARK SMILES IDX 13 1 12 2 11 3 10 4 9 5 8 6 27 7 7 8 28 9 6 10 29 11 5 12
REMARK SMILES IDX 2 13 3 14 1 16 4 17 14 18 15 19 26 20 16 21 25 22 17 23
REMARK SMILES IDX 18 25 19 26 20 27 24 28 21 29 23 30 22 31
REMARK H PARENT 10 15 17 24
ROOT
ATOM      1  C   UNL     1     -13.958 -45.028  26.562  1.00  0.00     0.010 C 
ENDROOT
BRANCH   1   2
ATOM      2  C   UNL     1     -14.376 -43.572  26.296  1.00  0.00     0.058 C 
BRANCH   2   3
ATOM      3  C   UNL     1     -15.612 -43.167  27.033  1.00  0.00     0.060 A 
ATOM      4  N   UNL     1     -15.672 -43.216  28.429  1.00  0.00    -0.226 N 
ATOM      5  O   UNL     1     -16.928 -42.724  28.882  1.00  0.00    -0.382 OA
ATOM      6  C   UNL     1     -17.609 -42.451  27.712  1.00  0.00     0.164 A 
ATOM      7  C   UNL     1     -16.775 -42.720  26.546  1.00  0.00     0.044 A 
ATOM      8  C   UNL     1     -18.865 -41.987  27.587  1.00  0.00     0.061 A 
ATOM      9  C   UNL     1     -17.234 -42.488  25.189  1.00  0.00     0.041 A 
ATOM     10  C   UNL     1     -19.335 -41.772  26.228  1.00  0.00     0.008 A 
ATOM     11  C   UNL     1     -18.489 -42.029  25.065  1.00  0.00     0.052 A 
ATOM     12  C   UNL     1     -20.531 -41.324  25.826  1.00  0.00     0.082 A 
ATOM     13  N   UNL     1     -19.226 -41.715  23.964  1.00  0.00    -0.311 N 
ATOM     14  C   UNL     1     -20.489 -41.279  24.341  1.00  0.00     0.251 A 
ATOM     15  H   UNL     1     -14.906 -42.696  28.858  1.00  0.00     0.208 HD
ATOM     16  C   UNL     1     -18.785 -41.801  22.596  1.00  0.00     0.153 C 
ATOM     17  O   UNL     1     -21.419 -40.922  23.641  1.00  0.00    -0.269 OA
ENDBRANCH   2   3
ENDBRANCH   1   2
BRANCH   1  18
ATOM     18  C   UNL     1     -12.719 -45.215  27.462  1.00  0.00     0.000 C 
ATOM     19  C   UNL     1     -13.040 -45.955  28.766  1.00  0.00     0.065 C 
ATOM     20  C   UNL     1     -12.086 -43.854  27.787  1.00  0.00     0.065 C 
ATOM     21  C   UNL     1     -11.803 -46.107  29.642  1.00  0.00     0.262 C 
ATOM     22  C   UNL     1     -10.851 -44.008  28.663  1.00  0.00     0.262 C 
ATOM     23  N   UNL     1     -11.210 -44.747  29.926  1.00  0.00    -0.331 N 
ATOM     24  H   UNL     1     -11.932 -44.201  30.415  1.00  0.00     0.348 HD
BRANCH  23  25
ATOM     25  C   UNL     1     -10.029 -44.816  30.874  1.00  0.00     0.299 C 
BRANCH  25  26
ATOM     26  C   UNL     1     -10.141 -43.855  32.026  1.00  0.00     0.006 A 
ATOM     27  C   UNL     1      -8.995 -43.443  32.724  1.00  0.00     0.009 A 
ATOM     28  C   UNL     1     -11.391 -43.343  32.409  1.00  0.00     0.009 A 
ATOM     29  C   UNL     1      -9.098 -42.531  33.775  1.00  0.00     0.001 A 
ATOM     30  C   UNL     1     -11.487 -42.432  33.460  1.00  0.00     0.001 A 
ATOM     31  C   UNL     1     -10.343 -42.025  34.141  1.00  0.00     0.000 A 
ENDBRANCH  25  26
ENDBRANCH  23  25
ENDBRANCH   1  18
TORSDOF 5
ENDMDL
MODEL 4
REMARK VINA RESULT:   -11.829      4.156     10.017
REMARK INTER + INTRA:         -15.805
REMARK INTER:                 -14.846
REMARK INTRA:                  -0.959
REMARK UNBOUND:                -0.519
REMARK SMILES Cn1c(=O)cc2cc3o[nH]c(CC[C@H]4CC[N@H+](Cc5ccccc5)CC4)c3cc21
REMARK SMILES IDX 13 1 12 2 11 3 10 4 9 5 8 6 27 7 7 8 28 9 6 10 29 11 5 12
REMARK SMILES IDX 2 13 3 14 1 16 4 17 14 18 15 19 26 20 16 21 25 22 17 23
REMARK SMILES IDX 18 25 19 26 20 27 24 28 21 29 23 30 22 31
REMARK H PARENT 10 15 17 24
ROOT
ATOM      1  C   UNL     1      -9.979 -46.006  28.658  1.00  0.00     0.010 C 
ENDROOT
BRANCH   1   2
ATOM      2  C   UNL     1      -9.566 -46.702  29.965  1.00  0.00     0.058 C 
BRANCH   2   3
ATOM      3  C   UNL     1      -8.730 -45.841  30.856  1.00  0.00     0.060 A 
ATOM      4  N   UNL     1      -7.340 -45.982  30.904  1.00  0.00    -0.226 N 
ATOM      5  O   UNL     1      -6.779 -45.009  31.778  1.00  0.00    -0.382 OA
ATOM      6  C   UNL     1      -7.885 -44.348  32.277  1.00  0.00     0.164 A 
ATOM      7  C   UNL     1      -9.114 -44.866  31.687  1.00  0.00     0.044 A 
ATOM      8  C   UNL     1      -7.902 -43.348  33.176  1.00  0.00     0.061 A 
ATOM      9  C   UNL     1     -10.422 -44.327  32.012  1.00  0.00     0.041 A 
ATOM     10  C   UNL     1      -9.212 -42.820  33.519  1.00  0.00     0.008 A 
ATOM     11  C   UNL     1     -10.438 -43.333  32.912  1.00  0.00     0.052 A 
ATOM     12  C   UNL     1      -9.510 -41.836  34.378  1.00  0.00     0.082 A 
ATOM     13  N   UNL     1     -11.469 -42.616  33.441  1.00  0.00    -0.311 N 
ATOM     14  C   UNL     1     -10.988 -41.683  34.349  1.00  0.00     0.251 A 
ATOM     15  H   UNL     1      -6.922 -45.915  29.975  1.00  0.00     0.208 HD
ATOM     16  C   UNL     1     -12.864 -42.772  33.118  1.00  0.00     0.153 C 
ATOM     17  O   UNL     1     -11.604 -40.875  35.020  1.00  0.00    -0.269 OA
ENDBRANCH   2   3
ENDBRANCH   1   2
BRANCH   1  18
ATOM     18  C   UNL     1     -11.316 -45.239  28.701  1.00  0.00     0.000 C 
ATOM     19  C   UNL     1     -12.491 -46.064  28.159  1.00  0.00     0.065 C 
ATOM     20  C   UNL     1     -11.204 -43.927  27.911  1.00  0.00     0.065 C 
ATOM     21  C   UNL     1     -13.793 -45.274  28.196  1.00  0.00     0.262 C 
ATOM     22  C   UNL     1     -12.506 -43.140  27.948  1.00  0.00     0.262 C 
ATOM     23  N   UNL     1     -13.632 -43.990  27.416  1.00  0.00    -0.331 N 
ATOM     24  H   UNL     1     -13.398 -44.252  26.450  1.00  0.00     0.348 HD
BRANCH  23  25
ATOM     25  C   UNL     1     -14.922 -43.198  27.330  1.00  0.00     0.299 C 
BRANCH  25  26
ATOM     26  C   UNL     1     -15.510 -43.179  25.946  1.00  0.00     0.006 A 
ATOM     27  C   UNL     1     -14.772 -43.659  24.852  1.00  0.00     0.009 A 
ATOM     28  C   UNL     1     -16.810 -42.696  25.729  1.00  0.00     0.009 A 
ATOM     29  C   UNL     1     -15.329 -43.665  23.572  1.00  0.00     0.001 A 
ATOM     30  C   UNL     1     -17.361 -42.705  24.448  1.00  0.00     0.001 A 
ATOM     31  C   UNL     1     -16.622 -43.190  23.372  1.00  0.00     0.000 A 
ENDBRANCH  25  26
ENDBRANCH  23  25
ENDBRANCH   1  18
TORSDOF 5
ENDMDL
MODEL 5
REMARK VINA RESULT:   -11.305      3.213     10.463
REMARK INTER + INTRA:         -15.129
REMARK INTER:                 -14.864
REMARK INTRA:                  -0.265
REMARK UNBOUND:                -0.519
REMARK SMILES Cn1c(=O)cc2cc3o[nH]c(CC[C@H]4CC[N@H+](Cc5ccccc5)CC4)c3cc21
REMARK SMILES IDX 13 1 12 2 11 3 10 4 9 5 8 6 27 7 7 8 28 9 6 10 29 11 5 12
REMARK SMILES IDX 2 13 3 14 1 16 4 17 14 18 15 19 26 20 16 21 25 22 17 23
REMARK SMILES IDX 18 25 19 26 20 27 24 28 21 29 23 30 22 31
REMARK H PARENT 10 15 17 24
ROOT
ATOM      1  C   UNL     1     -13.184 -43.631  26.834  1.00  0.00     0.010 C 
ENDROOT
BRANCH   1   2
ATOM      2  C   UNL     1     -13.381 -45.120  27.163  1.00  0.00     0.058 C 
BRANCH   2   3
ATOM      3  C   UNL     1     -12.990 -45.474  28.562  1.00  0.00     0.060 A 
ATOM      4  N   UNL     1     -13.783 -46.318  29.344  1.00  0.00    -0.226 N 
ATOM      5  O   UNL     1     -13.162 -46.544  30.605  1.00  0.00    -0.382 OA
ATOM      6  C   UNL     1     -12.026 -45.759  30.550  1.00  0.00     0.164 A 
ATOM      7  C   UNL     1     -11.913 -45.093  29.257  1.00  0.00     0.044 A 
ATOM      8  C   UNL     1     -11.101 -45.593  31.511  1.00  0.00     0.061 A 
ATOM      9  C   UNL     1     -10.794 -44.232  28.919  1.00  0.00     0.041 A 
ATOM     10  C   UNL     1      -9.989 -44.715  31.184  1.00  0.00     0.008 A 
ATOM     11  C   UNL     1      -9.874 -44.064  29.881  1.00  0.00     0.052 A 
ATOM     12  C   UNL     1      -8.945 -44.379  31.951  1.00  0.00     0.082 A 
ATOM     13  N   UNL     1      -8.724 -43.333  29.907  1.00  0.00    -0.311 N 
ATOM     14  C   UNL     1      -8.098 -43.469  31.138  1.00  0.00     0.251 A 
ATOM     15  H   UNL     1     -13.971 -47.204  28.872  1.00  0.00     0.208 HD
ATOM     16  C   UNL     1      -8.201 -42.537  28.827  1.00  0.00     0.153 C 
ATOM     17  O   UNL     1      -7.062 -42.965  31.532  1.00  0.00    -0.269 OA
ENDBRANCH   2   3
ENDBRANCH   1   2
BRANCH   1  18
ATOM     18  C   UNL     1     -14.418 -42.902  26.263  1.00  0.00     0.000 C 
ATOM     19  C   UNL     1     -15.705 -43.222  27.034  1.00  0.00     0.065 C 
ATOM     20  C   UNL     1     -14.607 -43.256  24.780  1.00  0.00     0.065 C 
ATOM     21  C   UNL     1     -16.908 -42.504  26.436  1.00  0.00     0.262 C 
ATOM     22  C   UNL     1     -15.810 -42.539  24.185  1.00  0.00     0.262 C 
ATOM     23  N   UNL     1     -17.048 -42.874  24.977  1.00  0.00    -0.331 N 
ATOM     24  H   UNL     1     -17.181 -43.893  24.937  1.00  0.00     0.348 HD
BRANCH  23  25
ATOM     25  C   UNL     1     -18.285 -42.269  24.342  1.00  0.00     0.299 C 
BRANCH  25  26
ATOM     26  C   UNL     1     -19.527 -42.467  25.167  1.00  0.00     0.006 A 
ATOM     27  C   UNL     1     -20.184 -43.708  25.177  1.00  0.00     0.009 A 
ATOM     28  C   UNL     1     -20.037 -41.421  25.951  1.00  0.00     0.009 A 
ATOM     29  C   UNL     1     -21.322 -43.898  25.964  1.00  0.00     0.001 A 
ATOM     30  C   UNL     1     -21.174 -41.617  26.735  1.00  0.00     0.001 A 
ATOM     31  C   UNL     1     -21.814 -42.854  26.742  1.00  0.00     0.000 A 
ENDBRANCH  25  26
ENDBRANCH  23  25
ENDBRANCH   1  18
TORSDOF 5
ENDMDL
MODEL 6
REMARK VINA RESULT:   -11.058      1.770      2.867
REMARK INTER + INTRA:         -14.810
REMARK INTER:                 -13.980
REMARK INTRA:                  -0.830
REMARK UNBOUND:                -0.519
REMARK SMILES Cn1c(=O)cc2cc3o[nH]c(CC[C@H]4CC[N@H+](Cc5ccccc5)CC4)c3cc21
REMARK SMILES IDX 13 1 12 2 11 3 10 4 9 5 8 6 27 7 7 8 28 9 6 10 29 11 5 12
REMARK SMILES IDX 2 13 3 14 1 16 4 17 14 18 15 19 26 20 16 21 25 22 17 23
REMARK SMILES IDX 18 25 19 26 20 27 24 28 21 29 23 30 22 31
REMARK H PARENT 10 15 17 24
ROOT
ATOM      1  C   UNL     1     -14.773 -42.977  24.918  1.00  0.00     0.010 C 
ENDROOT
BRANCH   1   2
ATOM      2  C   UNL     1     -15.665 -43.507  23.782  1.00  0.00     0.058 C 
BRANCH   2   3
ATOM      3  C   UNL     1     -16.757 -42.561  23.397  1.00  0.00     0.060 A 
ATOM      4  N   UNL     1     -16.685 -41.813  22.219  1.00  0.00    -0.226 N 
ATOM      5  O   UNL     1     -17.871 -41.042  22.055  1.00  0.00    -0.382 OA
ATOM      6  C   UNL     1     -18.595 -41.319  23.199  1.00  0.00     0.164 A 
ATOM      7  C   UNL     1     -17.897 -42.285  24.039  1.00  0.00     0.044 A 
ATOM      8  C   UNL     1     -19.791 -40.814  23.550  1.00  0.00     0.061 A 
ATOM      9  C   UNL     1     -18.451 -42.776  25.288  1.00  0.00     0.041 A 
ATOM     10  C   UNL     1     -20.340 -41.288  24.810  1.00  0.00     0.008 A 
ATOM     11  C   UNL     1     -19.643 -42.268  25.639  1.00  0.00     0.052 A 
ATOM     12  C   UNL     1     -21.498 -40.949  25.389  1.00  0.00     0.082 A 
ATOM     13  N   UNL     1     -20.431 -42.497  26.726  1.00  0.00    -0.311 N 
ATOM     14  C   UNL     1     -21.584 -41.727  26.652  1.00  0.00     0.251 A 
ATOM     15  H   UNL     1     -16.527 -42.407  21.404  1.00  0.00     0.208 HD
ATOM     16  C   UNL     1     -20.145 -43.406  27.805  1.00  0.00     0.153 C 
ATOM     17  O   UNL     1     -22.513 -41.657  27.436  1.00  0.00    -0.269 OA
ENDBRANCH   2   3
ENDBRANCH   1   2
BRANCH   1  18
ATOM     18  C   UNL     1     -14.797 -43.795  26.225  1.00  0.00     0.000 C 
ATOM     19  C   UNL     1     -15.432 -43.028  27.393  1.00  0.00     0.065 C 
ATOM     20  C   UNL     1     -13.375 -44.228  26.609  1.00  0.00     0.065 C 
ATOM     21  C   UNL     1     -15.423 -43.853  28.673  1.00  0.00     0.262 C 
ATOM     22  C   UNL     1     -13.368 -45.051  27.890  1.00  0.00     0.262 C 
ATOM     23  N   UNL     1     -14.008 -44.264  29.005  1.00  0.00    -0.331 N 
ATOM     24  H   UNL     1     -13.466 -43.399  29.131  1.00  0.00     0.348 HD
BRANCH  23  25
ATOM     25  C   UNL     1     -13.914 -45.007  30.323  1.00  0.00     0.299 C 
BRANCH  25  26
ATOM     26  C   UNL     1     -12.520 -45.033  30.887  1.00  0.00     0.006 A 
ATOM     27  C   UNL     1     -11.712 -46.171  30.736  1.00  0.00     0.009 A 
ATOM     28  C   UNL     1     -12.000 -43.914  31.556  1.00  0.00     0.009 A 
ATOM     29  C   UNL     1     -10.408 -46.184  31.236  1.00  0.00     0.001 A 
ATOM     30  C   UNL     1     -10.697 -43.933  32.054  1.00  0.00     0.001 A 
ATOM     31  C   UNL     1      -9.902 -45.065  31.892  1.00  0.00     0.000 A 
ENDBRANCH  25  26
ENDBRANCH  23  25
ENDBRANCH   1  18
TORSDOF 5
ENDMDL
MODEL 7
REMARK VINA RESULT:   -11.011      2.183      3.741
REMARK INTER + INTRA:         -14.749
REMARK INTER:                 -14.192
REMARK INTRA:                  -0.557
REMARK UNBOUND:                -0.519
REMARK SMILES Cn1c(=O)cc2cc3o[nH]c(CC[C@H]4CC[N@H+](Cc5ccccc5)CC4)c3cc21
REMARK SMILES IDX 13 1 12 2 11 3 10 4 9 5 8 6 27 7 7 8 28 9 6 10 29 11 5 12
REMARK SMILES IDX 2 13 3 14 1 16 4 17 14 18 15 19 26 20 16 21 25 22 17 23
REMARK SMILES IDX 18 25 19 26 20 27 24 28 21 29 23 30 22 31
REMARK H PARENT 10 15 17 24
ROOT
ATOM      1  C   UNL     1     -15.477 -42.206  23.970  1.00  0.00     0.010 C 
ENDROOT
BRANCH   1   2
ATOM      2  C   UNL     1     -16.434 -42.646  22.850  1.00  0.00     0.058 C 
BRANCH   2   3
ATOM      3  C   UNL     1     -17.634 -41.765  22.716  1.00  0.00     0.060 A 
ATOM      4  N   UNL     1     -17.792 -40.919  21.614  1.00  0.00    -0.226 N 
ATOM      5  O   UNL     1     -19.039 -40.237  21.696  1.00  0.00    -0.382 OA
ATOM      6  C   UNL     1     -19.562 -40.664  22.902  1.00  0.00     0.164 A 
ATOM      7  C   UNL     1     -18.680 -41.635  23.539  1.00  0.00     0.044 A 
ATOM      8  C   UNL     1     -20.723 -40.289  23.467  1.00  0.00     0.061 A 
ATOM      9  C   UNL     1     -19.005 -42.271  24.803  1.00  0.00     0.041 A 
ATOM     10  C   UNL     1     -21.041 -40.908  24.743  1.00  0.00     0.008 A 
ATOM     11  C   UNL     1     -20.161 -41.892  25.368  1.00  0.00     0.052 A 
ATOM     12  C   UNL     1     -22.120 -40.713  25.512  1.00  0.00     0.082 A 
ATOM     13  N   UNL     1     -20.760 -42.272  26.532  1.00  0.00    -0.311 N 
ATOM     14  C   UNL     1     -21.960 -41.596  26.697  1.00  0.00     0.251 A 
ATOM     15  H   UNL     1     -17.719 -41.430  20.733  1.00  0.00     0.208 HD
ATOM     16  C   UNL     1     -20.252 -43.241  27.469  1.00  0.00     0.153 C 
ATOM     17  O   UNL     1     -22.763 -41.666  27.610  1.00  0.00    -0.269 OA
ENDBRANCH   2   3
ENDBRANCH   1   2
BRANCH   1  18
ATOM     18  C   UNL     1     -15.428 -43.124  25.209  1.00  0.00     0.000 C 
ATOM     19  C   UNL     1     -15.427 -42.341  26.528  1.00  0.00     0.065 C 
ATOM     20  C   UNL     1     -14.191 -44.032  25.150  1.00  0.00     0.065 C 
ATOM     21  C   UNL     1     -15.358 -43.273  27.731  1.00  0.00     0.262 C 
ATOM     22  C   UNL     1     -14.123 -44.961  26.354  1.00  0.00     0.262 C 
ATOM     23  N   UNL     1     -14.134 -44.151  27.625  1.00  0.00    -0.331 N 
ATOM     24  H   UNL     1     -13.317 -43.527  27.607  1.00  0.00     0.348 HD
BRANCH  23  25
ATOM     25  C   UNL     1     -13.951 -45.039  28.841  1.00  0.00     0.299 C 
BRANCH  25  26
ATOM     26  C   UNL     1     -12.514 -45.410  29.088  1.00  0.00     0.006 A 
ATOM     27  C   UNL     1     -11.856 -44.974  30.249  1.00  0.00     0.009 A 
ATOM     28  C   UNL     1     -11.816 -46.210  28.170  1.00  0.00     0.009 A 
ATOM     29  C   UNL     1     -10.530 -45.341  30.490  1.00  0.00     0.001 A 
ATOM     30  C   UNL     1     -10.492 -46.574  28.416  1.00  0.00     0.001 A 
ATOM     31  C   UNL     1      -9.851 -46.141  29.575  1.00  0.00     0.000 A 
ENDBRANCH  25  26
ENDBRANCH  23  25
ENDBRANCH   1  18
TORSDOF 5
ENDMDL
MODEL 8
REMARK VINA RESULT:   -10.947      4.103      9.091
REMARK INTER + INTRA:         -14.666
REMARK INTER:                 -14.735
REMARK INTRA:                   0.069
REMARK UNBOUND:                -0.519
REMARK SMILES Cn1c(=O)cc2cc3o[nH]c(CC[C@H]4CC[N@H+](Cc5ccccc5)CC4)c3cc21
REMARK SMILES IDX 13 1 12 2 11 3 10 4 9 5 8 6 27 7 7 8 28 9 6 10 29 11 5 12
REMARK SMILES IDX 2 13 3 14 1 16 4 17 14 18 15 19 26 20 16 21 25 22 17 23
REMARK SMILES IDX 18 25 19 26 20 27 24 28 21 29 23 30 22 31
REMARK H PARENT 10 15 17 24
ROOT
ATOM      1  C   UNL     1      -8.548 -44.231  29.965  1.00  0.00     0.010 C 
ENDROOT
BRANCH   1   2
ATOM      2  C   UNL     1      -8.076 -44.682  31.357  1.00  0.00     0.058 C 
BRANCH   2   3
ATOM      3  C   UNL     1      -8.505 -43.762  32.455  1.00  0.00     0.060 A 
ATOM      4  N   UNL     1      -7.572 -43.180  33.318  1.00  0.00    -0.226 N 
ATOM      5  O   UNL     1      -8.228 -42.304  34.228  1.00  0.00    -0.382 OA
ATOM      6  C   UNL     1      -9.564 -42.447  33.908  1.00  0.00     0.164 A 
ATOM      7  C   UNL     1      -9.737 -43.358  32.782  1.00  0.00     0.044 A 
ATOM      8  C   UNL     1     -10.614 -41.850  34.499  1.00  0.00     0.061 A 
ATOM      9  C   UNL     1     -11.040 -43.662  32.219  1.00  0.00     0.041 A 
ATOM     10  C   UNL     1     -11.922 -42.168  33.950  1.00  0.00     0.008 A 
ATOM     11  C   UNL     1     -12.087 -43.070  32.813  1.00  0.00     0.052 A 
ATOM     12  C   UNL     1     -13.119 -41.720  34.349  1.00  0.00     0.082 A 
ATOM     13  N   UNL     1     -13.423 -43.136  32.553  1.00  0.00    -0.311 N 
ATOM     14  C   UNL     1     -14.125 -42.341  33.449  1.00  0.00     0.251 A 
ATOM     15  H   UNL     1      -6.842 -42.684  32.805  1.00  0.00     0.208 HD
ATOM     16  C   UNL     1     -14.046 -43.898  31.502  1.00  0.00     0.153 C 
ATOM     17  O   UNL     1     -15.326 -42.155  33.533  1.00  0.00    -0.269 OA
ENDBRANCH   2   3
ENDBRANCH   1   2
BRANCH   1  18
ATOM     18  C   UNL     1      -9.981 -44.647  29.575  1.00  0.00     0.000 C 
ATOM     19  C   UNL     1     -10.065 -46.100  29.091  1.00  0.00     0.065 C 
ATOM     20  C   UNL     1     -10.530 -43.712  28.488  1.00  0.00     0.065 C 
ATOM     21  C   UNL     1     -11.487 -46.476  28.695  1.00  0.00     0.262 C 
ATOM     22  C   UNL     1     -11.951 -44.090  28.093  1.00  0.00     0.262 C 
ATOM     23  N   UNL     1     -11.988 -45.525  27.633  1.00  0.00    -0.331 N 
ATOM     24  H   UNL     1     -11.355 -45.613  26.828  1.00  0.00     0.348 HD
BRANCH  23  25
ATOM     25  C   UNL     1     -13.365 -45.900  27.122  1.00  0.00     0.299 C 
BRANCH  25  26
ATOM     26  C   UNL     1     -14.108 -44.737  26.523  1.00  0.00     0.006 A 
ATOM     27  C   UNL     1     -14.779 -43.820  27.348  1.00  0.00     0.009 A 
ATOM     28  C   UNL     1     -14.127 -44.541  25.134  1.00  0.00     0.009 A 
ATOM     29  C   UNL     1     -15.445 -42.726  26.793  1.00  0.00     0.001 A 
ATOM     30  C   UNL     1     -14.795 -43.446  24.584  1.00  0.00     0.001 A 
ATOM     31  C   UNL     1     -15.451 -42.540  25.413  1.00  0.00     0.000 A 
ENDBRANCH  25  26
ENDBRANCH  23  25
ENDBRANCH   1  18
TORSDOF 5
ENDMDL
MODEL 9
REMARK VINA RESULT:   -10.623      3.509     10.225
REMARK INTER + INTRA:         -14.248
REMARK INTER:                 -14.171
REMARK INTRA:                  -0.076
REMARK UNBOUND:                -0.519
REMARK SMILES Cn1c(=O)cc2cc3o[nH]c(CC[C@H]4CC[N@H+](Cc5ccccc5)CC4)c3cc21
REMARK SMILES IDX 13 1 12 2 11 3 10 4 9 5 8 6 27 7 7 8 28 9 6 10 29 11 5 12
REMARK SMILES IDX 2 13 3 14 1 16 4 17 14 18 15 19 26 20 16 21 25 22 17 23
REMARK SMILES IDX 18 25 19 26 20 27 24 28 21 29 23 30 22 31
REMARK H PARENT 10 15 17 24
ROOT
ATOM      1  C   UNL     1     -13.987 -44.681  28.623  1.00  0.00     0.010 C 
ENDROOT
BRANCH   1   2
ATOM      2  C   UNL     1     -13.183 -45.990  28.543  1.00  0.00     0.058 C 
BRANCH   2   3
ATOM      3  C   UNL     1     -11.802 -45.872  29.103  1.00  0.00     0.060 A 
ATOM      4  N   UNL     1     -10.727 -46.558  28.530  1.00  0.00    -0.226 N 
ATOM      5  O   UNL     1      -9.520 -46.230  29.209  1.00  0.00    -0.382 OA
ATOM      6  C   UNL     1      -9.938 -45.389  30.222  1.00  0.00     0.164 A 
ATOM      7  C   UNL     1     -11.375 -45.155  30.148  1.00  0.00     0.044 A 
ATOM      8  C   UNL     1      -9.179 -44.818  31.174  1.00  0.00     0.061 A 
ATOM      9  C   UNL     1     -12.072 -44.282  31.075  1.00  0.00     0.041 A 
ATOM     10  C   UNL     1      -9.876 -43.958  32.117  1.00  0.00     0.008 A 
ATOM     11  C   UNL     1     -11.314 -43.716  32.027  1.00  0.00     0.052 A 
ATOM     12  C   UNL     1      -9.367 -43.277  33.151  1.00  0.00     0.082 A 
ATOM     13  N   UNL     1     -11.635 -42.866  33.043  1.00  0.00    -0.311 N 
ATOM     14  C   UNL     1     -10.501 -42.552  33.780  1.00  0.00     0.251 A 
ATOM     15  H   UNL     1     -10.643 -46.363  27.532  1.00  0.00     0.208 HD
ATOM     16  C   UNL     1     -12.945 -42.343  33.329  1.00  0.00     0.153 C 
ATOM     17  O   UNL     1     -10.395 -41.834  34.758  1.00  0.00    -0.269 OA
ENDBRANCH   2   3
ENDBRANCH   1   2
BRANCH   1  18
ATOM     18  C   UNL     1     -14.203 -43.945  27.284  1.00  0.00     0.000 C 
ATOM     19  C   UNL     1     -15.503 -43.132  27.259  1.00  0.00     0.065 C 
ATOM     20  C   UNL     1     -14.201 -44.946  26.119  1.00  0.00     0.065 C 
ATOM     21  C   UNL     1     -15.699 -42.433  25.919  1.00  0.00     0.262 C 
ATOM     22  C   UNL     1     -14.398 -44.246  24.782  1.00  0.00     0.262 C 
ATOM     23  N   UNL     1     -15.680 -43.454  24.805  1.00  0.00    -0.331 N 
ATOM     24  H   UNL     1     -16.452 -44.109  24.985  1.00  0.00     0.348 HD
BRANCH  23  25
ATOM     25  C   UNL     1     -15.966 -42.837  23.449  1.00  0.00     0.299 C 
BRANCH  25  26
ATOM     26  C   UNL     1     -17.329 -42.206  23.366  1.00  0.00     0.006 A 
ATOM     27  C   UNL     1     -18.365 -42.633  24.213  1.00  0.00     0.009 A 
ATOM     28  C   UNL     1     -17.581 -41.171  22.452  1.00  0.00     0.009 A 
ATOM     29  C   UNL     1     -19.621 -42.028  24.152  1.00  0.00     0.001 A 
ATOM     30  C   UNL     1     -18.838 -40.570  22.396  1.00  0.00     0.001 A 
ATOM     31  C   UNL     1     -19.856 -40.996  23.246  1.00  0.00     0.000 A 
ENDBRANCH  25  26
ENDBRANCH  23  25
ENDBRANCH   1  18
TORSDOF 5
ENDMDL
