MODEL 1
REMARK VINA RESULT:   -10.189      0.000      0.000
REMARK INTER + INTRA:         -19.127
REMARK INTER:                 -17.933
REMARK INTRA:                  -1.195
REMARK UNBOUND:                -1.195
REMARK SMILES C#CCNc1nc(NCCCC[C@H]2CC[N@@H+](Cc3ccccc3)CC2)c(C#N)cc1C#N
REMARK SMILES IDX 9 1 10 2 11 3 12 4 13 5 15 6 16 7 14 8 24 9 25 10 17 12
REMARK SMILES IDX 18 13 19 14 23 15 20 16 22 17 21 18 8 19 7 21 6 22 26 23
REMARK SMILES IDX 5 24 29 25 30 26 27 27 28 28 4 29 3 31 2 32 1 33 31 34 32 35
REMARK H PARENT 16 11 8 20 4 30
ROOT
ATOM      1  C   UNL     1     -11.521 -46.200  29.308  1.00  0.00     0.114 C 
ENDROOT
BRANCH   1   2
ATOM      2  C   UNL     1     -11.393 -46.553  27.819  1.00  0.00     0.021 C 
BRANCH   2   3
ATOM      3  C   UNL     1     -12.706 -46.396  27.038  1.00  0.00     0.002 C 
BRANCH   3   4
ATOM      4  C   UNL     1     -13.611 -45.299  27.623  1.00  0.00     0.004 C 
BRANCH   4   5
ATOM      5  C   UNL     1     -13.880 -44.143  26.647  1.00  0.00    -0.000 C 
ATOM      6  C   UNL     1     -14.549 -43.577  24.278  1.00  0.00     0.262 C 
ATOM      7  N   UNL     1     -15.594 -42.623  24.806  1.00  0.00    -0.331 N 
ATOM      8  C   UNL     1     -14.305 -44.697  25.278  1.00  0.00     0.065 C 
ATOM      9  C   UNL     1     -15.204 -42.049  26.146  1.00  0.00     0.262 C 
ATOM     10  C   UNL     1     -14.934 -43.153  27.163  1.00  0.00     0.065 C 
ATOM     11  H   UNL     1     -15.592 -41.824  24.160  1.00  0.00     0.348 HD
BRANCH   7  12
ATOM     12  C   UNL     1     -17.002 -43.170  24.727  1.00  0.00     0.299 C 
BRANCH  12  13
ATOM     13  C   UNL     1     -17.944 -42.267  23.978  1.00  0.00     0.006 A 
ATOM     14  C   UNL     1     -19.218 -41.981  24.492  1.00  0.00     0.009 A 
ATOM     15  C   UNL     1     -17.553 -41.681  22.764  1.00  0.00     0.009 A 
ATOM     16  C   UNL     1     -20.079 -41.121  23.809  1.00  0.00     0.001 A 
ATOM     17  C   UNL     1     -18.418 -40.822  22.084  1.00  0.00     0.001 A 
ATOM     18  C   UNL     1     -19.678 -40.541  22.608  1.00  0.00     0.000 A 
ENDBRANCH  12  13
ENDBRANCH   7  12
ENDBRANCH   4   5
ENDBRANCH   3   4
ENDBRANCH   2   3
ENDBRANCH   1   2
BRANCH   1  19
ATOM     19  N   UNL     1     -10.237 -45.742  29.844  1.00  0.00    -0.369 N 
ATOM     20  H   UNL     1      -9.683 -46.527  30.184  1.00  0.00     0.162 HD
BRANCH  19  21
ATOM     21  C   UNL     1     -10.334 -44.783  30.872  1.00  0.00     0.146 A 
ATOM     22  N   UNL     1     -11.470 -44.059  30.988  1.00  0.00    -0.212 NA
ATOM     23  C   UNL     1      -9.266 -44.591  31.752  1.00  0.00     0.096 A 
ATOM     24  C   UNL     1     -11.623 -43.158  31.988  1.00  0.00     0.147 A 
ATOM     25  C   UNL     1      -9.399 -43.653  32.776  1.00  0.00     0.046 A 
ATOM     26  C   UNL     1     -10.587 -42.925  32.896  1.00  0.00     0.096 A 
BRANCH  23  27
ATOM     27  C   UNL     1      -8.024 -45.281  31.576  1.00  0.00     0.103 C 
ATOM     28  N   UNL     1      -6.999 -45.814  31.447  1.00  0.00    -0.192 NA
ENDBRANCH  23  27
BRANCH  24  29
ATOM     29  N   UNL     1     -12.800 -42.400  32.040  1.00  0.00    -0.358 N 
ATOM     30  H   UNL     1     -12.631 -41.460  32.392  1.00  0.00     0.163 HD
BRANCH  29  31
ATOM     31  C   UNL     1     -13.946 -42.995  32.722  1.00  0.00     0.204 C 
BRANCH  31  32
ATOM     32  C   UNL     1     -14.902 -41.959  33.141  1.00  0.00    -0.085 C 
ATOM     33  C   UNL     1     -15.678 -41.108  33.483  1.00  0.00     0.006 C 
ENDBRANCH  31  32
ENDBRANCH  29  31
ENDBRANCH  24  29
BRANCH  26  34
ATOM     34  C   UNL     1     -10.705 -41.956  33.942  1.00  0.00     0.103 C 
ATOM     35  N   UNL     1     -10.831 -41.155  34.772  1.00  0.00    -0.192 NA
ENDBRANCH  26  34
ENDBRANCH  19  21
ENDBRANCH   1  19
TORSDOF 13
ENDMDL
MODEL 2
REMARK VINA RESULT:    -9.985      2.147     10.156
REMARK INTER + INTRA:         -18.768
REMARK INTER:                 -17.490
REMARK INTRA:                  -1.278
REMARK UNBOUND:                -1.195
REMARK SMILES C#CCNc1nc(NCCCC[C@H]2CC[N@@H+](Cc3ccccc3)CC2)c(C#N)cc1C#N
REMARK SMILES IDX 9 1 10 2 11 3 12 4 13 5 15 6 16 7 14 8 24 9 25 10 17 12
REMARK SMILES IDX 18 13 19 14 23 15 20 16 22 17 21 18 8 19 7 21 6 22 26 23
REMARK SMILES IDX 5 24 29 25 30 26 27 27 28 28 4 29 3 31 2 32 1 33 31 34 32 35
REMARK H PARENT 16 11 8 20 4 30
ROOT
ATOM      1  C   UNL     1     -14.786 -43.378  25.091  1.00  0.00     0.114 C 
ENDROOT
BRANCH   1   2
ATOM      2  C   UNL     1     -14.232 -44.781  25.377  1.00  0.00     0.021 C 
BRANCH   2   3
ATOM      3  C   UNL     1     -13.755 -44.968  26.825  1.00  0.00     0.002 C 
BRANCH   3   4
ATOM      4  C   UNL     1     -12.899 -46.233  27.004  1.00  0.00     0.004 C 
BRANCH   4   5
ATOM      5  C   UNL     1     -12.349 -46.404  28.429  1.00  0.00    -0.000 C 
ATOM      6  C   UNL     1     -10.258 -46.303  29.842  1.00  0.00     0.262 C 
ATOM      7  N   UNL     1     -10.979 -45.423  30.836  1.00  0.00    -0.331 N 
ATOM      8  C   UNL     1     -10.841 -46.112  28.450  1.00  0.00     0.065 C 
ATOM      9  C   UNL     1     -12.464 -45.692  30.851  1.00  0.00     0.262 C 
ATOM     10  C   UNL     1     -13.069 -45.526  29.461  1.00  0.00     0.065 C 
ATOM     11  H   UNL     1     -10.642 -45.717  31.761  1.00  0.00     0.348 HD
BRANCH   7  12
ATOM     12  C   UNL     1     -10.592 -43.963  30.737  1.00  0.00     0.299 C 
BRANCH  12  13
ATOM     13  C   UNL     1     -10.195 -43.369  32.061  1.00  0.00     0.006 A 
ATOM     14  C   UNL     1      -8.854 -43.378  32.475  1.00  0.00     0.009 A 
ATOM     15  C   UNL     1     -11.159 -42.777  32.892  1.00  0.00     0.009 A 
ATOM     16  C   UNL     1      -8.485 -42.800  33.690  1.00  0.00     0.001 A 
ATOM     17  C   UNL     1     -10.785 -42.201  34.108  1.00  0.00     0.001 A 
ATOM     18  C   UNL     1      -9.450 -42.212  34.504  1.00  0.00     0.000 A 
ENDBRANCH  12  13
ENDBRANCH   7  12
ENDBRANCH   4   5
ENDBRANCH   3   4
ENDBRANCH   2   3
ENDBRANCH   1   2
BRANCH   1  19
ATOM     19  N   UNL     1     -15.473 -42.842  26.269  1.00  0.00    -0.369 N 
ATOM     20  H   UNL     1     -15.384 -43.476  27.062  1.00  0.00     0.162 HD
BRANCH  19  21
ATOM     21  C   UNL     1     -16.839 -42.555  26.077  1.00  0.00     0.146 A 
ATOM     22  N   UNL     1     -17.313 -42.438  24.817  1.00  0.00    -0.212 NA
ATOM     23  C   UNL     1     -17.681 -42.393  27.180  1.00  0.00     0.096 A 
ATOM     24  C   UNL     1     -18.628 -42.206  24.585  1.00  0.00     0.147 A 
ATOM     25  C   UNL     1     -19.034 -42.134  26.960  1.00  0.00     0.046 A 
ATOM     26  C   UNL     1     -19.515 -42.036  25.651  1.00  0.00     0.096 A 
BRANCH  23  27
ATOM     27  C   UNL     1     -17.170 -42.416  28.516  1.00  0.00     0.103 C 
ATOM     28  N   UNL     1     -16.775 -42.460  29.610  1.00  0.00    -0.192 NA
ENDBRANCH  23  27
BRANCH  24  29
ATOM     29  N   UNL     1     -19.063 -42.048  23.263  1.00  0.00    -0.358 N 
ATOM     30  H   UNL     1     -18.985 -42.913  22.732  1.00  0.00     0.163 HD
BRANCH  29  31
ATOM     31  C   UNL     1     -18.497 -40.937  22.504  1.00  0.00     0.204 C 
BRANCH  31  32
ATOM     32  C   UNL     1     -19.549 -39.995  22.091  1.00  0.00    -0.085 C 
ATOM     33  C   UNL     1     -20.405 -39.224  21.749  1.00  0.00     0.006 C 
ENDBRANCH  31  32
ENDBRANCH  29  31
ENDBRANCH  24  29
BRANCH  26  34
ATOM     34  C   UNL     1     -20.902 -41.755  25.439  1.00  0.00     0.103 C 
ATOM     35  N   UNL     1     -22.035 -41.557  25.290  1.00  0.00    -0.192 NA
ENDBRANCH  26  34
ENDBRANCH  19  21
ENDBRANCH   1  19
TORSDOF 13
ENDMDL
MODEL 3
REMARK VINA RESULT:    -9.902      2.600      4.482
REMARK INTER + INTRA:         -18.622
REMARK INTER:                 -17.402
REMARK INTRA:                  -1.221
REMARK UNBOUND:                -1.195
REMARK SMILES C#CCNc1nc(NCCCC[C@H]2CC[N@@H+](Cc3ccccc3)CC2)c(C#N)cc1C#N
REMARK SMILES IDX 9 1 10 2 11 3 12 4 13 5 15 6 16 7 14 8 24 9 25 10 17 12
REMARK SMILES IDX 18 13 19 14 23 15 20 16 22 17 21 18 8 19 7 21 6 22 26 23
REMARK SMILES IDX 5 24 29 25 30 26 27 27 28 28 4 29 3 31 2 32 1 33 31 34 32 35
REMARK H PARENT 16 11 8 20 4 30
ROOT
ATOM      1  C   UNL     1     -13.150 -45.341  27.450  1.00  0.00     0.114 C 
ENDROOT
BRANCH   1   2
ATOM      2  C   UNL     1     -14.081 -44.664  26.433  1.00  0.00     0.021 C 
BRANCH   2   3
ATOM      3  C   UNL     1     -13.804 -43.164  26.255  1.00  0.00     0.002 C 
BRANCH   3   4
ATOM      4  C   UNL     1     -15.096 -42.332  26.181  1.00  0.00     0.004 C 
BRANCH   4   5
ATOM      5  C   UNL     1     -16.146 -42.915  25.222  1.00  0.00    -0.000 C 
ATOM      6  C   UNL     1     -18.620 -43.060  24.737  1.00  0.00     0.262 C 
ATOM      7  N   UNL     1     -18.358 -42.664  23.304  1.00  0.00    -0.331 N 
ATOM      8  C   UNL     1     -17.554 -42.473  25.650  1.00  0.00     0.065 C 
ATOM      9  C   UNL     1     -16.986 -43.093  22.845  1.00  0.00     0.262 C 
ATOM     10  C   UNL     1     -15.898 -42.533  23.756  1.00  0.00     0.065 C 
ATOM     11  H   UNL     1     -19.016 -43.214  22.739  1.00  0.00     0.348 HD
BRANCH   7  12
ATOM     12  C   UNL     1     -18.714 -41.224  23.003  1.00  0.00     0.299 C 
BRANCH  12  13
ATOM     13  C   UNL     1     -19.620 -41.077  21.811  1.00  0.00     0.006 A 
ATOM     14  C   UNL     1     -19.506 -39.968  20.960  1.00  0.00     0.009 A 
ATOM     15  C   UNL     1     -20.578 -42.061  21.521  1.00  0.00     0.009 A 
ATOM     16  C   UNL     1     -20.328 -39.849  19.839  1.00  0.00     0.001 A 
ATOM     17  C   UNL     1     -21.399 -41.937  20.399  1.00  0.00     0.001 A 
ATOM     18  C   UNL     1     -21.272 -40.834  19.559  1.00  0.00     0.000 A 
ENDBRANCH  12  13
ENDBRANCH   7  12
ENDBRANCH   4   5
ENDBRANCH   3   4
ENDBRANCH   2   3
ENDBRANCH   1   2
BRANCH   1  19
ATOM     19  N   UNL     1     -13.357 -44.789  28.790  1.00  0.00    -0.369 N 
ATOM     20  H   UNL     1     -13.930 -43.947  28.753  1.00  0.00     0.162 HD
BRANCH  19  21
ATOM     21  C   UNL     1     -12.175 -44.494  29.498  1.00  0.00     0.146 A 
ATOM     22  N   UNL     1     -11.233 -43.724  28.909  1.00  0.00    -0.212 NA
ATOM     23  C   UNL     1     -11.989 -44.996  30.788  1.00  0.00     0.096 A 
ATOM     24  C   UNL     1     -10.101 -43.380  29.569  1.00  0.00     0.147 A 
ATOM     25  C   UNL     1     -10.820 -44.668  31.475  1.00  0.00     0.046 A 
ATOM     26  C   UNL     1      -9.863 -43.854  30.862  1.00  0.00     0.096 A 
BRANCH  23  27
ATOM     27  C   UNL     1     -12.934 -45.893  31.382  1.00  0.00     0.103 C 
ATOM     28  N   UNL     1     -13.702 -46.639  31.835  1.00  0.00    -0.192 NA
ENDBRANCH  23  27
BRANCH  24  29
ATOM     29  N   UNL     1      -9.134 -42.618  28.900  1.00  0.00    -0.358 N 
ATOM     30  H   UNL     1      -9.025 -41.695  29.315  1.00  0.00     0.163 HD
BRANCH  29  31
ATOM     31  C   UNL     1      -9.260 -42.507  27.450  1.00  0.00     0.204 C 
BRANCH  31  32
ATOM     32  C   UNL     1      -8.176 -41.684  26.891  1.00  0.00    -0.085 C 
ATOM     33  C   UNL     1      -7.294 -41.013  26.430  1.00  0.00     0.006 C 
ENDBRANCH  31  32
ENDBRANCH  29  31
ENDBRANCH  24  29
BRANCH  26  34
ATOM     34  C   UNL     1      -8.662 -43.537  31.571  1.00  0.00     0.103 C 
ATOM     35  N   UNL     1      -7.688 -43.315  32.161  1.00  0.00    -0.192 NA
ENDBRANCH  26  34
ENDBRANCH  19  21
ENDBRANCH   1  19
TORSDOF 13
ENDMDL
MODEL 4
REMARK VINA RESULT:    -9.424      3.283      5.225
REMARK INTER + INTRA:         -17.780
REMARK INTER:                 -16.651
REMARK INTRA:                  -1.129
REMARK UNBOUND:                -1.195
REMARK SMILES C#CCNc1nc(NCCCC[C@H]2CC[N@@H+](Cc3ccccc3)CC2)c(C#N)cc1C#N
REMARK SMILES IDX 9 1 10 2 11 3 12 4 13 5 15 6 16 7 14 8 24 9 25 10 17 12
REMARK SMILES IDX 18 13 19 14 23 15 20 16 22 17 21 18 8 19 7 21 6 22 26 23
REMARK SMILES IDX 5 24 29 25 30 26 27 27 28 28 4 29 3 31 2 32 1 33 31 34 32 35
REMARK H PARENT 16 11 8 20 4 30
ROOT
ATOM      1  C   UNL     1     -14.018 -44.587  27.971  1.00  0.00     0.114 C 
ENDROOT
BRANCH   1   2
ATOM      2  C   UNL     1     -14.146 -44.345  26.460  1.00  0.00     0.021 C 
BRANCH   2   3
ATOM      3  C   UNL     1     -14.809 -43.004  26.108  1.00  0.00     0.002 C 
BRANCH   3   4
ATOM      4  C   UNL     1     -15.642 -43.080  24.818  1.00  0.00     0.004 C 
BRANCH   4   5
ATOM      5  C   UNL     1     -17.012 -42.394  24.933  1.00  0.00    -0.000 C 
ATOM      6  C   UNL     1     -19.279 -42.152  23.844  1.00  0.00     0.262 C 
ATOM      7  N   UNL     1     -19.941 -42.429  25.173  1.00  0.00    -0.331 N 
ATOM      8  C   UNL     1     -17.923 -42.838  23.777  1.00  0.00     0.065 C 
ATOM      9  C   UNL     1     -19.078 -41.993  26.332  1.00  0.00     0.262 C 
ATOM     10  C   UNL     1     -17.705 -42.653  26.277  1.00  0.00     0.065 C 
ATOM     11  H   UNL     1     -20.765 -41.817  25.204  1.00  0.00     0.348 HD
BRANCH   7  12
ATOM     12  C   UNL     1     -20.504 -43.829  25.282  1.00  0.00     0.299 C 
BRANCH  12  13
ATOM     13  C   UNL     1     -21.509 -43.974  26.392  1.00  0.00     0.006 A 
ATOM     14  C   UNL     1     -21.300 -44.897  27.429  1.00  0.00     0.009 A 
ATOM     15  C   UNL     1     -22.662 -43.173  26.418  1.00  0.00     0.009 A 
ATOM     16  C   UNL     1     -22.219 -45.010  28.472  1.00  0.00     0.001 A 
ATOM     17  C   UNL     1     -23.579 -43.290  27.463  1.00  0.00     0.001 A 
ATOM     18  C   UNL     1     -23.357 -44.206  28.489  1.00  0.00     0.000 A 
ENDBRANCH  12  13
ENDBRANCH   7  12
ENDBRANCH   4   5
ENDBRANCH   3   4
ENDBRANCH   2   3
ENDBRANCH   1   2
BRANCH   1  19
ATOM     19  N   UNL     1     -12.963 -45.562  28.252  1.00  0.00    -0.369 N 
ATOM     20  H   UNL     1     -13.346 -46.397  28.694  1.00  0.00     0.162 HD
BRANCH  19  21
ATOM     21  C   UNL     1     -11.907 -45.078  29.049  1.00  0.00     0.146 A 
ATOM     22  N   UNL     1     -10.912 -44.376  28.463  1.00  0.00    -0.212 NA
ATOM     23  C   UNL     1     -11.897 -45.328  30.423  1.00  0.00     0.096 A 
ATOM     24  C   UNL     1      -9.899 -43.854  29.197  1.00  0.00     0.147 A 
ATOM     25  C   UNL     1     -10.851 -44.815  31.192  1.00  0.00     0.046 A 
ATOM     26  C   UNL     1      -9.840 -44.073  30.576  1.00  0.00     0.096 A 
BRANCH  23  27
ATOM     27  C   UNL     1     -12.892 -46.154  31.037  1.00  0.00     0.103 C 
ATOM     28  N   UNL     1     -13.680 -46.852  31.530  1.00  0.00    -0.192 NA
ENDBRANCH  23  27
BRANCH  24  29
ATOM     29  N   UNL     1      -8.869 -43.172  28.538  1.00  0.00    -0.358 N 
ATOM     30  H   UNL     1      -8.293 -42.637  29.185  1.00  0.00     0.163 HD
BRANCH  29  31
ATOM     31  C   UNL     1      -9.242 -42.346  27.394  1.00  0.00     0.204 C 
BRANCH  31  32
ATOM     32  C   UNL     1      -8.059 -41.696  26.809  1.00  0.00    -0.085 C 
ATOM     33  C   UNL     1      -7.095 -41.165  26.326  1.00  0.00     0.006 C 
ENDBRANCH  31  32
ENDBRANCH  29  31
ENDBRANCH  24  29
BRANCH  26  34
ATOM     34  C   UNL     1      -8.766 -43.565  31.373  1.00  0.00     0.103 C 
ATOM     35  N   UNL     1      -7.920 -43.134  32.041  1.00  0.00    -0.192 NA
ENDBRANCH  26  34
ENDBRANCH  19  21
ENDBRANCH   1  19
TORSDOF 13
ENDMDL
MODEL 5
REMARK VINA RESULT:    -9.215      2.694     11.088
REMARK INTER + INTRA:         -17.413
REMARK INTER:                 -16.339
REMARK INTRA:                  -1.074
REMARK UNBOUND:                -1.195
REMARK SMILES C#CCNc1nc(NCCCC[C@H]2CC[N@@H+](Cc3ccccc3)CC2)c(C#N)cc1C#N
REMARK SMILES IDX 9 1 10 2 11 3 12 4 13 5 15 6 16 7 14 8 24 9 25 10 17 12
REMARK SMILES IDX 18 13 19 14 23 15 20 16 22 17 21 18 8 19 7 21 6 22 26 23
REMARK SMILES IDX 5 24 29 25 30 26 27 27 28 28 4 29 3 31 2 32 1 33 31 34 32 35
REMARK H PARENT 16 11 8 20 4 30
ROOT
ATOM      1  C   UNL     1     -16.389 -42.790  25.555  1.00  0.00     0.114 C 
ENDROOT
BRANCH   1   2
ATOM      2  C   UNL     1     -14.872 -42.923  25.752  1.00  0.00     0.021 C 
BRANCH   2   3
ATOM      3  C   UNL     1     -14.407 -44.372  25.959  1.00  0.00     0.002 C 
BRANCH   3   4
ATOM      4  C   UNL     1     -14.030 -44.666  27.421  1.00  0.00     0.004 C 
BRANCH   4   5
ATOM      5  C   UNL     1     -12.537 -44.973  27.618  1.00  0.00    -0.000 C 
ATOM      6  C   UNL     1     -10.348 -44.036  28.460  1.00  0.00     0.262 C 
ATOM      7  N   UNL     1     -10.131 -45.288  29.276  1.00  0.00    -0.331 N 
ATOM      8  C   UNL     1     -11.835 -43.776  28.278  1.00  0.00     0.065 C 
ATOM      9  C   UNL     1     -10.798 -46.489  28.650  1.00  0.00     0.262 C 
ATOM     10  C   UNL     1     -12.288 -46.246  28.439  1.00  0.00     0.065 C 
ATOM     11  H   UNL     1      -9.124 -45.481  29.225  1.00  0.00     0.348 HD
BRANCH   7  12
ATOM     12  C   UNL     1     -10.406 -45.098  30.752  1.00  0.00     0.299 C 
BRANCH  12  13
ATOM     13  C   UNL     1      -9.188 -44.676  31.528  1.00  0.00     0.006 A 
ATOM     14  C   UNL     1      -7.989 -45.397  31.423  1.00  0.00     0.009 A 
ATOM     15  C   UNL     1      -9.228 -43.540  32.353  1.00  0.00     0.009 A 
ATOM     16  C   UNL     1      -6.853 -44.987  32.122  1.00  0.00     0.001 A 
ATOM     17  C   UNL     1      -8.090 -43.135  33.051  1.00  0.00     0.001 A 
ATOM     18  C   UNL     1      -6.904 -43.856  32.934  1.00  0.00     0.000 A 
ENDBRANCH  12  13
ENDBRANCH   7  12
ENDBRANCH   4   5
ENDBRANCH   3   4
ENDBRANCH   2   3
ENDBRANCH   1   2
BRANCH   1  19
ATOM     19  N   UNL     1     -16.731 -42.820  24.131  1.00  0.00    -0.369 N 
ATOM     20  H   UNL     1     -16.051 -42.296  23.582  1.00  0.00     0.162 HD
BRANCH  19  21
ATOM     21  C   UNL     1     -18.019 -42.340  23.821  1.00  0.00     0.146 A 
ATOM     22  N   UNL     1     -19.081 -42.833  24.497  1.00  0.00    -0.212 NA
ATOM     23  C   UNL     1     -18.185 -41.371  22.829  1.00  0.00     0.096 A 
ATOM     24  C   UNL     1     -20.333 -42.369  24.264  1.00  0.00     0.147 A 
ATOM     25  C   UNL     1     -19.470 -40.896  22.561  1.00  0.00     0.046 A 
ATOM     26  C   UNL     1     -20.557 -41.400  23.282  1.00  0.00     0.096 A 
BRANCH  23  27
ATOM     27  C   UNL     1     -17.081 -40.917  22.040  1.00  0.00     0.103 C 
ATOM     28  N   UNL     1     -16.163 -40.563  21.421  1.00  0.00    -0.192 NA
ENDBRANCH  23  27
BRANCH  24  29
ATOM     29  N   UNL     1     -21.406 -42.942  24.957  1.00  0.00    -0.358 N 
ATOM     30  H   UNL     1     -22.286 -42.828  24.457  1.00  0.00     0.163 HD
BRANCH  29  31
ATOM     31  C   UNL     1     -21.570 -42.567  26.358  1.00  0.00     0.204 C 
BRANCH  31  32
ATOM     32  C   UNL     1     -21.240 -43.695  27.244  1.00  0.00    -0.085 C 
ATOM     33  C   UNL     1     -20.966 -44.618  27.963  1.00  0.00     0.006 C 
ENDBRANCH  31  32
ENDBRANCH  29  31
ENDBRANCH  24  29
BRANCH  26  34
ATOM     34  C   UNL     1     -21.870 -40.916  22.987  1.00  0.00     0.103 C 
ATOM     35  N   UNL     1     -22.947 -40.535  22.782  1.00  0.00    -0.192 NA
ENDBRANCH  26  34
ENDBRANCH  19  21
ENDBRANCH   1  19
TORSDOF 13
ENDMDL
MODEL 6
REMARK VINA RESULT:    -9.204      2.610     11.340
REMARK INTER + INTRA:         -17.393
REMARK INTER:                 -16.930
REMARK INTRA:                  -0.463
REMARK UNBOUND:                -1.195
REMARK SMILES C#CCNc1nc(NCCCC[C@H]2CC[N@@H+](Cc3ccccc3)CC2)c(C#N)cc1C#N
REMARK SMILES IDX 9 1 10 2 11 3 12 4 13 5 15 6 16 7 14 8 24 9 25 10 17 12
REMARK SMILES IDX 18 13 19 14 23 15 20 16 22 17 21 18 8 19 7 21 6 22 26 23
REMARK SMILES IDX 5 24 29 25 30 26 27 27 28 28 4 29 3 31 2 32 1 33 31 34 32 35
REMARK H PARENT 16 11 8 20 4 30
ROOT
ATOM      1  C   UNL     1     -15.810 -42.384  24.766  1.00  0.00     0.114 C 
ENDROOT
BRANCH   1   2
ATOM      2  C   UNL     1     -15.201 -42.599  26.160  1.00  0.00     0.021 C 
BRANCH   2   3
ATOM      3  C   UNL     1     -14.535 -43.973  26.331  1.00  0.00     0.002 C 
BRANCH   3   4
ATOM      4  C   UNL     1     -13.179 -43.883  27.052  1.00  0.00     0.004 C 
BRANCH   4   5
ATOM      5  C   UNL     1     -12.903 -45.071  27.987  1.00  0.00    -0.000 C 
ATOM      6  C   UNL     1     -11.095 -46.316  29.236  1.00  0.00     0.262 C 
ATOM      7  N   UNL     1     -11.926 -46.249  30.495  1.00  0.00    -0.331 N 
ATOM      8  C   UNL     1     -11.407 -45.131  28.335  1.00  0.00     0.065 C 
ATOM      9  C   UNL     1     -13.403 -46.200  30.192  1.00  0.00     0.262 C 
ATOM     10  C   UNL     1     -13.740 -45.031  29.273  1.00  0.00     0.065 C 
ATOM     11  H   UNL     1     -11.778 -47.146  30.973  1.00  0.00     0.348 HD
BRANCH   7  12
ATOM     12  C   UNL     1     -11.438 -45.210  31.482  1.00  0.00     0.299 C 
BRANCH  12  13
ATOM     13  C   UNL     1      -9.939 -45.170  31.602  1.00  0.00     0.006 A 
ATOM     14  C   UNL     1      -9.285 -43.990  31.988  1.00  0.00     0.009 A 
ATOM     15  C   UNL     1      -9.174 -46.321  31.350  1.00  0.00     0.009 A 
ATOM     16  C   UNL     1      -7.897 -43.964  32.126  1.00  0.00     0.001 A 
ATOM     17  C   UNL     1      -7.786 -46.289  31.489  1.00  0.00     0.001 A 
ATOM     18  C   UNL     1      -7.149 -45.113  31.878  1.00  0.00     0.000 A 
ENDBRANCH  12  13
ENDBRANCH   7  12
ENDBRANCH   4   5
ENDBRANCH   3   4
ENDBRANCH   2   3
ENDBRANCH   1   2
BRANCH   1  19
ATOM     19  N   UNL     1     -17.026 -43.184  24.603  1.00  0.00    -0.369 N 
ATOM     20  H   UNL     1     -16.890 -43.918  23.909  1.00  0.00     0.162 HD
BRANCH  19  21
ATOM     21  C   UNL     1     -18.177 -42.449  24.257  1.00  0.00     0.146 A 
ATOM     22  N   UNL     1     -18.422 -42.192  22.953  1.00  0.00    -0.212 NA
ATOM     23  C   UNL     1     -19.043 -41.995  25.254  1.00  0.00     0.096 A 
ATOM     24  C   UNL     1     -19.539 -41.526  22.571  1.00  0.00     0.147 A 
ATOM     25  C   UNL     1     -20.188 -41.290  24.880  1.00  0.00     0.046 A 
ATOM     26  C   UNL     1     -20.440 -41.049  23.527  1.00  0.00     0.096 A 
BRANCH  23  27
ATOM     27  C   UNL     1     -18.741 -42.175  26.642  1.00  0.00     0.103 C 
ATOM     28  N   UNL     1     -18.476 -42.295  27.768  1.00  0.00    -0.192 NA
ENDBRANCH  23  27
BRANCH  24  29
ATOM     29  N   UNL     1     -19.726 -41.245  21.212  1.00  0.00    -0.358 N 
ATOM     30  H   UNL     1     -19.501 -42.044  20.624  1.00  0.00     0.163 HD
BRANCH  29  31
ATOM     31  C   UNL     1     -19.092 -40.039  20.688  1.00  0.00     0.204 C 
BRANCH  31  32
ATOM     32  C   UNL     1     -20.075 -39.187  20.000  1.00  0.00    -0.085 C 
ATOM     33  C   UNL     1     -20.873 -38.490  19.435  1.00  0.00     0.006 C 
ENDBRANCH  31  32
ENDBRANCH  29  31
ENDBRANCH  24  29
BRANCH  26  34
ATOM     34  C   UNL     1     -21.610 -40.313  23.158  1.00  0.00     0.103 C 
ATOM     35  N   UNL     1     -22.546 -39.687  22.880  1.00  0.00    -0.192 NA
ENDBRANCH  26  34
ENDBRANCH  19  21
ENDBRANCH   1  19
TORSDOF 13
ENDMDL
MODEL 7
REMARK VINA RESULT:    -9.168      3.006     10.574
REMARK INTER + INTRA:         -17.330
REMARK INTER:                 -16.268
REMARK INTRA:                  -1.062
REMARK UNBOUND:                -1.195
REMARK SMILES C#CCNc1nc(NCCCC[C@H]2CC[N@@H+](Cc3ccccc3)CC2)c(C#N)cc1C#N
REMARK SMILES IDX 9 1 10 2 11 3 12 4 13 5 15 6 16 7 14 8 24 9 25 10 17 12
REMARK SMILES IDX 18 13 19 14 23 15 20 16 22 17 21 18 8 19 7 21 6 22 26 23
REMARK SMILES IDX 5 24 29 25 30 26 27 27 28 28 4 29 3 31 2 32 1 33 31 34 32 35
REMARK H PARENT 16 11 8 20 4 30
ROOT
ATOM      1  C   UNL     1     -16.300 -42.403  24.513  1.00  0.00     0.114 C 
ENDROOT
BRANCH   1   2
ATOM      2  C   UNL     1     -15.768 -42.799  25.899  1.00  0.00     0.021 C 
BRANCH   2   3
ATOM      3  C   UNL     1     -14.528 -43.703  25.843  1.00  0.00     0.002 C 
BRANCH   3   4
ATOM      4  C   UNL     1     -14.217 -44.359  27.198  1.00  0.00     0.004 C 
BRANCH   4   5
ATOM      5  C   UNL     1     -12.748 -44.786  27.350  1.00  0.00    -0.000 C 
ATOM      6  C   UNL     1     -10.533 -44.167  28.394  1.00  0.00     0.262 C 
ATOM      7  N   UNL     1     -10.405 -45.568  28.941  1.00  0.00    -0.331 N 
ATOM      8  C   UNL     1     -12.000 -43.789  28.249  1.00  0.00     0.065 C 
ATOM      9  C   UNL     1     -11.119 -46.577  28.075  1.00  0.00     0.262 C 
ATOM     10  C   UNL     1     -12.589 -46.211  27.898  1.00  0.00     0.065 C 
ATOM     11  H   UNL     1      -9.408 -45.805  28.865  1.00  0.00     0.348 HD
BRANCH   7  12
ATOM     12  C   UNL     1     -10.706 -45.665  30.421  1.00  0.00     0.299 C 
BRANCH  12  13
ATOM     13  C   UNL     1      -9.697 -44.947  31.276  1.00  0.00     0.006 A 
ATOM     14  C   UNL     1      -8.347 -45.328  31.258  1.00  0.00     0.009 A 
ATOM     15  C   UNL     1     -10.090 -43.871  32.088  1.00  0.00     0.009 A 
ATOM     16  C   UNL     1      -7.408 -44.643  32.030  1.00  0.00     0.001 A 
ATOM     17  C   UNL     1      -9.148 -43.189  32.859  1.00  0.00     0.001 A 
ATOM     18  C   UNL     1      -7.809 -43.573  32.828  1.00  0.00     0.000 A 
ENDBRANCH  12  13
ENDBRANCH   7  12
ENDBRANCH   4   5
ENDBRANCH   3   4
ENDBRANCH   2   3
ENDBRANCH   1   2
BRANCH   1  19
ATOM     19  N   UNL     1     -17.546 -43.111  24.215  1.00  0.00    -0.369 N 
ATOM     20  H   UNL     1     -17.736 -43.108  23.214  1.00  0.00     0.162 HD
BRANCH  19  21
ATOM     21  C   UNL     1     -18.682 -42.619  24.887  1.00  0.00     0.146 A 
ATOM     22  N   UNL     1     -18.990 -43.119  26.105  1.00  0.00    -0.212 NA
ATOM     23  C   UNL     1     -19.472 -41.631  24.295  1.00  0.00     0.096 A 
ATOM     24  C   UNL     1     -20.048 -42.644  26.807  1.00  0.00     0.147 A 
ATOM     25  C   UNL     1     -20.577 -41.144  24.995  1.00  0.00     0.046 A 
ATOM     26  C   UNL     1     -20.872 -41.655  26.262  1.00  0.00     0.096 A 
BRANCH  23  27
ATOM     27  C   UNL     1     -19.212 -41.168  22.966  1.00  0.00     0.103 C 
ATOM     28  N   UNL     1     -19.009 -40.822  21.874  1.00  0.00    -0.192 NA
ENDBRANCH  23  27
BRANCH  24  29
ATOM     29  N   UNL     1     -20.353 -43.224  28.044  1.00  0.00    -0.358 N 
ATOM     30  H   UNL     1     -19.587 -43.130  28.707  1.00  0.00     0.163 HD
BRANCH  29  31
ATOM     31  C   UNL     1     -20.843 -44.599  28.032  1.00  0.00     0.204 C 
BRANCH  31  32
ATOM     32  C   UNL     1     -22.284 -44.645  28.327  1.00  0.00    -0.085 C 
ATOM     33  C   UNL     1     -23.460 -44.688  28.567  1.00  0.00     0.006 C 
ENDBRANCH  31  32
ENDBRANCH  29  31
ENDBRANCH  24  29
BRANCH  26  34
ATOM     34  C   UNL     1     -22.016 -41.158  26.962  1.00  0.00     0.103 C 
ATOM     35  N   UNL     1     -22.957 -40.791  27.533  1.00  0.00    -0.192 NA
ENDBRANCH  26  34
ENDBRANCH  19  21
ENDBRANCH   1  19
TORSDOF 13
ENDMDL
MODEL 8
REMARK VINA RESULT:    -8.961      3.902     10.761
REMARK INTER + INTRA:         -16.965
REMARK INTER:                 -15.564
REMARK INTRA:                  -1.401
REMARK UNBOUND:                -1.195
REMARK SMILES C#CCNc1nc(NCCCC[C@H]2CC[N@@H+](Cc3ccccc3)CC2)c(C#N)cc1C#N
REMARK SMILES IDX 9 1 10 2 11 3 12 4 13 5 15 6 16 7 14 8 24 9 25 10 17 12
REMARK SMILES IDX 18 13 19 14 23 15 20 16 22 17 21 18 8 19 7 21 6 22 26 23
REMARK SMILES IDX 5 24 29 25 30 26 27 27 28 28 4 29 3 31 2 32 1 33 31 34 32 35
REMARK H PARENT 16 11 8 20 4 30
ROOT
ATOM      1  C   UNL     1     -18.892 -41.411  22.726  1.00  0.00     0.114 C 
ENDROOT
BRANCH   1   2
ATOM      2  C   UNL     1     -17.750 -40.648  22.041  1.00  0.00     0.021 C 
BRANCH   2   3
ATOM      3  C   UNL     1     -16.370 -41.286  22.259  1.00  0.00     0.002 C 
BRANCH   3   4
ATOM      4  C   UNL     1     -16.427 -42.504  23.197  1.00  0.00     0.004 C 
BRANCH   4   5
ATOM      5  C   UNL     1     -15.754 -42.261  24.557  1.00  0.00    -0.000 C 
ATOM      6  C   UNL     1     -15.880 -42.780  27.026  1.00  0.00     0.262 C 
ATOM      7  N   UNL     1     -14.422 -43.171  27.013  1.00  0.00    -0.331 N 
ATOM      8  C   UNL     1     -16.504 -43.025  25.660  1.00  0.00     0.065 C 
ATOM      9  C   UNL     1     -13.651 -42.430  25.948  1.00  0.00     0.262 C 
ATOM     10  C   UNL     1     -14.268 -42.644  24.570  1.00  0.00     0.065 C 
ATOM     11  H   UNL     1     -14.038 -42.838  27.906  1.00  0.00     0.348 HD
BRANCH   7  12
ATOM     12  C   UNL     1     -14.202 -44.668  27.041  1.00  0.00     0.299 C 
BRANCH  12  13
ATOM     13  C   UNL     1     -12.863 -45.056  27.608  1.00  0.00     0.006 A 
ATOM     14  C   UNL     1     -12.106 -44.133  28.346  1.00  0.00     0.009 A 
ATOM     15  C   UNL     1     -12.362 -46.355  27.424  1.00  0.00     0.009 A 
ATOM     16  C   UNL     1     -10.877 -44.504  28.894  1.00  0.00     0.001 A 
ATOM     17  C   UNL     1     -11.132 -46.721  27.974  1.00  0.00     0.001 A 
ATOM     18  C   UNL     1     -10.393 -45.797  28.709  1.00  0.00     0.000 A 
ENDBRANCH  12  13
ENDBRANCH   7  12
ENDBRANCH   4   5
ENDBRANCH   3   4
ENDBRANCH   2   3
ENDBRANCH   1   2
BRANCH   1  19
ATOM     19  N   UNL     1     -20.135 -40.637  22.678  1.00  0.00    -0.369 N 
ATOM     20  H   UNL     1     -19.947 -39.661  22.455  1.00  0.00     0.162 HD
BRANCH  19  21
ATOM     21  C   UNL     1     -20.909 -40.686  23.854  1.00  0.00     0.146 A 
ATOM     22  N   UNL     1     -20.329 -41.103  25.003  1.00  0.00    -0.212 NA
ATOM     23  C   UNL     1     -22.253 -40.310  23.824  1.00  0.00     0.096 A 
ATOM     24  C   UNL     1     -21.023 -41.124  26.166  1.00  0.00     0.147 A 
ATOM     25  C   UNL     1     -22.989 -40.344  25.009  1.00  0.00     0.046 A 
ATOM     26  C   UNL     1     -22.371 -40.758  26.193  1.00  0.00     0.096 A 
BRANCH  23  27
ATOM     27  C   UNL     1     -22.901 -39.963  22.595  1.00  0.00     0.103 C 
ATOM     28  N   UNL     1     -23.402 -39.661  21.590  1.00  0.00    -0.192 NA
ENDBRANCH  23  27
BRANCH  24  29
ATOM     29  N   UNL     1     -20.392 -41.606  27.320  1.00  0.00    -0.358 N 
ATOM     30  H   UNL     1     -19.699 -40.951  27.676  1.00  0.00     0.163 HD
BRANCH  29  31
ATOM     31  C   UNL     1     -19.829 -42.952  27.259  1.00  0.00     0.204 C 
BRANCH  31  32
ATOM     32  C   UNL     1     -20.839 -43.959  27.617  1.00  0.00    -0.085 C 
ATOM     33  C   UNL     1     -21.660 -44.785  27.912  1.00  0.00     0.006 C 
ENDBRANCH  31  32
ENDBRANCH  29  31
ENDBRANCH  24  29
BRANCH  26  34
ATOM     34  C   UNL     1     -23.140 -40.803  27.398  1.00  0.00     0.103 C 
ATOM     35  N   UNL     1     -23.796 -40.836  28.356  1.00  0.00    -0.192 NA
ENDBRANCH  26  34
ENDBRANCH  19  21
ENDBRANCH   1  19
TORSDOF 13
ENDMDL
MODEL 9
REMARK VINA RESULT:    -8.901      2.541     11.140
REMARK INTER + INTRA:         -16.861
REMARK INTER:                 -15.573
REMARK INTRA:                  -1.287
REMARK UNBOUND:                -1.195
REMARK SMILES C#CCNc1nc(NCCCC[C@H]2CC[N@@H+](Cc3ccccc3)CC2)c(C#N)cc1C#N
REMARK SMILES IDX 9 1 10 2 11 3 12 4 13 5 15 6 16 7 14 8 24 9 25 10 17 12
REMARK SMILES IDX 18 13 19 14 23 15 20 16 22 17 21 18 8 19 7 21 6 22 26 23
REMARK SMILES IDX 5 24 29 25 30 26 27 27 28 28 4 29 3 31 2 32 1 33 31 34 32 35
REMARK H PARENT 16 11 8 20 4 30
ROOT
ATOM      1  C   UNL     1     -17.592 -42.357  26.248  1.00  0.00     0.114 C 
ENDROOT
BRANCH   1   2
ATOM      2  C   UNL     1     -16.421 -42.701  27.180  1.00  0.00     0.021 C 
BRANCH   2   3
ATOM      3  C   UNL     1     -15.297 -43.485  26.486  1.00  0.00     0.002 C 
BRANCH   3   4
ATOM      4  C   UNL     1     -13.902 -42.925  26.813  1.00  0.00     0.004 C 
BRANCH   4   5
ATOM      5  C   UNL     1     -12.851 -44.016  27.076  1.00  0.00    -0.000 C 
ATOM      6  C   UNL     1     -10.745 -44.563  28.358  1.00  0.00     0.262 C 
ATOM      7  N   UNL     1     -11.374 -45.852  28.831  1.00  0.00    -0.331 N 
ATOM      8  C   UNL     1     -11.818 -43.517  28.099  1.00  0.00     0.065 C 
ATOM      9  C   UNL     1     -12.387 -46.378  27.844  1.00  0.00     0.262 C 
ATOM     10  C   UNL     1     -13.464 -45.340  27.551  1.00  0.00     0.065 C 
ATOM     11  H   UNL     1     -10.615 -46.545  28.835  1.00  0.00     0.348 HD
BRANCH   7  12
ATOM     12  C   UNL     1     -11.846 -45.798  30.268  1.00  0.00     0.299 C 
BRANCH  12  13
ATOM     13  C   UNL     1     -10.935 -44.997  31.157  1.00  0.00     0.006 A 
ATOM     14  C   UNL     1      -9.592 -45.369  31.325  1.00  0.00     0.009 A 
ATOM     15  C   UNL     1     -11.411 -43.851  31.816  1.00  0.00     0.009 A 
ATOM     16  C   UNL     1      -8.742 -44.607  32.128  1.00  0.00     0.001 A 
ATOM     17  C   UNL     1     -10.557 -43.094  32.619  1.00  0.00     0.001 A 
ATOM     18  C   UNL     1      -9.225 -43.470  32.773  1.00  0.00     0.000 A 
ENDBRANCH  12  13
ENDBRANCH   7  12
ENDBRANCH   4   5
ENDBRANCH   3   4
ENDBRANCH   2   3
ENDBRANCH   1   2
BRANCH   1  19
ATOM     19  N   UNL     1     -17.439 -43.027  24.955  1.00  0.00    -0.369 N 
ATOM     20  H   UNL     1     -16.467 -43.286  24.791  1.00  0.00     0.162 HD
BRANCH  19  21
ATOM     21  C   UNL     1     -17.897 -42.287  23.847  1.00  0.00     0.146 A 
ATOM     22  N   UNL     1     -19.216 -42.299  23.551  1.00  0.00    -0.212 NA
ATOM     23  C   UNL     1     -16.994 -41.556  23.073  1.00  0.00     0.096 A 
ATOM     24  C   UNL     1     -19.707 -41.567  22.522  1.00  0.00     0.147 A 
ATOM     25  C   UNL     1     -17.479 -40.812  21.996  1.00  0.00     0.046 A 
ATOM     26  C   UNL     1     -18.847 -40.817  21.714  1.00  0.00     0.096 A 
BRANCH  23  27
ATOM     27  C   UNL     1     -15.585 -41.616  23.317  1.00  0.00     0.103 C 
ATOM     28  N   UNL     1     -14.445 -41.691  23.537  1.00  0.00    -0.192 NA
ENDBRANCH  23  27
BRANCH  24  29
ATOM     29  N   UNL     1     -21.074 -41.648  22.226  1.00  0.00    -0.358 N 
ATOM     30  H   UNL     1     -21.651 -41.424  23.035  1.00  0.00     0.163 HD
BRANCH  29  31
ATOM     31  C   UNL     1     -21.546 -42.875  21.593  1.00  0.00     0.204 C 
BRANCH  31  32
ATOM     32  C   UNL     1     -22.243 -42.578  20.332  1.00  0.00    -0.085 C 
ATOM     33  C   UNL     1     -22.808 -42.332  19.301  1.00  0.00     0.006 C 
ENDBRANCH  31  32
ENDBRANCH  29  31
ENDBRANCH  24  29
BRANCH  26  34
ATOM     34  C   UNL     1     -19.330 -40.062  20.599  1.00  0.00     0.103 C 
ATOM     35  N   UNL     1     -19.688 -39.455  19.677  1.00  0.00    -0.192 NA
ENDBRANCH  26  34
ENDBRANCH  19  21
ENDBRANCH   1  19
TORSDOF 13
ENDMDL
