MODEL 1
REMARK VINA RESULT:    -9.709      0.000      0.000
REMARK INTER + INTRA:         -15.535
REMARK INTER:                 -14.250
REMARK INTRA:                  -1.286
REMARK UNBOUND:                -1.286
REMARK SMILES COc1ccc([C@H](C)NS(=O)(=O)NC(=O)OCc2ccccc2)cc1
REMARK SMILES IDX 9 1 7 3 8 4 6 5 3 6 4 7 25 8 5 9 24 10 2 11 1 12 10 13 11 14
REMARK SMILES IDX 12 15 13 16 14 17 15 19 16 20 17 21 18 22 19 23 23 24 20 25
REMARK SMILES IDX 22 26 21 27
REMARK H PARENT 9 2 13 18
ROOT
ATOM      1  N   UNL     1     -11.762 -45.194  30.523  1.00  0.00    -0.190 NA
ATOM      2  H   UNL     1     -11.390 -45.957  31.089  1.00  0.00     0.143 HD
ENDROOT
BRANCH   1   3
ATOM      3  C   UNL     1     -11.141 -43.889  30.836  1.00  0.00     0.098 C 
ATOM      4  C   UNL     1     -10.226 -44.073  32.054  1.00  0.00     0.031 C 
BRANCH   3   5
ATOM      5  C   UNL     1     -10.360 -43.317  29.669  1.00  0.00    -0.030 A 
ATOM      6  C   UNL     1      -8.921 -42.276  27.476  1.00  0.00     0.118 A 
ATOM      7  C   UNL     1     -10.317 -42.327  27.451  1.00  0.00     0.047 A 
ATOM      8  C   UNL     1      -8.243 -42.755  28.594  1.00  0.00     0.047 A 
ATOM      9  C   UNL     1     -11.033 -42.840  28.536  1.00  0.00     0.009 A 
ATOM     10  C   UNL     1      -8.956 -43.272  29.681  1.00  0.00     0.009 A 
BRANCH   6  11
ATOM     11  O   UNL     1      -8.348 -41.756  26.349  1.00  0.00    -0.497 OA
ATOM     12  C   UNL     1      -7.216 -40.913  26.534  1.00  0.00     0.278 C 
ENDBRANCH   6  11
ENDBRANCH   3   5
ENDBRANCH   1   3
BRANCH   1  13
ATOM     13  S   UNL     1     -13.429 -45.309  30.576  1.00  0.00     0.304 S 
ATOM     14  O   UNL     1     -13.745 -46.632  31.050  1.00  0.00    -0.189 OA
ATOM     15  O   UNL     1     -13.915 -44.138  31.269  1.00  0.00    -0.189 OA
BRANCH  13  16
ATOM     16  N   UNL     1     -13.860 -45.146  29.016  1.00  0.00    -0.205 N 
ATOM     17  C   UNL     1     -13.179 -45.655  27.926  1.00  0.00     0.422 C 
ATOM     18  H   UNL     1     -14.601 -44.482  28.833  1.00  0.00     0.188 HD
ATOM     19  O   UNL     1     -12.165 -46.329  27.982  1.00  0.00    -0.223 OA
BRANCH  17  20
ATOM     20  O   UNL     1     -13.790 -45.281  26.774  1.00  0.00    -0.444 OA
BRANCH  20  21
ATOM     21  C   UNL     1     -13.767 -43.869  26.549  1.00  0.00     0.270 C 
BRANCH  21  22
ATOM     22  C   UNL     1     -14.957 -43.444  25.720  1.00  0.00    -0.011 A 
ATOM     23  C   UNL     1     -16.088 -42.912  26.359  1.00  0.00     0.007 A 
ATOM     24  C   UNL     1     -14.994 -43.622  24.330  1.00  0.00     0.007 A 
ATOM     25  C   UNL     1     -17.217 -42.547  25.622  1.00  0.00     0.000 A 
ATOM     26  C   UNL     1     -16.123 -43.258  23.594  1.00  0.00     0.000 A 
ATOM     27  C   UNL     1     -17.234 -42.720  24.240  1.00  0.00     0.000 A 
ENDBRANCH  21  22
ENDBRANCH  20  21
ENDBRANCH  17  20
ENDBRANCH  13  16
ENDBRANCH   1  13
TORSDOF 8
ENDMDL
MODEL 2
REMARK VINA RESULT:    -9.582      2.612      3.543
REMARK INTER + INTRA:         -15.349
REMARK INTER:                 -14.349
REMARK INTRA:                  -1.000
REMARK UNBOUND:                -1.286
REMARK SMILES COc1ccc([C@H](C)NS(=O)(=O)NC(=O)OCc2ccccc2)cc1
REMARK SMILES IDX 9 1 7 3 8 4 6 5 3 6 4 7 25 8 5 9 24 10 2 11 1 12 10 13 11 14
REMARK SMILES IDX 12 15 13 16 14 17 15 19 16 20 17 21 18 22 19 23 23 24 20 25
REMARK SMILES IDX 22 26 21 27
REMARK H PARENT 9 2 13 18
ROOT
ATOM      1  N   UNL     1     -11.931 -44.656  29.636  1.00  0.00    -0.190 NA
ATOM      2  H   UNL     1     -11.748 -44.678  28.632  1.00  0.00     0.143 HD
ENDROOT
BRANCH   1   3
ATOM      3  C   UNL     1     -10.988 -45.491  30.411  1.00  0.00     0.098 C 
ATOM      4  C   UNL     1     -10.054 -46.203  29.423  1.00  0.00     0.031 C 
BRANCH   3   5
ATOM      5  C   UNL     1     -10.184 -44.690  31.416  1.00  0.00    -0.030 A 
ATOM      6  C   UNL     1      -8.702 -43.167  33.273  1.00  0.00     0.118 A 
ATOM      7  C   UNL     1     -10.098 -43.119  33.266  1.00  0.00     0.047 A 
ATOM      8  C   UNL     1      -8.045 -43.971  32.344  1.00  0.00     0.047 A 
ATOM      9  C   UNL     1     -10.836 -43.873  32.349  1.00  0.00     0.009 A 
ATOM     10  C   UNL     1      -8.780 -44.725  31.423  1.00  0.00     0.009 A 
BRANCH   6  11
ATOM     11  O   UNL     1      -8.107 -42.378  34.217  1.00  0.00    -0.497 OA
ATOM     12  C   UNL     1      -8.966 -41.744  35.159  1.00  0.00     0.278 C 
ENDBRANCH   6  11
ENDBRANCH   3   5
ENDBRANCH   1   3
BRANCH   1  13
ATOM     13  S   UNL     1     -13.569 -44.912  29.845  1.00  0.00     0.304 S 
ATOM     14  O   UNL     1     -13.752 -46.327  30.050  1.00  0.00    -0.189 OA
ATOM     15  O   UNL     1     -14.029 -43.956  30.825  1.00  0.00    -0.189 OA
BRANCH  13  16
ATOM     16  N   UNL     1     -14.199 -44.460  28.414  1.00  0.00    -0.205 N 
ATOM     17  C   UNL     1     -13.852 -44.966  27.176  1.00  0.00     0.422 C 
ATOM     18  H   UNL     1     -14.776 -43.629  28.432  1.00  0.00     0.188 HD
ATOM     19  O   UNL     1     -13.037 -45.851  26.981  1.00  0.00    -0.223 OA
BRANCH  17  20
ATOM     20  O   UNL     1     -14.535 -44.321  26.197  1.00  0.00    -0.444 OA
BRANCH  20  21
ATOM     21  C   UNL     1     -15.173 -43.122  26.642  1.00  0.00     0.270 C 
BRANCH  21  22
ATOM     22  C   UNL     1     -16.388 -42.821  25.796  1.00  0.00    -0.011 A 
ATOM     23  C   UNL     1     -16.281 -42.856  24.397  1.00  0.00     0.007 A 
ATOM     24  C   UNL     1     -17.613 -42.445  26.365  1.00  0.00     0.007 A 
ATOM     25  C   UNL     1     -17.378 -42.544  23.591  1.00  0.00     0.000 A 
ATOM     26  C   UNL     1     -18.709 -42.131  25.559  1.00  0.00     0.000 A 
ATOM     27  C   UNL     1     -18.592 -42.183  24.171  1.00  0.00     0.000 A 
ENDBRANCH  21  22
ENDBRANCH  20  21
ENDBRANCH  17  20
ENDBRANCH  13  16
ENDBRANCH   1  13
TORSDOF 8
ENDMDL
MODEL 3
REMARK VINA RESULT:    -9.563      2.549      4.264
REMARK INTER + INTRA:         -15.320
REMARK INTER:                 -14.263
REMARK INTRA:                  -1.057
REMARK UNBOUND:                -1.286
REMARK SMILES COc1ccc([C@H](C)NS(=O)(=O)NC(=O)OCc2ccccc2)cc1
REMARK SMILES IDX 9 1 7 3 8 4 6 5 3 6 4 7 25 8 5 9 24 10 2 11 1 12 10 13 11 14
REMARK SMILES IDX 12 15 13 16 14 17 15 19 16 20 17 21 18 22 19 23 23 24 20 25
REMARK SMILES IDX 22 26 21 27
REMARK H PARENT 9 2 13 18
ROOT
ATOM      1  N   UNL     1     -11.252 -45.407  29.415  1.00  0.00    -0.190 NA
ATOM      2  H   UNL     1     -10.330 -45.587  29.016  1.00  0.00     0.143 HD
ENDROOT
BRANCH   1   3
ATOM      3  C   UNL     1     -11.337 -45.755  30.850  1.00  0.00     0.098 C 
ATOM      4  C   UNL     1      -9.917 -46.039  31.358  1.00  0.00     0.031 C 
BRANCH   3   5
ATOM      5  C   UNL     1     -11.989 -44.666  31.680  1.00  0.00    -0.030 A 
ATOM      6  C   UNL     1     -13.221 -42.631  33.196  1.00  0.00     0.118 A 
ATOM      7  C   UNL     1     -13.984 -43.647  32.616  1.00  0.00     0.047 A 
ATOM      8  C   UNL     1     -11.840 -42.627  33.011  1.00  0.00     0.047 A 
ATOM      9  C   UNL     1     -13.377 -44.658  31.866  1.00  0.00     0.009 A 
ATOM     10  C   UNL     1     -11.230 -43.636  32.258  1.00  0.00     0.009 A 
BRANCH   6  11
ATOM     11  O   UNL     1     -13.941 -41.705  33.899  1.00  0.00    -0.497 OA
ATOM     12  C   UNL     1     -15.262 -41.435  33.440  1.00  0.00     0.278 C 
ENDBRANCH   6  11
ENDBRANCH   3   5
ENDBRANCH   1   3
BRANCH   1  13
ATOM     13  S   UNL     1     -12.378 -46.071  28.373  1.00  0.00     0.304 S 
ATOM     14  O   UNL     1     -11.646 -46.801  27.370  1.00  0.00    -0.189 OA
ATOM     15  O   UNL     1     -13.377 -46.727  29.185  1.00  0.00    -0.189 OA
BRANCH  13  16
ATOM     16  N   UNL     1     -13.091 -44.763  27.717  1.00  0.00    -0.205 N 
ATOM     17  C   UNL     1     -12.508 -43.522  27.542  1.00  0.00     0.422 C 
ATOM     18  H   UNL     1     -14.089 -44.832  27.574  1.00  0.00     0.188 HD
ATOM     19  O   UNL     1     -11.360 -43.235  27.833  1.00  0.00    -0.223 OA
BRANCH  17  20
ATOM     20  O   UNL     1     -13.407 -42.651  27.018  1.00  0.00    -0.444 OA
BRANCH  20  21
ATOM     21  C   UNL     1     -14.068 -43.147  25.851  1.00  0.00     0.270 C 
BRANCH  21  22
ATOM     22  C   UNL     1     -15.548 -42.850  25.911  1.00  0.00    -0.011 A 
ATOM     23  C   UNL     1     -16.169 -42.688  27.159  1.00  0.00     0.007 A 
ATOM     24  C   UNL     1     -16.341 -42.793  24.756  1.00  0.00     0.007 A 
ATOM     25  C   UNL     1     -17.543 -42.452  27.246  1.00  0.00     0.000 A 
ATOM     26  C   UNL     1     -17.714 -42.559  24.843  1.00  0.00     0.000 A 
ATOM     27  C   UNL     1     -18.315 -42.387  26.089  1.00  0.00     0.000 A 
ENDBRANCH  21  22
ENDBRANCH  20  21
ENDBRANCH  17  20
ENDBRANCH  13  16
ENDBRANCH   1  13
TORSDOF 8
ENDMDL
MODEL 4
REMARK VINA RESULT:    -9.220      2.784      8.362
REMARK INTER + INTRA:         -14.818
REMARK INTER:                 -14.162
REMARK INTRA:                  -0.655
REMARK UNBOUND:                -1.286
REMARK SMILES COc1ccc([C@H](C)NS(=O)(=O)NC(=O)OCc2ccccc2)cc1
REMARK SMILES IDX 9 1 7 3 8 4 6 5 3 6 4 7 25 8 5 9 24 10 2 11 1 12 10 13 11 14
REMARK SMILES IDX 12 15 13 16 14 17 15 19 16 20 17 21 18 22 19 23 23 24 20 25
REMARK SMILES IDX 22 26 21 27
REMARK H PARENT 9 2 13 18
ROOT
ATOM      1  N   UNL     1     -14.601 -43.702  27.574  1.00  0.00    -0.190 NA
ATOM      2  H   UNL     1     -15.153 -44.526  27.816  1.00  0.00     0.143 HD
ENDROOT
BRANCH   1   3
ATOM      3  C   UNL     1     -15.172 -42.938  26.444  1.00  0.00     0.098 C 
ATOM      4  C   UNL     1     -14.971 -43.757  25.162  1.00  0.00     0.031 C 
BRANCH   3   5
ATOM      5  C   UNL     1     -16.641 -42.613  26.638  1.00  0.00    -0.030 A 
ATOM      6  C   UNL     1     -19.376 -42.036  27.020  1.00  0.00     0.118 A 
ATOM      7  C   UNL     1     -18.519 -42.176  28.114  1.00  0.00     0.047 A 
ATOM      8  C   UNL     1     -18.867 -42.195  25.733  1.00  0.00     0.047 A 
ATOM      9  C   UNL     1     -17.163 -42.459  27.930  1.00  0.00     0.009 A 
ATOM     10  C   UNL     1     -17.511 -42.482  25.544  1.00  0.00     0.009 A 
BRANCH   6  11
ATOM     11  O   UNL     1     -20.676 -41.765  27.343  1.00  0.00    -0.497 OA
ATOM     12  C   UNL     1     -21.491 -41.207  26.317  1.00  0.00     0.278 C 
ENDBRANCH   6  11
ENDBRANCH   3   5
ENDBRANCH   1   3
BRANCH   1  13
ATOM     13  S   UNL     1     -13.006 -44.192  27.471  1.00  0.00     0.304 S 
ATOM     14  O   UNL     1     -13.010 -45.535  26.951  1.00  0.00    -0.189 OA
ATOM     15  O   UNL     1     -12.280 -43.139  26.800  1.00  0.00    -0.189 OA
BRANCH  13  16
ATOM     16  N   UNL     1     -12.517 -44.185  29.023  1.00  0.00    -0.205 N 
ATOM     17  C   UNL     1     -13.155 -44.808  30.080  1.00  0.00     0.422 C 
ATOM     18  H   UNL     1     -11.773 -43.538  29.246  1.00  0.00     0.188 HD
ATOM     19  O   UNL     1     -14.168 -45.480  29.993  1.00  0.00    -0.223 OA
BRANCH  17  20
ATOM     20  O   UNL     1     -12.502 -44.548  31.240  1.00  0.00    -0.444 OA
BRANCH  20  21
ATOM     21  C   UNL     1     -11.654 -45.615  31.669  1.00  0.00     0.270 C 
BRANCH  21  22
ATOM     22  C   UNL     1     -10.226 -45.137  31.806  1.00  0.00    -0.011 A 
ATOM     23  C   UNL     1      -9.173 -46.019  31.519  1.00  0.00     0.007 A 
ATOM     24  C   UNL     1      -9.916 -43.852  32.274  1.00  0.00     0.007 A 
ATOM     25  C   UNL     1      -7.845 -45.617  31.675  1.00  0.00     0.000 A 
ATOM     26  C   UNL     1      -8.589 -43.451  32.431  1.00  0.00     0.000 A 
ATOM     27  C   UNL     1      -7.553 -44.333  32.130  1.00  0.00     0.000 A 
ENDBRANCH  21  22
ENDBRANCH  20  21
ENDBRANCH  17  20
ENDBRANCH  13  16
ENDBRANCH   1  13
TORSDOF 8
ENDMDL
MODEL 5
REMARK VINA RESULT:    -9.183      3.691      8.929
REMARK INTER + INTRA:         -14.764
REMARK INTER:                 -13.782
REMARK INTRA:                  -0.982
REMARK UNBOUND:                -1.286
REMARK SMILES COc1ccc([C@H](C)NS(=O)(=O)NC(=O)OCc2ccccc2)cc1
REMARK SMILES IDX 9 1 7 3 8 4 6 5 3 6 4 7 25 8 5 9 24 10 2 11 1 12 10 13 11 14
REMARK SMILES IDX 12 15 13 16 14 17 15 19 16 20 17 21 18 22 19 23 23 24 20 25
REMARK SMILES IDX 22 26 21 27
REMARK H PARENT 9 2 13 18
ROOT
ATOM      1  N   UNL     1     -16.654 -43.461  24.822  1.00  0.00    -0.190 NA
ATOM      2  H   UNL     1     -17.016 -44.343  24.457  1.00  0.00     0.143 HD
ENDROOT
BRANCH   1   3
ATOM      3  C   UNL     1     -17.382 -42.282  24.305  1.00  0.00     0.098 C 
ATOM      4  C   UNL     1     -17.785 -42.567  22.852  1.00  0.00     0.031 C 
BRANCH   3   5
ATOM      5  C   UNL     1     -18.604 -41.936  25.135  1.00  0.00    -0.030 A 
ATOM      6  C   UNL     1     -20.874 -41.260  26.667  1.00  0.00     0.118 A 
ATOM      7  C   UNL     1     -20.862 -41.057  25.286  1.00  0.00     0.047 A 
ATOM      8  C   UNL     1     -19.745 -41.793  27.286  1.00  0.00     0.047 A 
ATOM      9  C   UNL     1     -19.741 -41.393  24.522  1.00  0.00     0.009 A 
ATOM     10  C   UNL     1     -18.619 -42.127  26.526  1.00  0.00     0.009 A 
BRANCH   6  11
ATOM     11  O   UNL     1     -22.031 -40.884  27.291  1.00  0.00    -0.497 OA
ATOM     12  C   UNL     1     -22.964 -40.136  26.519  1.00  0.00     0.278 C 
ENDBRANCH   6  11
ENDBRANCH   3   5
ENDBRANCH   1   3
BRANCH   1  13
ATOM     13  S   UNL     1     -14.992 -43.502  24.649  1.00  0.00     0.304 S 
ATOM     14  O   UNL     1     -14.708 -44.326  23.503  1.00  0.00    -0.189 OA
ATOM     15  O   UNL     1     -14.523 -42.137  24.716  1.00  0.00    -0.189 OA
BRANCH  13  16
ATOM     16  N   UNL     1     -14.497 -44.237  26.014  1.00  0.00    -0.205 N 
ATOM     17  C   UNL     1     -14.819 -43.859  27.304  1.00  0.00     0.422 C 
ATOM     18  H   UNL     1     -13.769 -44.928  25.900  1.00  0.00     0.188 HD
ATOM     19  O   UNL     1     -15.548 -42.929  27.604  1.00  0.00    -0.223 OA
BRANCH  17  20
ATOM     20  O   UNL     1     -14.188 -44.660  28.199  1.00  0.00    -0.444 OA
BRANCH  20  21
ATOM     21  C   UNL     1     -13.024 -45.299  27.671  1.00  0.00     0.270 C 
BRANCH  21  22
ATOM     22  C   UNL     1     -12.065 -45.658  28.782  1.00  0.00    -0.011 A 
ATOM     23  C   UNL     1     -10.762 -46.071  28.463  1.00  0.00     0.007 A 
ATOM     24  C   UNL     1     -12.455 -45.653  30.129  1.00  0.00     0.007 A 
ATOM     25  C   UNL     1      -9.867 -46.447  29.467  1.00  0.00     0.000 A 
ATOM     26  C   UNL     1     -11.561 -46.030  31.132  1.00  0.00     0.000 A 
ATOM     27  C   UNL     1     -10.266 -46.426  30.801  1.00  0.00     0.000 A 
ENDBRANCH  21  22
ENDBRANCH  20  21
ENDBRANCH  17  20
ENDBRANCH  13  16
ENDBRANCH   1  13
TORSDOF 8
ENDMDL
MODEL 6
REMARK VINA RESULT:    -9.116      2.851      8.116
REMARK INTER + INTRA:         -14.665
REMARK INTER:                 -13.984
REMARK INTRA:                  -0.681
REMARK UNBOUND:                -1.286
REMARK SMILES COc1ccc([C@H](C)NS(=O)(=O)NC(=O)OCc2ccccc2)cc1
REMARK SMILES IDX 9 1 7 3 8 4 6 5 3 6 4 7 25 8 5 9 24 10 2 11 1 12 10 13 11 14
REMARK SMILES IDX 12 15 13 16 14 17 15 19 16 20 17 21 18 22 19 23 23 24 20 25
REMARK SMILES IDX 22 26 21 27
REMARK H PARENT 9 2 13 18
ROOT
ATOM      1  N   UNL     1     -15.156 -42.402  26.938  1.00  0.00    -0.190 NA
ATOM      2  H   UNL     1     -14.909 -41.736  27.671  1.00  0.00     0.143 HD
ENDROOT
BRANCH   1   3
ATOM      3  C   UNL     1     -16.541 -42.905  27.061  1.00  0.00     0.098 C 
ATOM      4  C   UNL     1     -17.139 -42.352  28.362  1.00  0.00     0.031 C 
BRANCH   3   5
ATOM      5  C   UNL     1     -17.410 -42.527  25.877  1.00  0.00    -0.030 A 
ATOM      6  C   UNL     1     -19.050 -41.846  23.685  1.00  0.00     0.118 A 
ATOM      7  C   UNL     1     -19.530 -41.740  24.991  1.00  0.00     0.047 A 
ATOM      8  C   UNL     1     -17.751 -42.303  23.472  1.00  0.00     0.047 A 
ATOM      9  C   UNL     1     -18.720 -42.074  26.081  1.00  0.00     0.009 A 
ATOM     10  C   UNL     1     -16.938 -42.641  24.559  1.00  0.00     0.009 A 
BRANCH   6  11
ATOM     11  O   UNL     1     -19.947 -41.493  22.715  1.00  0.00    -0.497 OA
ATOM     12  C   UNL     1     -20.888 -42.484  22.317  1.00  0.00     0.278 C 
ENDBRANCH   6  11
ENDBRANCH   3   5
ENDBRANCH   1   3
BRANCH   1  13
ATOM     13  S   UNL     1     -13.915 -43.518  26.848  1.00  0.00     0.304 S 
ATOM     14  O   UNL     1     -14.224 -44.405  25.756  1.00  0.00    -0.189 OA
ATOM     15  O   UNL     1     -12.674 -42.779  26.875  1.00  0.00    -0.189 OA
BRANCH  13  16
ATOM     16  N   UNL     1     -14.024 -44.307  28.268  1.00  0.00    -0.205 N 
ATOM     17  C   UNL     1     -13.317 -45.439  28.626  1.00  0.00     0.422 C 
ATOM     18  H   UNL     1     -14.790 -44.028  28.866  1.00  0.00     0.188 HD
ATOM     19  O   UNL     1     -12.484 -45.997  27.933  1.00  0.00    -0.223 OA
BRANCH  17  20
ATOM     20  O   UNL     1     -13.698 -45.860  29.858  1.00  0.00    -0.444 OA
BRANCH  20  21
ATOM     21  C   UNL     1     -13.330 -44.961  30.907  1.00  0.00     0.270 C 
BRANCH  21  22
ATOM     22  C   UNL     1     -11.859 -45.093  31.227  1.00  0.00    -0.011 A 
ATOM     23  C   UNL     1     -11.128 -43.953  31.596  1.00  0.00     0.007 A 
ATOM     24  C   UNL     1     -11.180 -46.314  31.106  1.00  0.00     0.007 A 
ATOM     25  C   UNL     1      -9.759 -44.039  31.859  1.00  0.00     0.000 A 
ATOM     26  C   UNL     1      -9.811 -46.399  31.368  1.00  0.00     0.000 A 
ATOM     27  C   UNL     1      -9.101 -45.261  31.746  1.00  0.00     0.000 A 
ENDBRANCH  21  22
ENDBRANCH  20  21
ENDBRANCH  17  20
ENDBRANCH  13  16
ENDBRANCH   1  13
TORSDOF 8
ENDMDL
MODEL 7
REMARK VINA RESULT:    -8.577      4.187      9.153
REMARK INTER + INTRA:         -13.874
REMARK INTER:                 -12.898
REMARK INTRA:                  -0.977
REMARK UNBOUND:                -1.286
REMARK SMILES COc1ccc([C@H](C)NS(=O)(=O)NC(=O)OCc2ccccc2)cc1
REMARK SMILES IDX 9 1 7 3 8 4 6 5 3 6 4 7 25 8 5 9 24 10 2 11 1 12 10 13 11 14
REMARK SMILES IDX 12 15 13 16 14 17 15 19 16 20 17 21 18 22 19 23 23 24 20 25
REMARK SMILES IDX 22 26 21 27
REMARK H PARENT 9 2 13 18
ROOT
ATOM      1  N   UNL     1     -16.813 -42.078  24.780  1.00  0.00    -0.190 NA
ATOM      2  H   UNL     1     -16.627 -41.956  25.776  1.00  0.00     0.143 HD
ENDROOT
BRANCH   1   3
ATOM      3  C   UNL     1     -18.204 -42.500  24.502  1.00  0.00     0.098 C 
ATOM      4  C   UNL     1     -18.954 -42.586  25.838  1.00  0.00     0.031 C 
BRANCH   3   5
ATOM      5  C   UNL     1     -18.922 -41.561  23.552  1.00  0.00    -0.030 A 
ATOM      6  C   UNL     1     -20.232 -39.791  21.788  1.00  0.00     0.118 A 
ATOM      7  C   UNL     1     -18.921 -40.202  21.539  1.00  0.00     0.047 A 
ATOM      8  C   UNL     1     -20.886 -40.257  22.926  1.00  0.00     0.047 A 
ATOM      9  C   UNL     1     -18.269 -41.081  22.409  1.00  0.00     0.009 A 
ATOM     10  C   UNL     1     -20.236 -41.134  23.801  1.00  0.00     0.009 A 
BRANCH   6  11
ATOM     11  O   UNL     1     -20.746 -38.928  20.861  1.00  0.00    -0.497 OA
ATOM     12  C   UNL     1     -20.963 -39.445  19.553  1.00  0.00     0.278 C 
ENDBRANCH   6  11
ENDBRANCH   3   5
ENDBRANCH   1   3
BRANCH   1  13
ATOM     13  S   UNL     1     -15.568 -43.003  24.155  1.00  0.00     0.304 S 
ATOM     14  O   UNL     1     -16.145 -43.867  23.158  1.00  0.00    -0.189 OA
ATOM     15  O   UNL     1     -14.492 -42.099  23.820  1.00  0.00    -0.189 OA
BRANCH  13  16
ATOM     16  N   UNL     1     -15.072 -43.870  25.440  1.00  0.00    -0.205 N 
ATOM     17  C   UNL     1     -15.109 -43.462  26.760  1.00  0.00     0.422 C 
ATOM     18  H   UNL     1     -14.550 -44.709  25.227  1.00  0.00     0.188 HD
ATOM     19  O   UNL     1     -15.549 -42.395  27.155  1.00  0.00    -0.223 OA
BRANCH  17  20
ATOM     20  O   UNL     1     -14.564 -44.412  27.560  1.00  0.00    -0.444 OA
BRANCH  20  21
ATOM     21  C   UNL     1     -13.584 -45.218  26.903  1.00  0.00     0.270 C 
BRANCH  21  22
ATOM     22  C   UNL     1     -12.287 -45.217  27.680  1.00  0.00    -0.011 A 
ATOM     23  C   UNL     1     -11.644 -46.434  27.950  1.00  0.00     0.007 A 
ATOM     24  C   UNL     1     -11.735 -44.037  28.199  1.00  0.00     0.007 A 
ATOM     25  C   UNL     1     -10.466 -46.466  28.700  1.00  0.00     0.000 A 
ATOM     26  C   UNL     1     -10.558 -44.070  28.950  1.00  0.00     0.000 A 
ATOM     27  C   UNL     1      -9.923 -45.285  29.199  1.00  0.00     0.000 A 
ENDBRANCH  21  22
ENDBRANCH  20  21
ENDBRANCH  17  20
ENDBRANCH  13  16
ENDBRANCH   1  13
TORSDOF 8
ENDMDL
MODEL 8
REMARK VINA RESULT:    -8.321      2.558      4.655
REMARK INTER + INTRA:         -13.498
REMARK INTER:                 -13.098
REMARK INTRA:                  -0.400
REMARK UNBOUND:                -1.286
REMARK SMILES COc1ccc([C@H](C)NS(=O)(=O)NC(=O)OCc2ccccc2)cc1
REMARK SMILES IDX 9 1 7 3 8 4 6 5 3 6 4 7 25 8 5 9 24 10 2 11 1 12 10 13 11 14
REMARK SMILES IDX 12 15 13 16 14 17 15 19 16 20 17 21 18 22 19 23 23 24 20 25
REMARK SMILES IDX 22 26 21 27
REMARK H PARENT 9 2 13 18
ROOT
ATOM      1  N   UNL     1      -9.221 -42.837  30.581  1.00  0.00    -0.190 NA
ATOM      2  H   UNL     1      -8.314 -42.379  30.675  1.00  0.00     0.143 HD
ENDROOT
BRANCH   1   3
ATOM      3  C   UNL     1      -9.576 -43.659  31.758  1.00  0.00     0.098 C 
ATOM      4  C   UNL     1      -8.601 -43.318  32.892  1.00  0.00     0.031 C 
BRANCH   3   5
ATOM      5  C   UNL     1     -11.008 -43.447  32.211  1.00  0.00    -0.030 A 
ATOM      6  C   UNL     1     -13.662 -43.057  33.087  1.00  0.00     0.118 A 
ATOM      7  C   UNL     1     -12.632 -42.237  33.552  1.00  0.00     0.047 A 
ATOM      8  C   UNL     1     -13.364 -44.081  32.189  1.00  0.00     0.047 A 
ATOM      9  C   UNL     1     -11.316 -42.425  33.118  1.00  0.00     0.009 A 
ATOM     10  C   UNL     1     -12.048 -44.274  31.756  1.00  0.00     0.009 A 
BRANCH   6  11
ATOM     11  O   UNL     1     -14.897 -42.767  33.594  1.00  0.00    -0.497 OA
ATOM     12  C   UNL     1     -15.322 -41.410  33.517  1.00  0.00     0.278 C 
ENDBRANCH   6  11
ENDBRANCH   3   5
ENDBRANCH   1   3
BRANCH   1  13
ATOM     13  S   UNL     1      -9.254 -43.560  29.074  1.00  0.00     0.304 S 
ATOM     14  O   UNL     1      -8.363 -42.810  28.226  1.00  0.00    -0.189 OA
ATOM     15  O   UNL     1      -9.066 -44.978  29.277  1.00  0.00    -0.189 OA
BRANCH  13  16
ATOM     16  N   UNL     1     -10.798 -43.354  28.599  1.00  0.00    -0.205 N 
ATOM     17  C   UNL     1     -11.692 -44.359  28.283  1.00  0.00     0.422 C 
ATOM     18  H   UNL     1     -11.063 -42.406  28.370  1.00  0.00     0.188 HD
ATOM     19  O   UNL     1     -11.458 -45.554  28.340  1.00  0.00    -0.223 OA
BRANCH  17  20
ATOM     20  O   UNL     1     -12.871 -43.826  27.874  1.00  0.00    -0.444 OA
BRANCH  20  21
ATOM     21  C   UNL     1     -13.714 -44.759  27.194  1.00  0.00     0.270 C 
BRANCH  21  22
ATOM     22  C   UNL     1     -14.596 -44.047  26.194  1.00  0.00    -0.011 A 
ATOM     23  C   UNL     1     -15.612 -43.196  26.654  1.00  0.00     0.007 A 
ATOM     24  C   UNL     1     -14.473 -44.259  24.814  1.00  0.00     0.007 A 
ATOM     25  C   UNL     1     -16.468 -42.556  25.755  1.00  0.00     0.000 A 
ATOM     26  C   UNL     1     -15.330 -43.621  23.915  1.00  0.00     0.000 A 
ATOM     27  C   UNL     1     -16.326 -42.769  24.385  1.00  0.00     0.000 A 
ENDBRANCH  21  22
ENDBRANCH  20  21
ENDBRANCH  17  20
ENDBRANCH  13  16
ENDBRANCH   1  13
TORSDOF 8
ENDMDL
MODEL 9
REMARK VINA RESULT:    -8.311      4.686      6.553
REMARK INTER + INTRA:         -13.484
REMARK INTER:                 -12.320
REMARK INTRA:                  -1.164
REMARK UNBOUND:                -1.286
REMARK SMILES COc1ccc([C@H](C)NS(=O)(=O)NC(=O)OCc2ccccc2)cc1
REMARK SMILES IDX 9 1 7 3 8 4 6 5 3 6 4 7 25 8 5 9 24 10 2 11 1 12 10 13 11 14
REMARK SMILES IDX 12 15 13 16 14 17 15 19 16 20 17 21 18 22 19 23 23 24 20 25
REMARK SMILES IDX 22 26 21 27
REMARK H PARENT 9 2 13 18
ROOT
ATOM      1  N   UNL     1      -8.572 -42.286  33.239  1.00  0.00    -0.190 NA
ATOM      2  H   UNL     1      -8.031 -41.489  33.576  1.00  0.00     0.143 HD
ENDROOT
BRANCH   1   3
ATOM      3  C   UNL     1      -9.548 -42.782  34.233  1.00  0.00     0.098 C 
ATOM      4  C   UNL     1      -9.337 -42.006  35.540  1.00  0.00     0.031 C 
BRANCH   3   5
ATOM      5  C   UNL     1     -10.984 -42.646  33.763  1.00  0.00    -0.030 A 
ATOM      6  C   UNL     1     -13.643 -42.376  32.860  1.00  0.00     0.118 A 
ATOM      7  C   UNL     1     -12.691 -43.038  32.081  1.00  0.00     0.047 A 
ATOM      8  C   UNL     1     -13.263 -41.840  34.088  1.00  0.00     0.047 A 
ATOM      9  C   UNL     1     -11.374 -43.176  32.526  1.00  0.00     0.009 A 
ATOM     10  C   UNL     1     -11.944 -41.973  34.535  1.00  0.00     0.009 A 
BRANCH   6  11
ATOM     11  O   UNL     1     -14.890 -42.309  32.304  1.00  0.00    -0.497 OA
ATOM     12  C   UNL     1     -15.816 -41.411  32.907  1.00  0.00     0.278 C 
ENDBRANCH   6  11
ENDBRANCH   3   5
ENDBRANCH   1   3
BRANCH   1  13
ATOM     13  S   UNL     1      -7.487 -43.377  32.585  1.00  0.00     0.304 S 
ATOM     14  O   UNL     1      -6.927 -42.762  31.409  1.00  0.00    -0.189 OA
ATOM     15  O   UNL     1      -6.636 -43.829  33.662  1.00  0.00    -0.189 OA
BRANCH  13  16
ATOM     16  N   UNL     1      -8.432 -44.636  32.172  1.00  0.00    -0.205 N 
ATOM     17  C   UNL     1      -8.046 -45.733  31.427  1.00  0.00     0.422 C 
ATOM     18  H   UNL     1      -9.421 -44.517  32.347  1.00  0.00     0.188 HD
ATOM     19  O   UNL     1      -6.924 -45.929  30.992  1.00  0.00    -0.223 OA
BRANCH  17  20
ATOM     20  O   UNL     1      -9.103 -46.560  31.226  1.00  0.00    -0.444 OA
BRANCH  20  21
ATOM     21  C   UNL     1      -9.314 -46.891  29.852  1.00  0.00     0.270 C 
BRANCH  21  22
ATOM     22  C   UNL     1     -10.706 -46.494  29.418  1.00  0.00    -0.011 A 
ATOM     23  C   UNL     1     -11.665 -46.168  30.389  1.00  0.00     0.007 A 
ATOM     24  C   UNL     1     -11.093 -46.502  28.070  1.00  0.00     0.007 A 
ATOM     25  C   UNL     1     -12.970 -45.836  30.018  1.00  0.00     0.000 A 
ATOM     26  C   UNL     1     -12.398 -46.172  27.700  1.00  0.00     0.000 A 
ATOM     27  C   UNL     1     -13.336 -45.837  28.675  1.00  0.00     0.000 A 
ENDBRANCH  21  22
ENDBRANCH  20  21
ENDBRANCH  17  20
ENDBRANCH  13  16
ENDBRANCH   1  13
TORSDOF 8
ENDMDL
