MODEL 1
REMARK VINA RESULT:   -11.980      0.000      0.000
REMARK INTER + INTRA:         -16.832
REMARK INTER:                 -16.182
REMARK INTRA:                  -0.650
REMARK UNBOUND:                -0.650
REMARK SMILES COc1cc2onc(CC[C@H]3CC[N@H+](Cc4ccccc4)CC3)c2cc1C
REMARK SMILES IDX 10 1 11 2 13 3 14 4 12 5 22 6 23 7 15 9 16 10 17 11 21 12
REMARK SMILES IDX 18 13 20 14 19 15 9 16 8 17 7 18 24 19 6 20 25 21 5 22 26 23
REMARK SMILES IDX 4 24 3 25 27 26 2 27 1 28
REMARK H PARENT 14 8
ROOT
ATOM      1  C   UNL     1     -13.792 -45.086  26.282  1.00  0.00     0.010 C 
ENDROOT
BRANCH   1   2
ATOM      2  C   UNL     1     -13.367 -45.698  27.632  1.00  0.00     0.000 C 
ATOM      3  C   UNL     1     -13.254 -45.224  30.130  1.00  0.00     0.262 C 
ATOM      4  N   UNL     1     -11.772 -45.508  30.090  1.00  0.00    -0.331 N 
ATOM      5  C   UNL     1     -13.709 -44.719  28.767  1.00  0.00     0.065 C 
ATOM      6  C   UNL     1     -11.425 -46.531  29.042  1.00  0.00     0.262 C 
ATOM      7  C   UNL     1     -11.870 -46.037  27.671  1.00  0.00     0.065 C 
ATOM      8  H   UNL     1     -11.304 -44.627  29.839  1.00  0.00     0.348 HD
BRANCH   4   9
ATOM      9  C   UNL     1     -11.216 -45.898  31.446  1.00  0.00     0.299 C 
BRANCH   9  10
ATOM     10  C   UNL     1      -9.861 -45.304  31.721  1.00  0.00     0.006 A 
ATOM     11  C   UNL     1      -9.745 -44.015  32.262  1.00  0.00     0.009 A 
ATOM     12  C   UNL     1      -8.694 -46.025  31.422  1.00  0.00     0.009 A 
ATOM     13  C   UNL     1      -8.486 -43.457  32.492  1.00  0.00     0.001 A 
ATOM     14  C   UNL     1      -7.438 -45.462  31.654  1.00  0.00     0.001 A 
ATOM     15  C   UNL     1      -7.335 -44.179  32.186  1.00  0.00     0.000 A 
ENDBRANCH   9  10
ENDBRANCH   4   9
ENDBRANCH   1   2
BRANCH   1  16
ATOM     16  C   UNL     1     -14.208 -43.612  26.367  1.00  0.00     0.061 C 
BRANCH  16  17
ATOM     17  C   UNL     1     -15.123 -43.232  25.256  1.00  0.00     0.091 A 
ATOM     18  N   UNL     1     -14.684 -43.293  23.990  1.00  0.00    -0.084 NA
ATOM     19  C   UNL     1     -16.464 -42.777  25.323  1.00  0.00     0.045 A 
ATOM     20  O   UNL     1     -15.749 -42.879  23.206  1.00  0.00    -0.356 OA
ATOM     21  C   UNL     1     -17.420 -42.516  26.317  1.00  0.00     0.021 A 
ATOM     22  C   UNL     1     -16.809 -42.571  24.001  1.00  0.00     0.170 A 
ATOM     23  C   UNL     1     -18.694 -42.051  25.927  1.00  0.00    -0.008 A 
ATOM     24  C   UNL     1     -18.053 -42.116  23.566  1.00  0.00     0.097 A 
ATOM     25  C   UNL     1     -19.003 -41.856  24.562  1.00  0.00     0.125 A 
ATOM     26  C   UNL     1     -19.728 -41.771  26.988  1.00  0.00     0.048 C 
BRANCH  25  27
ATOM     27  O   UNL     1     -20.275 -41.402  24.313  1.00  0.00    -0.496 OA
ATOM     28  C   UNL     1     -20.459 -40.543  23.194  1.00  0.00     0.278 C 
ENDBRANCH  25  27
ENDBRANCH  16  17
ENDBRANCH   1  16
TORSDOF 6
ENDMDL
MODEL 2
REMARK VINA RESULT:   -11.452      1.419      1.967
REMARK INTER + INTRA:         -16.119
REMARK INTER:                 -15.511
REMARK INTRA:                  -0.608
REMARK UNBOUND:                -0.650
REMARK SMILES COc1cc2onc(CC[C@H]3CC[N@H+](Cc4ccccc4)CC3)c2cc1C
REMARK SMILES IDX 10 1 11 2 13 3 14 4 12 5 22 6 23 7 15 9 16 10 17 11 21 12
REMARK SMILES IDX 18 13 20 14 19 15 9 16 8 17 7 18 24 19 6 20 25 21 5 22 26 23
REMARK SMILES IDX 4 24 3 25 27 26 2 27 1 28
REMARK H PARENT 14 8
ROOT
ATOM      1  C   UNL     1     -13.954 -44.837  26.615  1.00  0.00     0.010 C 
ENDROOT
BRANCH   1   2
ATOM      2  C   UNL     1     -13.290 -45.652  27.743  1.00  0.00     0.000 C 
ATOM      3  C   UNL     1     -13.060 -45.806  30.273  1.00  0.00     0.262 C 
ATOM      4  N   UNL     1     -11.562 -45.722  30.115  1.00  0.00    -0.331 N 
ATOM      5  C   UNL     1     -13.732 -45.094  29.106  1.00  0.00     0.065 C 
ATOM      6  C   UNL     1     -11.097 -46.342  28.825  1.00  0.00     0.262 C 
ATOM      7  C   UNL     1     -11.758 -45.637  27.647  1.00  0.00     0.065 C 
ATOM      8  H   UNL     1     -11.317 -44.724  30.092  1.00  0.00     0.348 HD
BRANCH   4   9
ATOM      9  C   UNL     1     -10.817 -46.301  31.303  1.00  0.00     0.299 C 
BRANCH   9  10
ATOM     10  C   UNL     1      -9.561 -45.543  31.638  1.00  0.00     0.006 A 
ATOM     11  C   UNL     1      -9.631 -44.245  32.165  1.00  0.00     0.009 A 
ATOM     12  C   UNL     1      -8.301 -46.118  31.410  1.00  0.00     0.009 A 
ATOM     13  C   UNL     1      -8.464 -43.535  32.450  1.00  0.00     0.001 A 
ATOM     14  C   UNL     1      -7.136 -45.404  31.697  1.00  0.00     0.001 A 
ATOM     15  C   UNL     1      -7.219 -44.114  32.214  1.00  0.00     0.000 A 
ENDBRANCH   9  10
ENDBRANCH   4   9
ENDBRANCH   1   2
BRANCH   1  16
ATOM     16  C   UNL     1     -14.120 -43.346  26.937  1.00  0.00     0.061 C 
BRANCH  16  17
ATOM     17  C   UNL     1     -15.554 -42.963  27.055  1.00  0.00     0.091 A 
ATOM     18  N   UNL     1     -16.097 -42.805  28.271  1.00  0.00    -0.084 NA
ATOM     19  C   UNL     1     -16.502 -42.734  26.025  1.00  0.00     0.045 A 
ATOM     20  O   UNL     1     -17.421 -42.462  28.047  1.00  0.00    -0.356 OA
ATOM     21  C   UNL     1     -16.530 -42.751  24.622  1.00  0.00     0.021 A 
ATOM     22  C   UNL     1     -17.661 -42.421  26.709  1.00  0.00     0.170 A 
ATOM     23  C   UNL     1     -17.743 -42.448  23.965  1.00  0.00    -0.008 A 
ATOM     24  C   UNL     1     -18.880 -42.113  26.106  1.00  0.00     0.097 A 
ATOM     25  C   UNL     1     -18.903 -42.132  24.706  1.00  0.00     0.125 A 
ATOM     26  C   UNL     1     -17.782 -42.461  22.458  1.00  0.00     0.048 C 
BRANCH  25  27
ATOM     27  O   UNL     1     -20.017 -41.856  23.950  1.00  0.00    -0.496 OA
ATOM     28  C   UNL     1     -20.885 -40.826  24.410  1.00  0.00     0.278 C 
ENDBRANCH  25  27
ENDBRANCH  16  17
ENDBRANCH   1  16
TORSDOF 6
ENDMDL
MODEL 3
REMARK VINA RESULT:   -11.362      1.061      1.584
REMARK INTER + INTRA:         -15.997
REMARK INTER:                 -15.430
REMARK INTRA:                  -0.567
REMARK UNBOUND:                -0.650
REMARK SMILES COc1cc2onc(CC[C@H]3CC[N@H+](Cc4ccccc4)CC3)c2cc1C
REMARK SMILES IDX 10 1 11 2 13 3 14 4 12 5 22 6 23 7 15 9 16 10 17 11 21 12
REMARK SMILES IDX 18 13 20 14 19 15 9 16 8 17 7 18 24 19 6 20 25 21 5 22 26 23
REMARK SMILES IDX 4 24 3 25 27 26 2 27 1 28
REMARK H PARENT 14 8
ROOT
ATOM      1  C   UNL     1     -14.164 -44.491  25.784  1.00  0.00     0.010 C 
ENDROOT
BRANCH   1   2
ATOM      2  C   UNL     1     -13.520 -44.593  27.181  1.00  0.00     0.000 C 
ATOM      3  C   UNL     1     -12.214 -46.157  28.705  1.00  0.00     0.262 C 
ATOM      4  N   UNL     1     -13.292 -45.997  29.749  1.00  0.00    -0.331 N 
ATOM      5  C   UNL     1     -12.816 -45.953  27.321  1.00  0.00     0.065 C 
ATOM      6  C   UNL     1     -13.937 -44.639  29.686  1.00  0.00     0.262 C 
ATOM      7  C   UNL     1     -14.549 -44.421  28.308  1.00  0.00     0.065 C 
ATOM      8  H   UNL     1     -14.015 -46.700  29.546  1.00  0.00     0.348 HD
BRANCH   4   9
ATOM      9  C   UNL     1     -12.799 -46.308  31.149  1.00  0.00     0.299 C 
BRANCH   9  10
ATOM     10  C   UNL     1     -11.435 -45.741  31.434  1.00  0.00     0.006 A 
ATOM     11  C   UNL     1     -11.292 -44.422  31.888  1.00  0.00     0.009 A 
ATOM     12  C   UNL     1     -10.284 -46.519  31.229  1.00  0.00     0.009 A 
ATOM     13  C   UNL     1     -10.023 -43.891  32.127  1.00  0.00     0.001 A 
ATOM     14  C   UNL     1      -9.017 -45.984  31.468  1.00  0.00     0.001 A 
ATOM     15  C   UNL     1      -8.888 -44.671  31.914  1.00  0.00     0.000 A 
ENDBRANCH   9  10
ENDBRANCH   4   9
ENDBRANCH   1   2
BRANCH   1  16
ATOM     16  C   UNL     1     -14.120 -43.082  25.177  1.00  0.00     0.061 C 
BRANCH  16  17
ATOM     17  C   UNL     1     -15.385 -42.747  24.467  1.00  0.00     0.091 A 
ATOM     18  N   UNL     1     -15.363 -42.539  23.143  1.00  0.00    -0.084 NA
ATOM     19  C   UNL     1     -16.691 -42.592  24.999  1.00  0.00     0.045 A 
ATOM     20  O   UNL     1     -16.671 -42.247  22.789  1.00  0.00    -0.356 OA
ATOM     21  C   UNL     1     -17.313 -42.675  26.254  1.00  0.00     0.021 A 
ATOM     22  C   UNL     1     -17.461 -42.278  23.896  1.00  0.00     0.170 A 
ATOM     23  C   UNL     1     -18.701 -42.433  26.340  1.00  0.00    -0.008 A 
ATOM     24  C   UNL     1     -18.832 -42.033  23.929  1.00  0.00     0.097 A 
ATOM     25  C   UNL     1     -19.449 -42.117  25.184  1.00  0.00     0.125 A 
ATOM     26  C   UNL     1     -19.379 -42.523  27.684  1.00  0.00     0.048 C 
BRANCH  25  27
ATOM     27  O   UNL     1     -20.789 -41.904  25.399  1.00  0.00    -0.496 OA
ATOM     28  C   UNL     1     -21.364 -40.723  24.853  1.00  0.00     0.278 C 
ENDBRANCH  25  27
ENDBRANCH  16  17
ENDBRANCH   1  16
TORSDOF 6
ENDMDL
MODEL 4
REMARK VINA RESULT:   -10.223      3.354     10.867
REMARK INTER + INTRA:         -14.459
REMARK INTER:                 -13.880
REMARK INTRA:                  -0.578
REMARK UNBOUND:                -0.650
REMARK SMILES COc1cc2onc(CC[C@H]3CC[N@H+](Cc4ccccc4)CC3)c2cc1C
REMARK SMILES IDX 10 1 11 2 13 3 14 4 12 5 22 6 23 7 15 9 16 10 17 11 21 12
REMARK SMILES IDX 18 13 20 14 19 15 9 16 8 17 7 18 24 19 6 20 25 21 5 22 26 23
REMARK SMILES IDX 4 24 3 25 27 26 2 27 1 28
REMARK H PARENT 14 8
ROOT
ATOM      1  C   UNL     1     -14.807 -42.621  26.220  1.00  0.00     0.010 C 
ENDROOT
BRANCH   1   2
ATOM      2  C   UNL     1     -16.148 -42.968  25.543  1.00  0.00     0.000 C 
ATOM      3  C   UNL     1     -17.485 -42.648  23.402  1.00  0.00     0.262 C 
ATOM      4  N   UNL     1     -18.609 -42.062  24.222  1.00  0.00    -0.331 N 
ATOM      5  C   UNL     1     -16.160 -42.405  24.112  1.00  0.00     0.065 C 
ATOM      6  C   UNL     1     -18.670 -42.663  25.600  1.00  0.00     0.262 C 
ATOM      7  C   UNL     1     -17.352 -42.425  26.327  1.00  0.00     0.065 C 
ATOM      8  H   UNL     1     -18.415 -41.058  24.324  1.00  0.00     0.348 HD
BRANCH   4   9
ATOM      9  C   UNL     1     -19.951 -42.153  23.522  1.00  0.00     0.299 C 
BRANCH   9  10
ATOM     10  C   UNL     1     -20.133 -41.105  22.458  1.00  0.00     0.006 A 
ATOM     11  C   UNL     1     -20.370 -39.768  22.808  1.00  0.00     0.009 A 
ATOM     12  C   UNL     1     -20.087 -41.455  21.099  1.00  0.00     0.009 A 
ATOM     13  C   UNL     1     -20.564 -38.803  21.819  1.00  0.00     0.001 A 
ATOM     14  C   UNL     1     -20.282 -40.486  20.113  1.00  0.00     0.001 A 
ATOM     15  C   UNL     1     -20.523 -39.163  20.473  1.00  0.00     0.000 A 
ENDBRANCH   9  10
ENDBRANCH   4   9
ENDBRANCH   1   2
BRANCH   1  16
ATOM     16  C   UNL     1     -13.795 -43.774  26.229  1.00  0.00     0.061 C 
BRANCH  16  17
ATOM     17  C   UNL     1     -13.088 -43.878  27.535  1.00  0.00     0.091 A 
ATOM     18  N   UNL     1     -13.729 -44.397  28.593  1.00  0.00    -0.084 NA
ATOM     19  C   UNL     1     -11.767 -43.482  27.867  1.00  0.00     0.045 A 
ATOM     20  O   UNL     1     -12.821 -44.351  29.639  1.00  0.00    -0.356 OA
ATOM     21  C   UNL     1     -10.668 -42.899  27.218  1.00  0.00     0.021 A 
ATOM     22  C   UNL     1     -11.653 -43.804  29.206  1.00  0.00     0.170 A 
ATOM     23  C   UNL     1      -9.489 -42.666  27.959  1.00  0.00    -0.008 A 
ATOM     24  C   UNL     1     -10.512 -43.595  29.978  1.00  0.00     0.097 A 
ATOM     25  C   UNL     1      -9.417 -43.013  29.326  1.00  0.00     0.125 A 
ATOM     26  C   UNL     1      -8.302 -42.043  27.269  1.00  0.00     0.048 C 
BRANCH  25  27
ATOM     27  O   UNL     1      -8.218 -42.736  29.934  1.00  0.00    -0.496 OA
ATOM     28  C   UNL     1      -7.798 -43.598  30.986  1.00  0.00     0.278 C 
ENDBRANCH  25  27
ENDBRANCH  16  17
ENDBRANCH   1  16
TORSDOF 6
ENDMDL
MODEL 5
REMARK VINA RESULT:    -9.906      3.216     10.703
REMARK INTER + INTRA:         -14.030
REMARK INTER:                 -13.600
REMARK INTRA:                  -0.429
REMARK UNBOUND:                -0.650
REMARK SMILES COc1cc2onc(CC[C@H]3CC[N@H+](Cc4ccccc4)CC3)c2cc1C
REMARK SMILES IDX 10 1 11 2 13 3 14 4 12 5 22 6 23 7 15 9 16 10 17 11 21 12
REMARK SMILES IDX 18 13 20 14 19 15 9 16 8 17 7 18 24 19 6 20 25 21 5 22 26 23
REMARK SMILES IDX 4 24 3 25 27 26 2 27 1 28
REMARK H PARENT 14 8
ROOT
ATOM      1  C   UNL     1     -13.619 -43.103  26.146  1.00  0.00     0.010 C 
ENDROOT
BRANCH   1   2
ATOM      2  C   UNL     1     -15.076 -43.416  25.753  1.00  0.00     0.000 C 
ATOM      3  C   UNL     1     -16.713 -43.354  23.806  1.00  0.00     0.262 C 
ATOM      4  N   UNL     1     -17.634 -42.499  24.641  1.00  0.00    -0.331 N 
ATOM      5  C   UNL     1     -15.274 -43.135  24.255  1.00  0.00     0.065 C 
ATOM      6  C   UNL     1     -17.520 -42.818  26.107  1.00  0.00     0.262 C 
ATOM      7  C   UNL     1     -16.086 -42.599  26.573  1.00  0.00     0.065 C 
ATOM      8  H   UNL     1     -17.342 -41.522  24.507  1.00  0.00     0.348 HD
BRANCH   4   9
ATOM      9  C   UNL     1     -19.075 -42.566  24.173  1.00  0.00     0.299 C 
BRANCH   9  10
ATOM     10  C   UNL     1     -19.473 -41.393  23.318  1.00  0.00     0.006 A 
ATOM     11  C   UNL     1     -20.657 -40.689  23.580  1.00  0.00     0.009 A 
ATOM     12  C   UNL     1     -18.673 -41.000  22.234  1.00  0.00     0.009 A 
ATOM     13  C   UNL     1     -21.035 -39.618  22.770  1.00  0.00     0.001 A 
ATOM     14  C   UNL     1     -19.055 -39.929  21.425  1.00  0.00     0.001 A 
ATOM     15  C   UNL     1     -20.237 -39.241  21.692  1.00  0.00     0.000 A 
ENDBRANCH   9  10
ENDBRANCH   4   9
ENDBRANCH   1   2
BRANCH   1  16
ATOM     16  C   UNL     1     -13.040 -44.051  27.205  1.00  0.00     0.061 C 
BRANCH  16  17
ATOM     17  C   UNL     1     -11.876 -43.446  27.909  1.00  0.00     0.091 A 
ATOM     18  N   UNL     1     -11.502 -42.193  27.611  1.00  0.00    -0.084 NA
ATOM     19  C   UNL     1     -11.038 -44.020  28.900  1.00  0.00     0.045 A 
ATOM     20  O   UNL     1     -10.406 -41.929  28.417  1.00  0.00    -0.356 OA
ATOM     21  C   UNL     1     -10.931 -45.240  29.584  1.00  0.00     0.021 A 
ATOM     22  C   UNL     1     -10.129 -43.018  29.183  1.00  0.00     0.170 A 
ATOM     23  C   UNL     1      -9.899 -45.396  30.534  1.00  0.00    -0.008 A 
ATOM     24  C   UNL     1      -9.096 -43.123  30.113  1.00  0.00     0.097 A 
ATOM     25  C   UNL     1      -8.993 -44.343  30.793  1.00  0.00     0.125 A 
ATOM     26  C   UNL     1      -9.778 -46.703  31.277  1.00  0.00     0.048 C 
BRANCH  25  27
ATOM     27  O   UNL     1      -8.036 -44.619  31.739  1.00  0.00    -0.496 OA
ATOM     28  C   UNL     1      -7.411 -43.516  32.384  1.00  0.00     0.278 C 
ENDBRANCH  25  27
ENDBRANCH  16  17
ENDBRANCH   1  16
TORSDOF 6
ENDMDL
MODEL 6
REMARK VINA RESULT:    -9.859      3.478     10.037
REMARK INTER + INTRA:         -13.967
REMARK INTER:                 -13.312
REMARK INTRA:                  -0.654
REMARK UNBOUND:                -0.650
REMARK SMILES COc1cc2onc(CC[C@H]3CC[N@H+](Cc4ccccc4)CC3)c2cc1C
REMARK SMILES IDX 10 1 11 2 13 3 14 4 12 5 22 6 23 7 15 9 16 10 17 11 21 12
REMARK SMILES IDX 18 13 20 14 19 15 9 16 8 17 7 18 24 19 6 20 25 21 5 22 26 23
REMARK SMILES IDX 4 24 3 25 27 26 2 27 1 28
REMARK H PARENT 14 8
ROOT
ATOM      1  C   UNL     1     -13.783 -43.148  26.156  1.00  0.00     0.010 C 
ENDROOT
BRANCH   1   2
ATOM      2  C   UNL     1     -15.146 -42.513  25.818  1.00  0.00     0.000 C 
ATOM      3  C   UNL     1     -17.568 -42.372  26.588  1.00  0.00     0.262 C 
ATOM      4  N   UNL     1     -18.001 -42.852  25.224  1.00  0.00    -0.331 N 
ATOM      5  C   UNL     1     -16.174 -42.906  26.892  1.00  0.00     0.065 C 
ATOM      6  C   UNL     1     -17.054 -42.406  24.144  1.00  0.00     0.262 C 
ATOM      7  C   UNL     1     -15.655 -42.936  24.432  1.00  0.00     0.065 C 
ATOM      8  H   UNL     1     -17.989 -43.880  25.250  1.00  0.00     0.348 HD
BRANCH   4   9
ATOM      9  C   UNL     1     -19.431 -42.466  24.897  1.00  0.00     0.299 C 
BRANCH   9  10
ATOM     10  C   UNL     1     -20.449 -43.302  25.626  1.00  0.00     0.006 A 
ATOM     11  C   UNL     1     -20.563 -44.675  25.364  1.00  0.00     0.009 A 
ATOM     12  C   UNL     1     -21.312 -42.714  26.564  1.00  0.00     0.009 A 
ATOM     13  C   UNL     1     -21.525 -45.442  26.022  1.00  0.00     0.001 A 
ATOM     14  C   UNL     1     -22.273 -43.485  27.220  1.00  0.00     0.001 A 
ATOM     15  C   UNL     1     -22.380 -44.846  26.947  1.00  0.00     0.000 A 
ENDBRANCH   9  10
ENDBRANCH   4   9
ENDBRANCH   1   2
BRANCH   1  16
ATOM     16  C   UNL     1     -13.883 -44.455  26.955  1.00  0.00     0.061 C 
BRANCH  16  17
ATOM     17  C   UNL     1     -13.102 -44.389  28.221  1.00  0.00     0.091 A 
ATOM     18  N   UNL     1     -13.655 -44.829  29.361  1.00  0.00    -0.084 NA
ATOM     19  C   UNL     1     -11.789 -43.896  28.433  1.00  0.00     0.045 A 
ATOM     20  O   UNL     1     -12.696 -44.630  30.341  1.00  0.00    -0.356 OA
ATOM     21  C   UNL     1     -10.760 -43.330  27.665  1.00  0.00     0.021 A 
ATOM     22  C   UNL     1     -11.586 -44.074  29.788  1.00  0.00     0.170 A 
ATOM     23  C   UNL     1      -9.558 -42.964  28.308  1.00  0.00    -0.008 A 
ATOM     24  C   UNL     1     -10.418 -43.731  30.467  1.00  0.00     0.097 A 
ATOM     25  C   UNL     1      -9.393 -43.166  29.697  1.00  0.00     0.125 A 
ATOM     26  C   UNL     1      -8.445 -42.357  27.491  1.00  0.00     0.048 C 
BRANCH  25  27
ATOM     27  O   UNL     1      -8.179 -42.769  30.202  1.00  0.00    -0.496 OA
ATOM     28  C   UNL     1      -7.529 -43.645  31.115  1.00  0.00     0.278 C 
ENDBRANCH  25  27
ENDBRANCH  16  17
ENDBRANCH   1  16
TORSDOF 6
ENDMDL
MODEL 7
REMARK VINA RESULT:    -9.819      3.300     10.045
REMARK INTER + INTRA:         -13.913
REMARK INTER:                 -13.643
REMARK INTRA:                  -0.269
REMARK UNBOUND:                -0.650
REMARK SMILES COc1cc2onc(CC[C@H]3CC[N@H+](Cc4ccccc4)CC3)c2cc1C
REMARK SMILES IDX 10 1 11 2 13 3 14 4 12 5 22 6 23 7 15 9 16 10 17 11 21 12
REMARK SMILES IDX 18 13 20 14 19 15 9 16 8 17 7 18 24 19 6 20 25 21 5 22 26 23
REMARK SMILES IDX 4 24 3 25 27 26 2 27 1 28
REMARK H PARENT 14 8
ROOT
ATOM      1  C   UNL     1     -13.859 -44.777  28.575  1.00  0.00     0.010 C 
ENDROOT
BRANCH   1   2
ATOM      2  C   UNL     1     -14.003 -44.048  27.224  1.00  0.00     0.000 C 
ATOM      3  C   UNL     1     -15.473 -42.411  25.946  1.00  0.00     0.262 C 
ATOM      4  N   UNL     1     -15.624 -43.441  24.853  1.00  0.00    -0.331 N 
ATOM      5  C   UNL     1     -15.224 -43.115  27.273  1.00  0.00     0.065 C 
ATOM      6  C   UNL     1     -14.403 -44.311  24.729  1.00  0.00     0.262 C 
ATOM      7  C   UNL     1     -14.142 -45.026  26.048  1.00  0.00     0.065 C 
ATOM      8  H   UNL     1     -16.416 -44.043  25.114  1.00  0.00     0.348 HD
BRANCH   4   9
ATOM      9  C   UNL     1     -15.999 -42.824  23.518  1.00  0.00     0.299 C 
BRANCH   9  10
ATOM     10  C   UNL     1     -17.384 -42.238  23.508  1.00  0.00     0.006 A 
ATOM     11  C   UNL     1     -18.321 -42.605  24.486  1.00  0.00     0.009 A 
ATOM     12  C   UNL     1     -17.765 -41.328  22.509  1.00  0.00     0.009 A 
ATOM     13  C   UNL     1     -19.613 -42.078  24.458  1.00  0.00     0.001 A 
ATOM     14  C   UNL     1     -19.058 -40.805  22.485  1.00  0.00     0.001 A 
ATOM     15  C   UNL     1     -19.981 -41.182  23.458  1.00  0.00     0.000 A 
ENDBRANCH   9  10
ENDBRANCH   4   9
ENDBRANCH   1   2
BRANCH   1  16
ATOM     16  C   UNL     1     -13.073 -46.092  28.494  1.00  0.00     0.061 C 
BRANCH  16  17
ATOM     17  C   UNL     1     -11.715 -45.960  29.092  1.00  0.00     0.091 A 
ATOM     18  N   UNL     1     -10.696 -46.663  28.576  1.00  0.00    -0.084 NA
ATOM     19  C   UNL     1     -11.300 -45.170  30.195  1.00  0.00     0.045 A 
ATOM     20  O   UNL     1      -9.589 -46.332  29.341  1.00  0.00    -0.356 OA
ATOM     21  C   UNL     1     -11.883 -44.272  31.101  1.00  0.00     0.021 A 
ATOM     22  C   UNL     1      -9.950 -45.444  30.306  1.00  0.00     0.170 A 
ATOM     23  C   UNL     1     -11.066 -43.684  32.092  1.00  0.00    -0.008 A 
ATOM     24  C   UNL     1      -9.104 -44.888  31.264  1.00  0.00     0.097 A 
ATOM     25  C   UNL     1      -9.690 -43.992  32.167  1.00  0.00     0.125 A 
ATOM     26  C   UNL     1     -11.684 -42.716  33.069  1.00  0.00     0.048 C 
BRANCH  25  27
ATOM     27  O   UNL     1      -9.006 -43.356  33.174  1.00  0.00    -0.496 OA
ATOM     28  C   UNL     1      -7.595 -43.237  33.037  1.00  0.00     0.278 C 
ENDBRANCH  25  27
ENDBRANCH  16  17
ENDBRANCH   1  16
TORSDOF 6
ENDMDL
MODEL 8
REMARK VINA RESULT:    -9.816      1.303      1.530
REMARK INTER + INTRA:         -13.910
REMARK INTER:                 -14.024
REMARK INTRA:                   0.114
REMARK UNBOUND:                -0.650
REMARK SMILES COc1cc2onc(CC[C@H]3CC[N@H+](Cc4ccccc4)CC3)c2cc1C
REMARK SMILES IDX 10 1 11 2 13 3 14 4 12 5 22 6 23 7 15 9 16 10 17 11 21 12
REMARK SMILES IDX 18 13 20 14 19 15 9 16 8 17 7 18 24 19 6 20 25 21 5 22 26 23
REMARK SMILES IDX 4 24 3 25 27 26 2 27 1 28
REMARK H PARENT 14 8
ROOT
ATOM      1  C   UNL     1     -14.262 -43.864  25.742  1.00  0.00     0.010 C 
ENDROOT
BRANCH   1   2
ATOM      2  C   UNL     1     -13.747 -44.584  27.004  1.00  0.00     0.000 C 
ATOM      3  C   UNL     1     -12.101 -44.373  28.933  1.00  0.00     0.262 C 
ATOM      4  N   UNL     1     -11.493 -45.693  28.524  1.00  0.00    -0.331 N 
ATOM      5  C   UNL     1     -12.710 -43.697  27.711  1.00  0.00     0.065 C 
ATOM      6  C   UNL     1     -12.512 -46.613  27.907  1.00  0.00     0.262 C 
ATOM      7  C   UNL     1     -13.127 -45.952  26.680  1.00  0.00     0.065 C 
ATOM      8  H   UNL     1     -10.780 -45.489  27.813  1.00  0.00     0.348 HD
BRANCH   4   9
ATOM      9  C   UNL     1     -10.756 -46.373  29.662  1.00  0.00     0.299 C 
BRANCH   9  10
ATOM     10  C   UNL     1      -9.660 -45.523  30.246  1.00  0.00     0.006 A 
ATOM     11  C   UNL     1      -9.348 -44.277  29.683  1.00  0.00     0.009 A 
ATOM     12  C   UNL     1      -8.922 -45.975  31.351  1.00  0.00     0.009 A 
ATOM     13  C   UNL     1      -8.314 -43.503  30.211  1.00  0.00     0.001 A 
ATOM     14  C   UNL     1      -7.888 -45.197  31.876  1.00  0.00     0.001 A 
ATOM     15  C   UNL     1      -7.584 -43.964  31.304  1.00  0.00     0.000 A 
ENDBRANCH   9  10
ENDBRANCH   4   9
ENDBRANCH   1   2
BRANCH   1  16
ATOM     16  C   UNL     1     -15.356 -42.825  26.018  1.00  0.00     0.061 C 
BRANCH  16  17
ATOM     17  C   UNL     1     -16.366 -42.783  24.925  1.00  0.00     0.091 A 
ATOM     18  N   UNL     1     -16.014 -43.157  23.686  1.00  0.00    -0.084 NA
ATOM     19  C   UNL     1     -17.724 -42.376  24.982  1.00  0.00     0.045 A 
ATOM     20  O   UNL     1     -17.153 -43.002  22.912  1.00  0.00    -0.356 OA
ATOM     21  C   UNL     1     -18.621 -41.900  25.950  1.00  0.00     0.021 A 
ATOM     22  C   UNL     1     -18.170 -42.536  23.684  1.00  0.00     0.170 A 
ATOM     23  C   UNL     1     -19.944 -41.601  25.558  1.00  0.00    -0.008 A 
ATOM     24  C   UNL     1     -19.465 -42.257  23.250  1.00  0.00     0.097 A 
ATOM     25  C   UNL     1     -20.357 -41.781  24.220  1.00  0.00     0.125 A 
ATOM     26  C   UNL     1     -20.917 -41.091  26.592  1.00  0.00     0.048 C 
BRANCH  25  27
ATOM     27  O   UNL     1     -21.668 -41.456  23.967  1.00  0.00    -0.496 OA
ATOM     28  C   UNL     1     -21.918 -40.414  23.031  1.00  0.00     0.278 C 
ENDBRANCH  25  27
ENDBRANCH  16  17
ENDBRANCH   1  16
TORSDOF 6
ENDMDL
MODEL 9
REMARK VINA RESULT:    -9.814      1.703      2.588
REMARK INTER + INTRA:         -13.906
REMARK INTER:                 -13.176
REMARK INTRA:                  -0.730
REMARK UNBOUND:                -0.650
REMARK SMILES COc1cc2onc(CC[C@H]3CC[N@H+](Cc4ccccc4)CC3)c2cc1C
REMARK SMILES IDX 10 1 11 2 13 3 14 4 12 5 22 6 23 7 15 9 16 10 17 11 21 12
REMARK SMILES IDX 18 13 20 14 19 15 9 16 8 17 7 18 24 19 6 20 25 21 5 22 26 23
REMARK SMILES IDX 4 24 3 25 27 26 2 27 1 28
REMARK H PARENT 14 8
ROOT
ATOM      1  C   UNL     1     -15.057 -42.408  25.364  1.00  0.00     0.010 C 
ENDROOT
BRANCH   1   2
ATOM      2  C   UNL     1     -14.843 -43.506  26.425  1.00  0.00     0.000 C 
ATOM      3  C   UNL     1     -15.326 -44.108  28.850  1.00  0.00     0.262 C 
ATOM      4  N   UNL     1     -13.844 -44.284  29.074  1.00  0.00    -0.331 N 
ATOM      5  C   UNL     1     -15.552 -43.103  27.728  1.00  0.00     0.065 C 
ATOM      6  C   UNL     1     -13.141 -44.762  27.832  1.00  0.00     0.262 C 
ATOM      7  C   UNL     1     -13.354 -43.764  26.701  1.00  0.00     0.065 C 
ATOM      8  H   UNL     1     -13.465 -43.359  29.315  1.00  0.00     0.348 HD
BRANCH   4   9
ATOM      9  C   UNL     1     -13.535 -45.177  30.260  1.00  0.00     0.299 C 
BRANCH   9  10
ATOM     10  C   UNL     1     -12.125 -45.024  30.763  1.00  0.00     0.006 A 
ATOM     11  C   UNL     1     -11.583 -43.750  30.988  1.00  0.00     0.009 A 
ATOM     12  C   UNL     1     -11.326 -46.155  30.995  1.00  0.00     0.009 A 
ATOM     13  C   UNL     1     -10.266 -43.612  31.430  1.00  0.00     0.001 A 
ATOM     14  C   UNL     1     -10.010 -46.011  31.437  1.00  0.00     0.001 A 
ATOM     15  C   UNL     1      -9.481 -44.741  31.651  1.00  0.00     0.000 A 
ENDBRANCH   9  10
ENDBRANCH   4   9
ENDBRANCH   1   2
BRANCH   1  16
ATOM     16  C   UNL     1     -15.280 -42.947  23.944  1.00  0.00     0.061 C 
BRANCH  16  17
ATOM     17  C   UNL     1     -16.168 -42.055  23.149  1.00  0.00     0.091 A 
ATOM     18  N   UNL     1     -15.648 -41.327  22.149  1.00  0.00    -0.084 NA
ATOM     19  C   UNL     1     -17.561 -41.827  23.292  1.00  0.00     0.045 A 
ATOM     20  O   UNL     1     -16.709 -40.611  21.619  1.00  0.00    -0.356 OA
ATOM     21  C   UNL     1     -18.602 -42.272  24.121  1.00  0.00     0.021 A 
ATOM     22  C   UNL     1     -17.847 -40.908  22.300  1.00  0.00     0.170 A 
ATOM     23  C   UNL     1     -19.901 -41.762  23.908  1.00  0.00    -0.008 A 
ATOM     24  C   UNL     1     -19.112 -40.379  22.051  1.00  0.00     0.097 A 
ATOM     25  C   UNL     1     -20.149 -40.825  22.881  1.00  0.00     0.125 A 
ATOM     26  C   UNL     1     -21.027 -42.237  24.792  1.00  0.00     0.048 C 
BRANCH  25  27
ATOM     27  O   UNL     1     -21.453 -40.407  22.777  1.00  0.00    -0.496 OA
ATOM     28  C   UNL     1     -21.706 -39.223  22.029  1.00  0.00     0.278 C 
ENDBRANCH  25  27
ENDBRANCH  16  17
ENDBRANCH   1  16
TORSDOF 6
ENDMDL
