MODEL 1
REMARK VINA RESULT:   -12.451      0.000      0.000
REMARK INTER + INTRA:         -17.442
REMARK INTER:                 -16.818
REMARK INTRA:                  -0.624
REMARK UNBOUND:                -0.624
REMARK SMILES COc1cc2c(cc1OC)C(=O)/C(=C/c1cc[n+](Cc3cccc(C)c3)cc1)C2
REMARK SMILES IDX 15 1 16 2 17 3 18 4 27 5 28 6 14 7 13 8 3 9 4 10 8 11 5 12
REMARK SMILES IDX 7 13 6 14 29 15 11 16 12 17 2 18 1 19 9 20 10 21 19 22 20 23
REMARK SMILES IDX 21 24 26 25 22 26 24 27 23 28 25 29
REMARK H PARENT
ROOT
ATOM      1  C   UNL     1     -13.152 -44.289  27.637  1.00  0.00    -0.013 A 
ATOM      2  C   UNL     1     -13.851 -45.098  28.529  1.00  0.00     0.079 A 
ATOM      3  C   UNL     1     -13.364 -45.271  29.822  1.00  0.00     0.309 A 
ATOM      4  N   UNL     1     -12.226 -44.657  30.221  1.00  0.00    -0.201 N 
ATOM      5  C   UNL     1     -11.537 -43.864  29.369  1.00  0.00     0.309 A 
ATOM      6  C   UNL     1     -11.987 -43.662  28.070  1.00  0.00     0.079 A 
ENDROOT
BRANCH   1   7
ATOM      7  C   UNL     1     -13.644 -44.027  26.285  1.00  0.00     0.016 C 
BRANCH   7   8
ATOM      8  C   UNL     1     -14.845 -43.516  25.982  1.00  0.00     0.005 C 
ATOM      9  C   UNL     1     -19.150 -41.846  25.051  1.00  0.00     0.161 A 
ATOM     10  C   UNL     1     -18.278 -42.071  26.128  1.00  0.00     0.055 A 
ATOM     11  C   UNL     1     -18.757 -42.174  23.722  1.00  0.00     0.161 A 
ATOM     12  C   UNL     1     -17.032 -42.619  25.870  1.00  0.00    -0.028 A 
ATOM     13  C   UNL     1     -17.496 -42.726  23.476  1.00  0.00     0.063 A 
ATOM     14  C   UNL     1     -16.667 -42.933  24.562  1.00  0.00     0.030 A 
ATOM     15  C   UNL     1     -15.940 -42.942  26.846  1.00  0.00     0.076 C 
ATOM     16  C   UNL     1     -15.315 -43.496  24.560  1.00  0.00     0.189 C 
ATOM     17  O   UNL     1     -14.695 -43.879  23.590  1.00  0.00    -0.289 OA
BRANCH   9  18
ATOM     18  O   UNL     1     -20.409 -41.310  25.179  1.00  0.00    -0.493 OA
ATOM     19  C   UNL     1     -20.934 -41.140  26.487  1.00  0.00     0.278 C 
ENDBRANCH   9  18
BRANCH  11  20
ATOM     20  O   UNL     1     -19.686 -41.912  22.745  1.00  0.00    -0.493 OA
ATOM     21  C   UNL     1     -19.453 -40.800  21.891  1.00  0.00     0.278 C 
ENDBRANCH  11  20
ENDBRANCH   7   8
ENDBRANCH   1   7
BRANCH   4  22
ATOM     22  C   UNL     1     -11.731 -44.861  31.608  1.00  0.00     0.393 C 
BRANCH  22  23
ATOM     23  C   UNL     1     -10.243 -45.100  31.626  1.00  0.00     0.017 A 
ATOM     24  C   UNL     1      -9.715 -46.299  31.125  1.00  0.00     0.010 A 
ATOM     25  C   UNL     1      -9.364 -44.129  32.137  1.00  0.00     0.013 A 
ATOM     26  C   UNL     1      -8.341 -46.530  31.155  1.00  0.00     0.001 A 
ATOM     27  C   UNL     1      -7.981 -44.352  32.155  1.00  0.00    -0.051 A 
ATOM     28  C   UNL     1      -7.479 -45.566  31.676  1.00  0.00     0.003 A 
ATOM     29  C   UNL     1      -7.048 -43.326  32.733  1.00  0.00     0.044 C 
ENDBRANCH  22  23
ENDBRANCH   4  22
TORSDOF 6
ENDMDL
MODEL 2
REMARK VINA RESULT:   -11.748      1.057      2.092
REMARK INTER + INTRA:         -16.493
REMARK INTER:                 -16.294
REMARK INTRA:                  -0.199
REMARK UNBOUND:                -0.624
REMARK SMILES COc1cc2c(cc1OC)C(=O)/C(=C/c1cc[n+](Cc3cccc(C)c3)cc1)C2
REMARK SMILES IDX 15 1 16 2 17 3 18 4 27 5 28 6 14 7 13 8 3 9 4 10 8 11 5 12
REMARK SMILES IDX 7 13 6 14 29 15 11 16 12 17 2 18 1 19 9 20 10 21 19 22 20 23
REMARK SMILES IDX 21 24 26 25 22 26 24 27 23 28 25 29
REMARK H PARENT
ROOT
ATOM      1  C   UNL     1     -12.980 -44.014  27.254  1.00  0.00    -0.013 A 
ATOM      2  C   UNL     1     -13.533 -45.246  27.592  1.00  0.00     0.079 A 
ATOM      3  C   UNL     1     -13.166 -45.856  28.788  1.00  0.00     0.309 A 
ATOM      4  N   UNL     1     -12.286 -45.262  29.627  1.00  0.00    -0.201 N 
ATOM      5  C   UNL     1     -11.744 -44.062  29.318  1.00  0.00     0.309 A 
ATOM      6  C   UNL     1     -12.082 -43.416  28.135  1.00  0.00     0.079 A 
ENDROOT
BRANCH   1   7
ATOM      7  C   UNL     1     -13.369 -43.301  26.038  1.00  0.00     0.016 C 
BRANCH   7   8
ATOM      8  C   UNL     1     -14.624 -43.151  25.593  1.00  0.00     0.005 C 
ATOM      9  C   UNL     1     -18.967 -42.494  23.892  1.00  0.00     0.161 A 
ATOM     10  C   UNL     1     -17.670 -42.828  23.469  1.00  0.00     0.055 A 
ATOM     11  C   UNL     1     -19.235 -42.237  25.267  1.00  0.00     0.161 A 
ATOM     12  C   UNL     1     -16.662 -42.902  24.417  1.00  0.00    -0.028 A 
ATOM     13  C   UNL     1     -18.208 -42.315  26.212  1.00  0.00     0.063 A 
ATOM     14  C   UNL     1     -16.946 -42.647  25.757  1.00  0.00     0.030 A 
ATOM     15  C   UNL     1     -15.216 -43.241  24.209  1.00  0.00     0.076 C 
ATOM     16  C   UNL     1     -15.720 -42.786  26.546  1.00  0.00     0.189 C 
ATOM     17  O   UNL     1     -15.611 -42.628  27.744  1.00  0.00    -0.289 OA
BRANCH   9  18
ATOM     18  O   UNL     1     -20.047 -42.389  23.049  1.00  0.00    -0.493 OA
ATOM     19  C   UNL     1     -20.051 -41.341  22.091  1.00  0.00     0.278 C 
ENDBRANCH   9  18
BRANCH  11  20
ATOM     20  O   UNL     1     -20.537 -41.920  25.570  1.00  0.00    -0.493 OA
ATOM     21  C   UNL     1     -20.777 -41.157  26.745  1.00  0.00     0.278 C 
ENDBRANCH  11  20
ENDBRANCH   7   8
ENDBRANCH   1   7
BRANCH   4  22
ATOM     22  C   UNL     1     -11.915 -45.937  30.898  1.00  0.00     0.393 C 
BRANCH  22  23
ATOM     23  C   UNL     1     -10.468 -45.695  31.241  1.00  0.00     0.017 A 
ATOM     24  C   UNL     1      -9.483 -46.607  30.832  1.00  0.00     0.010 A 
ATOM     25  C   UNL     1     -10.081 -44.556  31.967  1.00  0.00     0.013 A 
ATOM     26  C   UNL     1      -8.145 -46.394  31.162  1.00  0.00     0.001 A 
ATOM     27  C   UNL     1      -8.735 -44.331  32.287  1.00  0.00    -0.051 A 
ATOM     28  C   UNL     1      -7.775 -45.268  31.893  1.00  0.00     0.003 A 
ATOM     29  C   UNL     1      -8.330 -43.129  33.092  1.00  0.00     0.044 C 
ENDBRANCH  22  23
ENDBRANCH   4  22
TORSDOF 6
ENDMDL
MODEL 3
REMARK VINA RESULT:   -11.489      1.114      1.841
REMARK INTER + INTRA:         -16.143
REMARK INTER:                 -15.480
REMARK INTRA:                  -0.663
REMARK UNBOUND:                -0.624
REMARK SMILES COc1cc2c(cc1OC)C(=O)/C(=C/c1cc[n+](Cc3cccc(C)c3)cc1)C2
REMARK SMILES IDX 15 1 16 2 17 3 18 4 27 5 28 6 14 7 13 8 3 9 4 10 8 11 5 12
REMARK SMILES IDX 7 13 6 14 29 15 11 16 12 17 2 18 1 19 9 20 10 21 19 22 20 23
REMARK SMILES IDX 21 24 26 25 22 26 24 27 23 28 25 29
REMARK H PARENT
ROOT
ATOM      1  C   UNL     1     -13.069 -43.694  26.990  1.00  0.00    -0.013 A 
ATOM      2  C   UNL     1     -11.866 -43.182  27.468  1.00  0.00     0.079 A 
ATOM      3  C   UNL     1     -11.201 -43.843  28.496  1.00  0.00     0.309 A 
ATOM      4  N   UNL     1     -11.707 -44.979  29.030  1.00  0.00    -0.201 N 
ATOM      5  C   UNL     1     -12.872 -45.493  28.575  1.00  0.00     0.309 A 
ATOM      6  C   UNL     1     -13.569 -44.868  27.549  1.00  0.00     0.079 A 
ENDROOT
BRANCH   1   7
ATOM      7  C   UNL     1     -13.784 -43.074  25.876  1.00  0.00     0.016 C 
BRANCH   7   8
ATOM      8  C   UNL     1     -15.104 -42.842  25.833  1.00  0.00     0.005 C 
ATOM      9  C   UNL     1     -19.769 -42.194  25.796  1.00  0.00     0.161 A 
ATOM     10  C   UNL     1     -18.702 -42.378  26.689  1.00  0.00     0.055 A 
ATOM     11  C   UNL     1     -19.539 -42.165  24.391  1.00  0.00     0.161 A 
ATOM     12  C   UNL     1     -17.424 -42.531  26.174  1.00  0.00    -0.028 A 
ATOM     13  C   UNL     1     -18.245 -42.320  23.886  1.00  0.00     0.063 A 
ATOM     14  C   UNL     1     -17.221 -42.500  24.796  1.00  0.00     0.030 A 
ATOM     15  C   UNL     1     -16.141 -42.735  26.923  1.00  0.00     0.076 C 
ATOM     16  C   UNL     1     -15.796 -42.687  24.514  1.00  0.00     0.189 C 
ATOM     17  O   UNL     1     -15.276 -42.717  23.418  1.00  0.00    -0.289 OA
BRANCH   9  18
ATOM     18  O   UNL     1     -21.077 -42.031  26.184  1.00  0.00    -0.493 OA
ATOM     19  C   UNL     1     -21.436 -40.825  26.841  1.00  0.00     0.278 C 
ENDBRANCH   9  18
BRANCH  11  20
ATOM     20  O   UNL     1     -20.653 -41.978  23.609  1.00  0.00    -0.493 OA
ATOM     21  C   UNL     1     -20.485 -41.313  22.364  1.00  0.00     0.278 C 
ENDBRANCH  11  20
ENDBRANCH   7   8
ENDBRANCH   1   7
BRANCH   4  22
ATOM     22  C   UNL     1     -10.973 -45.664  30.127  1.00  0.00     0.393 C 
BRANCH  22  23
ATOM     23  C   UNL     1     -10.601 -44.696  31.220  1.00  0.00     0.017 A 
ATOM     24  C   UNL     1     -11.599 -43.994  31.911  1.00  0.00     0.010 A 
ATOM     25  C   UNL     1      -9.256 -44.486  31.568  1.00  0.00     0.013 A 
ATOM     26  C   UNL     1     -11.258 -43.085  32.912  1.00  0.00     0.001 A 
ATOM     27  C   UNL     1      -8.909 -43.585  32.584  1.00  0.00    -0.051 A 
ATOM     28  C   UNL     1      -9.920 -42.875  33.240  1.00  0.00     0.003 A 
ATOM     29  C   UNL     1      -7.468 -43.338  32.929  1.00  0.00     0.044 C 
ENDBRANCH  22  23
ENDBRANCH   4  22
TORSDOF 6
ENDMDL
MODEL 4
REMARK VINA RESULT:   -10.761      2.664      4.181
REMARK INTER + INTRA:         -15.159
REMARK INTER:                 -14.726
REMARK INTRA:                  -0.433
REMARK UNBOUND:                -0.624
REMARK SMILES COc1cc2c(cc1OC)C(=O)/C(=C/c1cc[n+](Cc3cccc(C)c3)cc1)C2
REMARK SMILES IDX 15 1 16 2 17 3 18 4 27 5 28 6 14 7 13 8 3 9 4 10 8 11 5 12
REMARK SMILES IDX 7 13 6 14 29 15 11 16 12 17 2 18 1 19 9 20 10 21 19 22 20 23
REMARK SMILES IDX 21 24 26 25 22 26 24 27 23 28 25 29
REMARK H PARENT
ROOT
ATOM      1  C   UNL     1     -15.534 -43.071  24.638  1.00  0.00    -0.013 A 
ATOM      2  C   UNL     1     -14.589 -44.087  24.744  1.00  0.00     0.079 A 
ATOM      3  C   UNL     1     -14.203 -44.535  26.003  1.00  0.00     0.309 A 
ATOM      4  N   UNL     1     -14.742 -43.999  27.124  1.00  0.00    -0.201 N 
ATOM      5  C   UNL     1     -15.665 -43.015  27.040  1.00  0.00     0.309 A 
ATOM      6  C   UNL     1     -16.081 -42.538  25.802  1.00  0.00     0.079 A 
ENDROOT
BRANCH   1   7
ATOM      7  C   UNL     1     -16.017 -42.598  23.342  1.00  0.00     0.016 C 
BRANCH   7   8
ATOM      8  C   UNL     1     -17.211 -42.031  23.118  1.00  0.00     0.005 C 
ATOM      9  C   UNL     1     -21.484 -40.223  22.306  1.00  0.00     0.161 A 
ATOM     10  C   UNL     1     -20.837 -41.167  23.120  1.00  0.00     0.055 A 
ATOM     11  C   UNL     1     -20.748 -39.467  21.351  1.00  0.00     0.161 A 
ATOM     12  C   UNL     1     -19.471 -41.345  22.971  1.00  0.00    -0.028 A 
ATOM     13  C   UNL     1     -19.370 -39.656  21.213  1.00  0.00     0.063 A 
ATOM     14  C   UNL     1     -18.769 -40.594  22.030  1.00  0.00     0.030 A 
ATOM     15  C   UNL     1     -18.571 -42.281  23.722  1.00  0.00     0.076 C 
ATOM     16  C   UNL     1     -17.354 -40.971  22.070  1.00  0.00     0.189 C 
ATOM     17  O   UNL     1     -16.467 -40.515  21.379  1.00  0.00    -0.289 OA
BRANCH   9  18
ATOM     18  O   UNL     1     -22.831 -39.958  22.359  1.00  0.00    -0.493 OA
ATOM     19  C   UNL     1     -23.354 -39.381  23.547  1.00  0.00     0.278 C 
ENDBRANCH   9  18
BRANCH  11  20
ATOM     20  O   UNL     1     -21.479 -38.571  20.609  1.00  0.00    -0.493 OA
ATOM     21  C   UNL     1     -21.626 -38.826  19.218  1.00  0.00     0.278 C 
ENDBRANCH  11  20
ENDBRANCH   7   8
ENDBRANCH   1   7
BRANCH   4  22
ATOM     22  C   UNL     1     -14.311 -44.499  28.456  1.00  0.00     0.393 C 
BRANCH  22  23
ATOM     23  C   UNL     1     -12.851 -44.871  28.452  1.00  0.00     0.017 A 
ATOM     24  C   UNL     1     -12.466 -46.219  28.407  1.00  0.00     0.010 A 
ATOM     25  C   UNL     1     -11.855 -43.880  28.488  1.00  0.00     0.013 A 
ATOM     26  C   UNL     1     -11.116 -46.568  28.420  1.00  0.00     0.001 A 
ATOM     27  C   UNL     1     -10.497 -44.225  28.487  1.00  0.00    -0.051 A 
ATOM     28  C   UNL     1     -10.137 -45.577  28.469  1.00  0.00     0.003 A 
ATOM     29  C   UNL     1      -9.437 -43.164  28.559  1.00  0.00     0.044 C 
ENDBRANCH  22  23
ENDBRANCH   4  22
TORSDOF 6
ENDMDL
MODEL 5
REMARK VINA RESULT:   -10.540      3.593     10.523
REMARK INTER + INTRA:         -14.861
REMARK INTER:                 -14.336
REMARK INTRA:                  -0.525
REMARK UNBOUND:                -0.624
REMARK SMILES COc1cc2c(cc1OC)C(=O)/C(=C/c1cc[n+](Cc3cccc(C)c3)cc1)C2
REMARK SMILES IDX 15 1 16 2 17 3 18 4 27 5 28 6 14 7 13 8 3 9 4 10 8 11 5 12
REMARK SMILES IDX 7 13 6 14 29 15 11 16 12 17 2 18 1 19 9 20 10 21 19 22 20 23
REMARK SMILES IDX 21 24 26 25 22 26 24 27 23 28 25 29
REMARK H PARENT
ROOT
ATOM      1  C   UNL     1     -14.067 -44.571  26.601  1.00  0.00    -0.013 A 
ATOM      2  C   UNL     1     -14.191 -45.017  25.289  1.00  0.00     0.079 A 
ATOM      3  C   UNL     1     -14.634 -44.138  24.305  1.00  0.00     0.309 A 
ATOM      4  N   UNL     1     -14.937 -42.854  24.609  1.00  0.00    -0.201 N 
ATOM      5  C   UNL     1     -14.817 -42.402  25.878  1.00  0.00     0.309 A 
ATOM      6  C   UNL     1     -14.378 -43.245  26.892  1.00  0.00     0.079 A 
ENDROOT
BRANCH   1   7
ATOM      7  C   UNL     1     -13.556 -45.433  27.665  1.00  0.00     0.016 C 
BRANCH   7   8
ATOM      8  C   UNL     1     -12.593 -45.102  28.537  1.00  0.00     0.005 C 
ATOM      9  C   UNL     1      -9.132 -44.126  31.579  1.00  0.00     0.161 A 
ATOM     10  C   UNL     1      -9.333 -44.609  30.276  1.00  0.00     0.055 A 
ATOM     11  C   UNL     1     -10.241 -43.758  32.393  1.00  0.00     0.161 A 
ATOM     12  C   UNL     1     -10.631 -44.719  29.803  1.00  0.00    -0.028 A 
ATOM     13  C   UNL     1     -11.545 -43.874  31.902  1.00  0.00     0.063 A 
ATOM     14  C   UNL     1     -11.702 -44.354  30.615  1.00  0.00     0.030 A 
ATOM     15  C   UNL     1     -11.090 -45.200  28.458  1.00  0.00     0.076 C 
ATOM     16  C   UNL     1     -12.956 -44.566  29.888  1.00  0.00     0.189 C 
ATOM     17  O   UNL     1     -14.076 -44.355  30.303  1.00  0.00    -0.289 OA
BRANCH   9  18
ATOM     18  O   UNL     1      -7.896 -43.972  32.160  1.00  0.00    -0.493 OA
ATOM     19  C   UNL     1      -6.952 -45.022  32.015  1.00  0.00     0.278 C 
ENDBRANCH   9  18
BRANCH  11  20
ATOM     20  O   UNL     1      -9.931 -43.297  33.650  1.00  0.00    -0.493 OA
ATOM     21  C   UNL     1     -10.484 -42.051  34.054  1.00  0.00     0.278 C 
ENDBRANCH  11  20
ENDBRANCH   7   8
ENDBRANCH   1   7
BRANCH   4  22
ATOM     22  C   UNL     1     -15.406 -41.938  23.537  1.00  0.00     0.393 C 
BRANCH  22  23
ATOM     23  C   UNL     1     -16.909 -41.829  23.533  1.00  0.00     0.017 A 
ATOM     24  C   UNL     1     -17.663 -42.431  24.551  1.00  0.00     0.010 A 
ATOM     25  C   UNL     1     -17.577 -41.121  22.519  1.00  0.00     0.013 A 
ATOM     26  C   UNL     1     -19.055 -42.346  24.542  1.00  0.00     0.001 A 
ATOM     27  C   UNL     1     -18.974 -41.021  22.514  1.00  0.00    -0.051 A 
ATOM     28  C   UNL     1     -19.707 -41.653  23.524  1.00  0.00     0.003 A 
ATOM     29  C   UNL     1     -19.686 -40.292  21.409  1.00  0.00     0.044 C 
ENDBRANCH  22  23
ENDBRANCH   4  22
TORSDOF 6
ENDMDL
MODEL 6
REMARK VINA RESULT:   -10.488      3.949     10.371
REMARK INTER + INTRA:         -14.791
REMARK INTER:                 -14.132
REMARK INTRA:                  -0.659
REMARK UNBOUND:                -0.624
REMARK SMILES COc1cc2c(cc1OC)C(=O)/C(=C/c1cc[n+](Cc3cccc(C)c3)cc1)C2
REMARK SMILES IDX 15 1 16 2 17 3 18 4 27 5 28 6 14 7 13 8 3 9 4 10 8 11 5 12
REMARK SMILES IDX 7 13 6 14 29 15 11 16 12 17 2 18 1 19 9 20 10 21 19 22 20 23
REMARK SMILES IDX 21 24 26 25 22 26 24 27 23 28 25 29
REMARK H PARENT
ROOT
ATOM      1  C   UNL     1     -12.564 -45.016  27.737  1.00  0.00    -0.013 A 
ATOM      2  C   UNL     1     -13.449 -45.687  26.900  1.00  0.00     0.079 A 
ATOM      3  C   UNL     1     -14.128 -44.981  25.911  1.00  0.00     0.309 A 
ATOM      4  N   UNL     1     -13.930 -43.651  25.752  1.00  0.00    -0.201 N 
ATOM      5  C   UNL     1     -13.069 -42.983  26.553  1.00  0.00     0.309 A 
ATOM      6  C   UNL     1     -12.369 -43.649  27.552  1.00  0.00     0.079 A 
ENDROOT
BRANCH   1   7
ATOM      7  C   UNL     1     -11.783 -45.715  28.756  1.00  0.00     0.016 C 
BRANCH   7   8
ATOM      8  C   UNL     1     -10.953 -45.134  29.634  1.00  0.00     0.005 C 
ATOM      9  C   UNL     1      -7.940 -43.268  32.736  1.00  0.00     0.161 A 
ATOM     10  C   UNL     1      -7.956 -43.990  31.532  1.00  0.00     0.055 A 
ATOM     11  C   UNL     1      -9.158 -42.887  33.367  1.00  0.00     0.161 A 
ATOM     12  C   UNL     1      -9.181 -44.323  30.975  1.00  0.00    -0.028 A 
ATOM     13  C   UNL     1     -10.386 -43.230  32.793  1.00  0.00     0.063 A 
ATOM     14  C   UNL     1     -10.361 -43.941  31.608  1.00  0.00     0.030 A 
ATOM     15  C   UNL     1      -9.447 -45.078  29.706  1.00  0.00     0.076 C 
ATOM     16  C   UNL     1     -11.505 -44.414  30.825  1.00  0.00     0.189 C 
ATOM     17  O   UNL     1     -12.678 -44.257  31.094  1.00  0.00    -0.289 OA
BRANCH   9  18
ATOM     18  O   UNL     1      -6.792 -42.880  33.385  1.00  0.00    -0.493 OA
ATOM     19  C   UNL     1      -5.722 -43.809  33.464  1.00  0.00     0.278 C 
ENDBRANCH   9  18
BRANCH  11  20
ATOM     20  O   UNL     1      -9.027 -42.183  34.540  1.00  0.00    -0.493 OA
ATOM     21  C   UNL     1     -10.215 -41.801  35.219  1.00  0.00     0.278 C 
ENDBRANCH  11  20
ENDBRANCH   7   8
ENDBRANCH   1   7
BRANCH   4  22
ATOM     22  C   UNL     1     -14.668 -42.922  24.687  1.00  0.00     0.393 C 
BRANCH  22  23
ATOM     23  C   UNL     1     -16.108 -42.704  25.073  1.00  0.00     0.017 A 
ATOM     24  C   UNL     1     -17.086 -42.535  24.083  1.00  0.00     0.010 A 
ATOM     25  C   UNL     1     -16.493 -42.672  26.424  1.00  0.00     0.013 A 
ATOM     26  C   UNL     1     -18.417 -42.317  24.437  1.00  0.00     0.001 A 
ATOM     27  C   UNL     1     -17.832 -42.468  26.784  1.00  0.00    -0.051 A 
ATOM     28  C   UNL     1     -18.786 -42.274  25.780  1.00  0.00     0.003 A 
ATOM     29  C   UNL     1     -18.235 -42.401  28.230  1.00  0.00     0.044 C 
ENDBRANCH  22  23
ENDBRANCH   4  22
TORSDOF 6
ENDMDL
MODEL 7
REMARK VINA RESULT:   -10.407      3.581     10.106
REMARK INTER + INTRA:         -14.681
REMARK INTER:                 -14.020
REMARK INTRA:                  -0.661
REMARK UNBOUND:                -0.624
REMARK SMILES COc1cc2c(cc1OC)C(=O)/C(=C/c1cc[n+](Cc3cccc(C)c3)cc1)C2
REMARK SMILES IDX 15 1 16 2 17 3 18 4 27 5 28 6 14 7 13 8 3 9 4 10 8 11 5 12
REMARK SMILES IDX 7 13 6 14 29 15 11 16 12 17 2 18 1 19 9 20 10 21 19 22 20 23
REMARK SMILES IDX 21 24 26 25 22 26 24 27 23 28 25 29
REMARK H PARENT
ROOT
ATOM      1  C   UNL     1     -15.182 -42.977  25.720  1.00  0.00    -0.013 A 
ATOM      2  C   UNL     1     -15.842 -42.784  26.929  1.00  0.00     0.079 A 
ATOM      3  C   UNL     1     -17.201 -42.485  26.929  1.00  0.00     0.309 A 
ATOM      4  N   UNL     1     -17.888 -42.387  25.766  1.00  0.00    -0.201 N 
ATOM      5  C   UNL     1     -17.264 -42.576  24.581  1.00  0.00     0.309 A 
ATOM      6  C   UNL     1     -15.908 -42.879  24.535  1.00  0.00     0.079 A 
ENDROOT
BRANCH   1   7
ATOM      7  C   UNL     1     -13.769 -43.347  25.661  1.00  0.00     0.016 C 
BRANCH   7   8
ATOM      8  C   UNL     1     -12.964 -43.506  26.720  1.00  0.00     0.005 C 
ATOM      9  C   UNL     1      -9.978 -44.011  30.328  1.00  0.00     0.161 A 
ATOM     10  C   UNL     1     -10.371 -43.070  29.363  1.00  0.00     0.055 A 
ATOM     11  C   UNL     1     -10.586 -45.297  30.374  1.00  0.00     0.161 A 
ATOM     12  C   UNL     1     -11.362 -43.421  28.460  1.00  0.00    -0.028 A 
ATOM     13  C   UNL     1     -11.586 -45.637  29.457  1.00  0.00     0.063 A 
ATOM     14  C   UNL     1     -11.946 -44.685  28.523  1.00  0.00     0.030 A 
ATOM     15  C   UNL     1     -11.946 -42.591  27.355  1.00  0.00     0.076 C 
ATOM     16  C   UNL     1     -12.954 -44.805  27.467  1.00  0.00     0.189 C 
ATOM     17  O   UNL     1     -13.644 -45.775  27.236  1.00  0.00    -0.289 OA
BRANCH   9  18
ATOM     18  O   UNL     1      -9.008 -43.782  31.275  1.00  0.00    -0.493 OA
ATOM     19  C   UNL     1      -7.686 -43.515  30.829  1.00  0.00     0.278 C 
ENDBRANCH   9  18
BRANCH  11  20
ATOM     20  O   UNL     1     -10.127 -46.139  31.358  1.00  0.00    -0.493 OA
ATOM     21  C   UNL     1      -8.960 -46.903  31.084  1.00  0.00     0.278 C 
ENDBRANCH  11  20
ENDBRANCH   7   8
ENDBRANCH   1   7
BRANCH   4  22
ATOM     22  C   UNL     1     -19.339 -42.067  25.796  1.00  0.00     0.393 C 
BRANCH  22  23
ATOM     23  C   UNL     1     -20.150 -43.256  26.245  1.00  0.00     0.017 A 
ATOM     24  C   UNL     1     -20.459 -43.427  27.602  1.00  0.00     0.010 A 
ATOM     25  C   UNL     1     -20.612 -44.204  25.316  1.00  0.00     0.013 A 
ATOM     26  C   UNL     1     -21.195 -44.534  28.023  1.00  0.00     0.001 A 
ATOM     27  C   UNL     1     -21.364 -45.310  25.733  1.00  0.00    -0.051 A 
ATOM     28  C   UNL     1     -21.637 -45.475  27.095  1.00  0.00     0.003 A 
ATOM     29  C   UNL     1     -21.827 -46.339  24.741  1.00  0.00     0.044 C 
ENDBRANCH  22  23
ENDBRANCH   4  22
TORSDOF 6
ENDMDL
MODEL 8
REMARK VINA RESULT:   -10.044      3.635     10.368
REMARK INTER + INTRA:         -14.192
REMARK INTER:                 -13.669
REMARK INTRA:                  -0.523
REMARK UNBOUND:                -0.624
REMARK SMILES COc1cc2c(cc1OC)C(=O)/C(=C/c1cc[n+](Cc3cccc(C)c3)cc1)C2
REMARK SMILES IDX 15 1 16 2 17 3 18 4 27 5 28 6 14 7 13 8 3 9 4 10 8 11 5 12
REMARK SMILES IDX 7 13 6 14 29 15 11 16 12 17 2 18 1 19 9 20 10 21 19 22 20 23
REMARK SMILES IDX 21 24 26 25 22 26 24 27 23 28 25 29
REMARK H PARENT
ROOT
ATOM      1  C   UNL     1     -13.900 -44.646  26.834  1.00  0.00    -0.013 A 
ATOM      2  C   UNL     1     -14.170 -45.142  25.562  1.00  0.00     0.079 A 
ATOM      3  C   UNL     1     -14.569 -44.268  24.556  1.00  0.00     0.309 A 
ATOM      4  N   UNL     1     -14.687 -42.941  24.799  1.00  0.00    -0.201 N 
ATOM      5  C   UNL     1     -14.424 -42.441  26.027  1.00  0.00     0.309 A 
ATOM      6  C   UNL     1     -14.022 -43.277  27.061  1.00  0.00     0.079 A 
ENDROOT
BRANCH   1   7
ATOM      7  C   UNL     1     -13.426 -45.509  27.915  1.00  0.00     0.016 C 
BRANCH   7   8
ATOM      8  C   UNL     1     -12.680 -45.111  28.956  1.00  0.00     0.005 C 
ATOM      9  C   UNL     1     -10.142 -43.530  32.594  1.00  0.00     0.161 A 
ATOM     10  C   UNL     1     -11.469 -43.599  32.140  1.00  0.00     0.055 A 
ATOM     11  C   UNL     1      -9.081 -44.075  31.816  1.00  0.00     0.161 A 
ATOM     12  C   UNL     1     -11.721 -44.208  30.921  1.00  0.00    -0.028 A 
ATOM     13  C   UNL     1      -9.351 -44.686  30.588  1.00  0.00     0.063 A 
ATOM     14  C   UNL     1     -10.669 -44.735  30.175  1.00  0.00     0.030 A 
ATOM     15  C   UNL     1     -13.042 -44.404  30.238  1.00  0.00     0.076 C 
ATOM     16  C   UNL     1     -11.196 -45.315  28.938  1.00  0.00     0.189 C 
ATOM     17  O   UNL     1     -10.553 -45.852  28.061  1.00  0.00    -0.289 OA
BRANCH   9  18
ATOM     18  O   UNL     1      -9.766 -42.952  33.784  1.00  0.00    -0.493 OA
ATOM     19  C   UNL     1     -10.553 -41.883  34.287  1.00  0.00     0.278 C 
ENDBRANCH   9  18
BRANCH  11  20
ATOM     20  O   UNL     1      -7.823 -43.953  32.355  1.00  0.00    -0.493 OA
ATOM     21  C   UNL     1      -6.916 -45.031  32.170  1.00  0.00     0.278 C 
ENDBRANCH  11  20
ENDBRANCH   7   8
ENDBRANCH   1   7
BRANCH   4  22
ATOM     22  C   UNL     1     -15.114 -42.030  23.704  1.00  0.00     0.393 C 
BRANCH  22  23
ATOM     23  C   UNL     1     -16.616 -41.956  23.611  1.00  0.00     0.017 A 
ATOM     24  C   UNL     1     -17.414 -42.554  24.597  1.00  0.00     0.010 A 
ATOM     25  C   UNL     1     -17.239 -41.286  22.544  1.00  0.00     0.013 A 
ATOM     26  C   UNL     1     -18.805 -42.501  24.506  1.00  0.00     0.001 A 
ATOM     27  C   UNL     1     -18.636 -41.217  22.457  1.00  0.00    -0.051 A 
ATOM     28  C   UNL     1     -19.412 -41.845  23.437  1.00  0.00     0.003 A 
ATOM     29  C   UNL     1     -19.297 -40.529  21.297  1.00  0.00     0.044 C 
ENDBRANCH  22  23
ENDBRANCH   4  22
TORSDOF 6
ENDMDL
MODEL 9
REMARK VINA RESULT:    -9.879      2.609      5.582
REMARK INTER + INTRA:         -13.968
REMARK INTER:                 -13.538
REMARK INTRA:                  -0.431
REMARK UNBOUND:                -0.624
REMARK SMILES COc1cc2c(cc1OC)C(=O)/C(=C/c1cc[n+](Cc3cccc(C)c3)cc1)C2
REMARK SMILES IDX 15 1 16 2 17 3 18 4 27 5 28 6 14 7 13 8 3 9 4 10 8 11 5 12
REMARK SMILES IDX 7 13 6 14 29 15 11 16 12 17 2 18 1 19 9 20 10 21 19 22 20 23
REMARK SMILES IDX 21 24 26 25 22 26 24 27 23 28 25 29
REMARK H PARENT
ROOT
ATOM      1  C   UNL     1     -17.232 -42.708  25.262  1.00  0.00    -0.013 A 
ATOM      2  C   UNL     1     -16.175 -42.636  24.360  1.00  0.00     0.079 A 
ATOM      3  C   UNL     1     -14.868 -42.601  24.838  1.00  0.00     0.309 A 
ATOM      4  N   UNL     1     -14.616 -42.644  26.167  1.00  0.00    -0.201 N 
ATOM      5  C   UNL     1     -15.631 -42.718  27.057  1.00  0.00     0.309 A 
ATOM      6  C   UNL     1     -16.951 -42.757  26.625  1.00  0.00     0.079 A 
ENDROOT
BRANCH   1   7
ATOM      7  C   UNL     1     -18.622 -42.802  24.816  1.00  0.00     0.016 C 
BRANCH   7   8
ATOM      8  C   UNL     1     -19.228 -41.950  23.978  1.00  0.00     0.005 C 
ATOM      9  C   UNL     1     -21.198 -38.833  21.047  1.00  0.00     0.161 A 
ATOM     10  C   UNL     1     -20.011 -39.562  21.225  1.00  0.00     0.055 A 
ATOM     11  C   UNL     1     -22.272 -38.964  21.972  1.00  0.00     0.161 A 
ATOM     12  C   UNL     1     -19.910 -40.408  22.318  1.00  0.00    -0.028 A 
ATOM     13  C   UNL     1     -22.156 -39.822  23.070  1.00  0.00     0.063 A 
ATOM     14  C   UNL     1     -20.973 -40.522  23.211  1.00  0.00     0.030 A 
ATOM     15  C   UNL     1     -18.756 -41.282  22.710  1.00  0.00     0.076 C 
ATOM     16  C   UNL     1     -20.615 -41.468  24.270  1.00  0.00     0.189 C 
ATOM     17  O   UNL     1     -21.309 -41.794  25.211  1.00  0.00    -0.289 OA
BRANCH   9  18
ATOM     18  O   UNL     1     -21.418 -37.964  20.005  1.00  0.00    -0.493 OA
ATOM     19  C   UNL     1     -21.726 -38.510  18.731  1.00  0.00     0.278 C 
ENDBRANCH   9  18
BRANCH  11  20
ATOM     20  O   UNL     1     -23.386 -38.206  21.702  1.00  0.00    -0.493 OA
ATOM     21  C   UNL     1     -24.633 -38.879  21.584  1.00  0.00     0.278 C 
ENDBRANCH  11  20
ENDBRANCH   7   8
ENDBRANCH   1   7
BRANCH   4  22
ATOM     22  C   UNL     1     -13.210 -42.606  26.648  1.00  0.00     0.393 C 
BRANCH  22  23
ATOM     23  C   UNL     1     -12.770 -43.955  27.153  1.00  0.00     0.017 A 
ATOM     24  C   UNL     1     -13.373 -45.123  26.663  1.00  0.00     0.010 A 
ATOM     25  C   UNL     1     -11.751 -44.067  28.114  1.00  0.00     0.013 A 
ATOM     26  C   UNL     1     -12.980 -46.373  27.139  1.00  0.00     0.001 A 
ATOM     27  C   UNL     1     -11.343 -45.322  28.585  1.00  0.00    -0.051 A 
ATOM     28  C   UNL     1     -11.977 -46.471  28.102  1.00  0.00     0.003 A 
ATOM     29  C   UNL     1     -10.276 -45.436  29.637  1.00  0.00     0.044 C 
ENDBRANCH  22  23
ENDBRANCH   4  22
TORSDOF 6
ENDMDL
