MODEL 1
REMARK VINA RESULT:   -12.300      0.000      0.000
REMARK INTER + INTRA:         -17.526
REMARK INTER:                 -16.614
REMARK INTRA:                  -0.912
REMARK UNBOUND:                -0.912
REMARK SMILES COc1cc2c(cc1OC)C(=O)[C@H](Cc1cc[n+](Cc3ccccc3)cc1Br)C2
REMARK SMILES IDX 14 1 13 2 3 3 4 4 8 5 5 6 7 7 6 8 29 9 11 10 12 11 2 12 1 13
REMARK SMILES IDX 9 14 10 15 15 16 16 17 27 18 17 19 26 20 18 21 28 22 19 23
REMARK SMILES IDX 20 24 21 25 25 26 22 27 24 28 23 29
REMARK H PARENT
ROOT
ATOM      1  C   UNL     1     -11.122 -46.099  28.915  1.00  0.00     0.049 C 
ENDROOT
BRANCH   1   2
ATOM      2  C   UNL     1     -11.489 -46.025  30.401  1.00  0.00     0.070 C 
ATOM      3  C   UNL     1     -12.765 -42.541  33.376  1.00  0.00     0.161 A 
ATOM      4  C   UNL     1     -13.303 -43.436  32.431  1.00  0.00     0.055 A 
ATOM      5  C   UNL     1     -11.365 -42.483  33.599  1.00  0.00     0.161 A 
ATOM      6  C   UNL     1     -12.458 -44.291  31.749  1.00  0.00    -0.032 A 
ATOM      7  C   UNL     1     -10.524 -43.360  32.902  1.00  0.00     0.062 A 
ATOM      8  C   UNL     1     -11.098 -44.239  32.000  1.00  0.00     0.025 A 
ATOM      9  C   UNL     1     -12.817 -45.289  30.696  1.00  0.00     0.048 C 
ATOM     10  C   UNL     1     -10.443 -45.234  31.163  1.00  0.00     0.167 C 
ATOM     11  O   UNL     1      -9.238 -45.407  31.115  1.00  0.00    -0.294 OA
BRANCH   3  12
ATOM     12  O   UNL     1     -13.729 -41.758  33.960  1.00  0.00    -0.493 OA
ATOM     13  C   UNL     1     -14.997 -41.704  33.319  1.00  0.00     0.278 C 
ENDBRANCH   3  12
BRANCH   5  14
ATOM     14  O   UNL     1     -10.902 -41.543  34.480  1.00  0.00    -0.493 OA
ATOM     15  C   UNL     1      -9.729 -41.841  35.229  1.00  0.00     0.278 C 
ENDBRANCH   5  14
ENDBRANCH   1   2
BRANCH   1  16
ATOM     16  C   UNL     1     -11.976 -45.204  28.037  1.00  0.00    -0.021 A 
ATOM     17  C   UNL     1     -13.061 -45.785  27.366  1.00  0.00     0.075 A 
ATOM     18  C   UNL     1     -11.742 -43.842  27.828  1.00  0.00     0.085 A 
ATOM     19  C   UNL     1     -13.871 -45.022  26.530  1.00  0.00     0.308 A 
ATOM     20  C   UNL     1     -12.580 -43.113  26.980  1.00  0.00     0.324 A 
ATOM     21  N   UNL     1     -13.622 -43.705  26.353  1.00  0.00    -0.200 N 
ATOM     22  Br  UNL     1     -10.313 -42.893  28.633  1.00  0.00    -0.044 Br
BRANCH  21  23
ATOM     23  C   UNL     1     -14.497 -42.908  25.454  1.00  0.00     0.393 C 
BRANCH  23  24
ATOM     24  C   UNL     1     -15.863 -42.731  26.062  1.00  0.00     0.017 A 
ATOM     25  C   UNL     1     -16.013 -42.635  27.456  1.00  0.00     0.010 A 
ATOM     26  C   UNL     1     -17.005 -42.651  25.250  1.00  0.00     0.010 A 
ATOM     27  C   UNL     1     -17.276 -42.453  28.019  1.00  0.00     0.001 A 
ATOM     28  C   UNL     1     -18.266 -42.468  25.820  1.00  0.00     0.001 A 
ATOM     29  C   UNL     1     -18.401 -42.367  27.203  1.00  0.00     0.000 A 
ENDBRANCH  23  24
ENDBRANCH  21  23
ENDBRANCH   1  16
TORSDOF 6
ENDMDL
MODEL 2
REMARK VINA RESULT:   -11.790      3.804      8.797
REMARK INTER + INTRA:         -16.837
REMARK INTER:                 -16.684
REMARK INTRA:                  -0.153
REMARK UNBOUND:                -0.912
REMARK SMILES COc1cc2c(cc1OC)C(=O)[C@H](Cc1cc[n+](Cc3ccccc3)cc1Br)C2
REMARK SMILES IDX 14 1 13 2 3 3 4 4 8 5 5 6 7 7 6 8 29 9 11 10 12 11 2 12 1 13
REMARK SMILES IDX 9 14 10 15 15 16 16 17 27 18 17 19 26 20 18 21 28 22 19 23
REMARK SMILES IDX 20 24 21 25 25 26 22 27 24 28 23 29
REMARK H PARENT
ROOT
ATOM      1  C   UNL     1     -13.199 -43.176  26.547  1.00  0.00     0.049 C 
ENDROOT
BRANCH   1   2
ATOM      2  C   UNL     1     -14.525 -43.807  26.107  1.00  0.00     0.070 C 
ATOM      3  C   UNL     1     -18.343 -42.276  23.721  1.00  0.00     0.161 A 
ATOM      4  C   UNL     1     -17.058 -42.815  23.516  1.00  0.00     0.055 A 
ATOM      5  C   UNL     1     -18.794 -41.963  25.030  1.00  0.00     0.161 A 
ATOM      6  C   UNL     1     -16.250 -43.076  24.607  1.00  0.00    -0.032 A 
ATOM      7  C   UNL     1     -17.963 -42.237  26.124  1.00  0.00     0.062 A 
ATOM      8  C   UNL     1     -16.718 -42.788  25.878  1.00  0.00     0.025 A 
ATOM      9  C   UNL     1     -14.857 -43.616  24.609  1.00  0.00     0.048 C 
ATOM     10  C   UNL     1     -15.685 -43.157  26.836  1.00  0.00     0.167 C 
ATOM     11  O   UNL     1     -15.769 -42.984  28.038  1.00  0.00    -0.294 OA
BRANCH   3  12
ATOM     12  O   UNL     1     -19.016 -42.069  22.543  1.00  0.00    -0.493 OA
ATOM     13  C   UNL     1     -18.873 -40.794  21.930  1.00  0.00     0.278 C 
ENDBRANCH   3  12
BRANCH   5  14
ATOM     14  O   UNL     1     -20.025 -41.376  25.153  1.00  0.00    -0.493 OA
ATOM     15  C   UNL     1     -20.598 -41.279  26.452  1.00  0.00     0.278 C 
ENDBRANCH   5  14
ENDBRANCH   1   2
BRANCH   1  16
ATOM     16  C   UNL     1     -12.507 -43.939  27.660  1.00  0.00    -0.021 A 
ATOM     17  C   UNL     1     -13.145 -45.079  28.170  1.00  0.00     0.075 A 
ATOM     18  C   UNL     1     -11.287 -43.571  28.233  1.00  0.00     0.085 A 
ATOM     19  C   UNL     1     -12.571 -45.810  29.206  1.00  0.00     0.308 A 
ATOM     20  C   UNL     1     -10.746 -44.335  29.271  1.00  0.00     0.324 A 
ATOM     21  N   UNL     1     -11.387 -45.432  29.735  1.00  0.00    -0.200 N 
ATOM     22  Br  UNL     1     -10.294 -42.052  27.688  1.00  0.00    -0.044 Br
BRANCH  21  23
ATOM     23  C   UNL     1     -10.791 -46.226  30.842  1.00  0.00     0.393 C 
BRANCH  23  24
ATOM     24  C   UNL     1      -9.570 -45.539  31.391  1.00  0.00     0.017 A 
ATOM     25  C   UNL     1      -8.295 -46.096  31.197  1.00  0.00     0.010 A 
ATOM     26  C   UNL     1      -9.682 -44.331  32.097  1.00  0.00     0.010 A 
ATOM     27  C   UNL     1      -7.160 -45.451  31.689  1.00  0.00     0.001 A 
ATOM     28  C   UNL     1      -8.543 -43.690  32.586  1.00  0.00     0.001 A 
ATOM     29  C   UNL     1      -7.283 -44.249  32.381  1.00  0.00     0.000 A 
ENDBRANCH  23  24
ENDBRANCH  21  23
ENDBRANCH   1  16
TORSDOF 6
ENDMDL
MODEL 3
REMARK VINA RESULT:   -11.680      3.929      8.746
REMARK INTER + INTRA:         -16.690
REMARK INTER:                 -16.096
REMARK INTRA:                  -0.594
REMARK UNBOUND:                -0.912
REMARK SMILES COc1cc2c(cc1OC)C(=O)[C@H](Cc1cc[n+](Cc3ccccc3)cc1Br)C2
REMARK SMILES IDX 14 1 13 2 3 3 4 4 8 5 5 6 7 7 6 8 29 9 11 10 12 11 2 12 1 13
REMARK SMILES IDX 9 14 10 15 15 16 16 17 27 18 17 19 26 20 18 21 28 22 19 23
REMARK SMILES IDX 20 24 21 25 25 26 22 27 24 28 23 29
REMARK H PARENT
ROOT
ATOM      1  C   UNL     1     -13.670 -44.546  26.540  1.00  0.00     0.049 C 
ENDROOT
BRANCH   1   2
ATOM      2  C   UNL     1     -14.414 -43.223  26.332  1.00  0.00     0.070 C 
ATOM      3  C   UNL     1     -18.866 -42.019  25.171  1.00  0.00     0.161 A 
ATOM      4  C   UNL     1     -18.069 -42.359  26.282  1.00  0.00     0.055 A 
ATOM      5  C   UNL     1     -18.326 -42.057  23.858  1.00  0.00     0.161 A 
ATOM      6  C   UNL     1     -16.741 -42.691  26.089  1.00  0.00    -0.032 A 
ATOM      7  C   UNL     1     -16.978 -42.392  23.682  1.00  0.00     0.062 A 
ATOM      8  C   UNL     1     -16.227 -42.696  24.804  1.00  0.00     0.025 A 
ATOM      9  C   UNL     1     -15.740 -43.104  27.118  1.00  0.00     0.048 C 
ATOM     10  C   UNL     1     -14.822 -43.071  24.879  1.00  0.00     0.167 C 
ATOM     11  O   UNL     1     -14.096 -43.214  23.912  1.00  0.00    -0.294 OA
BRANCH   3  12
ATOM     12  O   UNL     1     -20.158 -41.723  25.527  1.00  0.00    -0.493 OA
ATOM     13  C   UNL     1     -20.379 -41.292  26.864  1.00  0.00     0.278 C 
ENDBRANCH   3  12
BRANCH   5  14
ATOM     14  O   UNL     1     -19.173 -41.784  22.818  1.00  0.00    -0.493 OA
ATOM     15  C   UNL     1     -18.936 -40.612  22.046  1.00  0.00     0.278 C 
ENDBRANCH   5  14
ENDBRANCH   1   2
BRANCH   1  16
ATOM     16  C   UNL     1     -13.028 -44.669  27.909  1.00  0.00    -0.021 A 
ATOM     17  C   UNL     1     -13.544 -45.627  28.793  1.00  0.00     0.075 A 
ATOM     18  C   UNL     1     -11.970 -43.875  28.362  1.00  0.00     0.085 A 
ATOM     19  C   UNL     1     -13.011 -45.775  30.070  1.00  0.00     0.308 A 
ATOM     20  C   UNL     1     -11.465 -44.057  29.652  1.00  0.00     0.324 A 
ATOM     21  N   UNL     1     -11.985 -44.995  30.477  1.00  0.00    -0.200 N 
ATOM     22  Br  UNL     1     -11.161 -42.519  27.315  1.00  0.00    -0.044 Br
BRANCH  21  23
ATOM     23  C   UNL     1     -11.431 -45.168  31.845  1.00  0.00     0.393 C 
BRANCH  23  24
ATOM     24  C   UNL     1      -9.926 -45.141  31.817  1.00  0.00     0.017 A 
ATOM     25  C   UNL     1      -9.228 -44.007  32.264  1.00  0.00     0.010 A 
ATOM     26  C   UNL     1      -9.197 -46.247  31.353  1.00  0.00     0.010 A 
ATOM     27  C   UNL     1      -7.833 -43.988  32.255  1.00  0.00     0.001 A 
ATOM     28  C   UNL     1      -7.801 -46.223  31.348  1.00  0.00     0.001 A 
ATOM     29  C   UNL     1      -7.120 -45.095  31.801  1.00  0.00     0.000 A 
ENDBRANCH  23  24
ENDBRANCH  21  23
ENDBRANCH   1  16
TORSDOF 6
ENDMDL
MODEL 4
REMARK VINA RESULT:   -10.520      3.755      8.350
REMARK INTER + INTRA:         -15.122
REMARK INTER:                 -14.880
REMARK INTRA:                  -0.243
REMARK UNBOUND:                -0.912
REMARK SMILES COc1cc2c(cc1OC)C(=O)[C@H](Cc1cc[n+](Cc3ccccc3)cc1Br)C2
REMARK SMILES IDX 14 1 13 2 3 3 4 4 8 5 5 6 7 7 6 8 29 9 11 10 12 11 2 12 1 13
REMARK SMILES IDX 9 14 10 15 15 16 16 17 27 18 17 19 26 20 18 21 28 22 19 23
REMARK SMILES IDX 20 24 21 25 25 26 22 27 24 28 23 29
REMARK H PARENT
ROOT
ATOM      1  C   UNL     1     -13.807 -45.001  26.607  1.00  0.00     0.049 C 
ENDROOT
BRANCH   1   2
ATOM      2  C   UNL     1     -14.385 -43.608  26.335  1.00  0.00     0.070 C 
ATOM      3  C   UNL     1     -18.688 -41.918  25.221  1.00  0.00     0.161 A 
ATOM      4  C   UNL     1     -17.902 -42.288  26.330  1.00  0.00     0.055 A 
ATOM      5  C   UNL     1     -18.205 -42.104  23.900  1.00  0.00     0.161 A 
ATOM      6  C   UNL     1     -16.635 -42.799  26.122  1.00  0.00    -0.032 A 
ATOM      7  C   UNL     1     -16.917 -42.618  23.708  1.00  0.00     0.062 A 
ATOM      8  C   UNL     1     -16.171 -42.947  24.826  1.00  0.00     0.025 A 
ATOM      9  C   UNL     1     -15.657 -43.274  27.147  1.00  0.00     0.048 C 
ATOM     10  C   UNL     1     -14.823 -43.494  24.887  1.00  0.00     0.167 C 
ATOM     11  O   UNL     1     -14.154 -43.787  23.911  1.00  0.00    -0.294 OA
BRANCH   3  12
ATOM     12  O   UNL     1     -19.919 -41.437  25.593  1.00  0.00    -0.493 OA
ATOM     13  C   UNL     1     -20.277 -41.560  26.963  1.00  0.00     0.278 C 
ENDBRANCH   3  12
BRANCH   5  14
ATOM     14  O   UNL     1     -19.047 -41.788  22.867  1.00  0.00    -0.493 OA
ATOM     15  C   UNL     1     -18.820 -40.574  22.160  1.00  0.00     0.278 C 
ENDBRANCH   5  14
ENDBRANCH   1   2
BRANCH   1  16
ATOM     16  C   UNL     1     -12.874 -45.045  27.802  1.00  0.00    -0.021 A 
ATOM     17  C   UNL     1     -13.027 -46.096  28.717  1.00  0.00     0.075 A 
ATOM     18  C   UNL     1     -11.886 -44.093  28.071  1.00  0.00     0.085 A 
ATOM     19  C   UNL     1     -12.215 -46.180  29.844  1.00  0.00     0.308 A 
ATOM     20  C   UNL     1     -11.092 -44.216  29.214  1.00  0.00     0.324 A 
ATOM     21  N   UNL     1     -11.264 -45.247  30.073  1.00  0.00    -0.200 N 
ATOM     22  Br  UNL     1     -11.550 -42.595  26.960  1.00  0.00    -0.044 Br
BRANCH  21  23
ATOM     23  C   UNL     1     -10.408 -45.355  31.283  1.00  0.00     0.393 C 
BRANCH  23  24
ATOM     24  C   UNL     1     -10.633 -44.182  32.200  1.00  0.00     0.017 A 
ATOM     25  C   UNL     1     -11.931 -43.690  32.417  1.00  0.00     0.010 A 
ATOM     26  C   UNL     1      -9.556 -43.567  32.857  1.00  0.00     0.010 A 
ATOM     27  C   UNL     1     -12.144 -42.615  33.280  1.00  0.00     0.001 A 
ATOM     28  C   UNL     1      -9.775 -42.492  33.720  1.00  0.00     0.001 A 
ATOM     29  C   UNL     1     -11.068 -42.018  33.933  1.00  0.00     0.000 A 
ENDBRANCH  23  24
ENDBRANCH  21  23
ENDBRANCH   1  16
TORSDOF 6
ENDMDL
MODEL 5
REMARK VINA RESULT:   -10.476      4.181      8.897
REMARK INTER + INTRA:         -15.062
REMARK INTER:                 -14.591
REMARK INTRA:                  -0.471
REMARK UNBOUND:                -0.912
REMARK SMILES COc1cc2c(cc1OC)C(=O)[C@H](Cc1cc[n+](Cc3ccccc3)cc1Br)C2
REMARK SMILES IDX 14 1 13 2 3 3 4 4 8 5 5 6 7 7 6 8 29 9 11 10 12 11 2 12 1 13
REMARK SMILES IDX 9 14 10 15 15 16 16 17 27 18 17 19 26 20 18 21 28 22 19 23
REMARK SMILES IDX 20 24 21 25 25 26 22 27 24 28 23 29
REMARK H PARENT
ROOT
ATOM      1  C   UNL     1     -14.212 -44.256  26.754  1.00  0.00     0.049 C 
ENDROOT
BRANCH   1   2
ATOM      2  C   UNL     1     -14.922 -42.998  26.242  1.00  0.00     0.070 C 
ATOM      3  C   UNL     1     -19.353 -41.975  24.851  1.00  0.00     0.161 A 
ATOM      4  C   UNL     1     -18.553 -42.065  26.007  1.00  0.00     0.055 A 
ATOM      5  C   UNL     1     -18.831 -42.338  23.582  1.00  0.00     0.161 A 
ATOM      6  C   UNL     1     -17.237 -42.472  25.891  1.00  0.00    -0.032 A 
ATOM      7  C   UNL     1     -17.494 -42.744  23.483  1.00  0.00     0.062 A 
ATOM      8  C   UNL     1     -16.738 -42.795  24.642  1.00  0.00     0.025 A 
ATOM      9  C   UNL     1     -16.236 -42.659  26.984  1.00  0.00     0.048 C 
ATOM     10  C   UNL     1     -15.343 -43.183  24.797  1.00  0.00     0.167 C 
ATOM     11  O   UNL     1     -14.632 -43.571  23.887  1.00  0.00    -0.294 OA
BRANCH   3  12
ATOM     12  O   UNL     1     -20.632 -41.565  25.133  1.00  0.00    -0.493 OA
ATOM     13  C   UNL     1     -20.927 -41.242  26.486  1.00  0.00     0.278 C 
ENDBRANCH   3  12
BRANCH   5  14
ATOM     14  O   UNL     1     -19.682 -42.295  22.511  1.00  0.00    -0.493 OA
ATOM     15  C   UNL     1     -19.746 -41.094  21.750  1.00  0.00     0.278 C 
ENDBRANCH   5  14
ENDBRANCH   1   2
BRANCH   1  16
ATOM     16  C   UNL     1     -12.836 -43.981  27.331  1.00  0.00    -0.021 A 
ATOM     17  C   UNL     1     -12.228 -42.756  27.021  1.00  0.00     0.075 A 
ATOM     18  C   UNL     1     -12.119 -44.875  28.130  1.00  0.00     0.085 A 
ATOM     19  C   UNL     1     -10.958 -42.452  27.503  1.00  0.00     0.308 A 
ATOM     20  C   UNL     1     -10.846 -44.529  28.593  1.00  0.00     0.324 A 
ATOM     21  N   UNL     1     -10.291 -43.336  28.279  1.00  0.00    -0.200 N 
ATOM     22  Br  UNL     1     -12.772 -46.581  28.632  1.00  0.00    -0.044 Br
BRANCH  21  23
ATOM     23  C   UNL     1      -8.936 -42.993  28.782  1.00  0.00     0.393 C 
BRANCH  23  24
ATOM     24  C   UNL     1      -8.822 -43.296  30.252  1.00  0.00     0.017 A 
ATOM     25  C   UNL     1      -7.621 -43.796  30.783  1.00  0.00     0.010 A 
ATOM     26  C   UNL     1      -9.906 -43.078  31.116  1.00  0.00     0.010 A 
ATOM     27  C   UNL     1      -7.508 -44.060  32.148  1.00  0.00     0.001 A 
ATOM     28  C   UNL     1      -9.787 -43.342  32.481  1.00  0.00     0.001 A 
ATOM     29  C   UNL     1      -8.589 -43.831  32.997  1.00  0.00     0.000 A 
ENDBRANCH  23  24
ENDBRANCH  21  23
ENDBRANCH   1  16
TORSDOF 6
ENDMDL
MODEL 6
REMARK VINA RESULT:    -9.984      4.403      9.320
REMARK INTER + INTRA:         -14.398
REMARK INTER:                 -13.493
REMARK INTRA:                  -0.906
REMARK UNBOUND:                -0.912
REMARK SMILES COc1cc2c(cc1OC)C(=O)[C@H](Cc1cc[n+](Cc3ccccc3)cc1Br)C2
REMARK SMILES IDX 14 1 13 2 3 3 4 4 8 5 5 6 7 7 6 8 29 9 11 10 12 11 2 12 1 13
REMARK SMILES IDX 9 14 10 15 15 16 16 17 27 18 17 19 26 20 18 21 28 22 19 23
REMARK SMILES IDX 20 24 21 25 25 26 22 27 24 28 23 29
REMARK H PARENT
ROOT
ATOM      1  C   UNL     1     -16.059 -42.349  26.484  1.00  0.00     0.049 C 
ENDROOT
BRANCH   1   2
ATOM      2  C   UNL     1     -17.451 -42.831  26.062  1.00  0.00     0.070 C 
ATOM      3  C   UNL     1     -21.393 -40.714  24.453  1.00  0.00     0.161 A 
ATOM      4  C   UNL     1     -20.163 -41.237  24.009  1.00  0.00     0.055 A 
ATOM      5  C   UNL     1     -21.701 -40.669  25.838  1.00  0.00     0.161 A 
ATOM      6  C   UNL     1     -19.270 -41.747  24.933  1.00  0.00    -0.032 A 
ATOM      7  C   UNL     1     -20.786 -41.194  26.760  1.00  0.00     0.062 A 
ATOM      8  C   UNL     1     -19.600 -41.719  26.277  1.00  0.00     0.025 A 
ATOM      9  C   UNL     1     -17.913 -42.318  24.678  1.00  0.00     0.048 C 
ATOM     10  C   UNL     1     -18.502 -42.314  27.026  1.00  0.00     0.167 C 
ATOM     11  O   UNL     1     -18.462 -42.396  28.240  1.00  0.00    -0.294 OA
BRANCH   3  12
ATOM     12  O   UNL     1     -22.162 -40.242  23.419  1.00  0.00    -0.493 OA
ATOM     13  C   UNL     1     -21.519 -40.056  22.164  1.00  0.00     0.278 C 
ENDBRANCH   3  12
BRANCH   5  14
ATOM     14  O   UNL     1     -22.883 -40.084  26.206  1.00  0.00    -0.493 OA
ATOM     15  C   UNL     1     -23.227 -40.072  27.587  1.00  0.00     0.278 C 
ENDBRANCH   5  14
ENDBRANCH   1   2
BRANCH   1  16
ATOM     16  C   UNL     1     -15.138 -43.471  26.924  1.00  0.00    -0.021 A 
ATOM     17  C   UNL     1     -14.962 -43.674  28.300  1.00  0.00     0.075 A 
ATOM     18  C   UNL     1     -14.431 -44.304  26.052  1.00  0.00     0.085 A 
ATOM     19  C   UNL     1     -14.115 -44.675  28.767  1.00  0.00     0.308 A 
ATOM     20  C   UNL     1     -13.591 -45.296  26.564  1.00  0.00     0.324 A 
ATOM     21  N   UNL     1     -13.449 -45.468  27.899  1.00  0.00    -0.200 N 
ATOM     22  Br  UNL     1     -14.528 -44.163  24.165  1.00  0.00    -0.044 Br
BRANCH  21  23
ATOM     23  C   UNL     1     -12.548 -46.529  28.418  1.00  0.00     0.393 C 
BRANCH  23  24
ATOM     24  C   UNL     1     -11.475 -45.936  29.292  1.00  0.00     0.017 A 
ATOM     25  C   UNL     1     -11.444 -46.217  30.668  1.00  0.00     0.010 A 
ATOM     26  C   UNL     1     -10.487 -45.101  28.748  1.00  0.00     0.010 A 
ATOM     27  C   UNL     1     -10.440 -45.683  31.476  1.00  0.00     0.001 A 
ATOM     28  C   UNL     1      -9.484 -44.570  29.561  1.00  0.00     0.001 A 
ATOM     29  C   UNL     1      -9.460 -44.862  30.923  1.00  0.00     0.000 A 
ENDBRANCH  23  24
ENDBRANCH  21  23
ENDBRANCH   1  16
TORSDOF 6
ENDMDL
MODEL 7
REMARK VINA RESULT:    -9.382      3.522      5.769
REMARK INTER + INTRA:         -13.585
REMARK INTER:                 -13.253
REMARK INTRA:                  -0.332
REMARK UNBOUND:                -0.912
REMARK SMILES COc1cc2c(cc1OC)C(=O)[C@H](Cc1cc[n+](Cc3ccccc3)cc1Br)C2
REMARK SMILES IDX 14 1 13 2 3 3 4 4 8 5 5 6 7 7 6 8 29 9 11 10 12 11 2 12 1 13
REMARK SMILES IDX 9 14 10 15 15 16 16 17 27 18 17 19 26 20 18 21 28 22 19 23
REMARK SMILES IDX 20 24 21 25 25 26 22 27 24 28 23 29
REMARK H PARENT
ROOT
ATOM      1  C   UNL     1     -15.548 -43.616  26.695  1.00  0.00     0.049 C 
ENDROOT
BRANCH   1   2
ATOM      2  C   UNL     1     -14.140 -44.137  26.385  1.00  0.00     0.070 C 
ATOM      3  C   UNL     1     -10.442 -45.580  29.002  1.00  0.00     0.161 A 
ATOM      4  C   UNL     1     -11.644 -46.050  28.440  1.00  0.00     0.055 A 
ATOM      5  C   UNL     1     -10.083 -44.210  28.899  1.00  0.00     0.161 A 
ATOM      6  C   UNL     1     -12.457 -45.173  27.747  1.00  0.00    -0.032 A 
ATOM      7  C   UNL     1     -10.917 -43.336  28.190  1.00  0.00     0.062 A 
ATOM      8  C   UNL     1     -12.077 -43.847  27.634  1.00  0.00     0.025 A 
ATOM      9  C   UNL     1     -13.775 -45.457  27.103  1.00  0.00     0.048 C 
ATOM     10  C   UNL     1     -13.095 -43.147  26.862  1.00  0.00     0.167 C 
ATOM     11  O   UNL     1     -13.080 -41.952  26.626  1.00  0.00    -0.294 OA
BRANCH   3  12
ATOM     12  O   UNL     1      -9.753 -46.568  29.661  1.00  0.00    -0.493 OA
ATOM     13  C   UNL     1      -9.925 -46.650  31.070  1.00  0.00     0.278 C 
ENDBRANCH   3  12
BRANCH   5  14
ATOM     14  O   UNL     1      -8.937 -43.806  29.529  1.00  0.00    -0.493 OA
ATOM     15  C   UNL     1      -9.043 -43.272  30.843  1.00  0.00     0.278 C 
ENDBRANCH   5  14
ENDBRANCH   1   2
BRANCH   1  16
ATOM     16  C   UNL     1     -16.230 -42.974  25.502  1.00  0.00    -0.021 A 
ATOM     17  C   UNL     1     -15.510 -42.882  24.304  1.00  0.00     0.075 A 
ATOM     18  C   UNL     1     -17.523 -42.441  25.522  1.00  0.00     0.085 A 
ATOM     19  C   UNL     1     -16.073 -42.286  23.180  1.00  0.00     0.308 A 
ATOM     20  C   UNL     1     -18.050 -41.851  24.370  1.00  0.00     0.324 A 
ATOM     21  N   UNL     1     -17.328 -41.785  23.228  1.00  0.00    -0.200 N 
ATOM     22  Br  UNL     1     -18.635 -42.456  27.055  1.00  0.00    -0.044 Br
BRANCH  21  23
ATOM     23  C   UNL     1     -17.911 -41.151  22.017  1.00  0.00     0.393 C 
BRANCH  23  24
ATOM     24  C   UNL     1     -19.406 -41.031  22.147  1.00  0.00     0.017 A 
ATOM     25  C   UNL     1     -20.000 -39.779  22.377  1.00  0.00     0.010 A 
ATOM     26  C   UNL     1     -20.229 -42.162  22.034  1.00  0.00     0.010 A 
ATOM     27  C   UNL     1     -21.386 -39.663  22.480  1.00  0.00     0.001 A 
ATOM     28  C   UNL     1     -21.616 -42.040  22.136  1.00  0.00     0.001 A 
ATOM     29  C   UNL     1     -22.194 -40.792  22.357  1.00  0.00     0.000 A 
ENDBRANCH  23  24
ENDBRANCH  21  23
ENDBRANCH   1  16
TORSDOF 6
ENDMDL
