MODEL 1
REMARK VINA RESULT:   -10.406      0.000      0.000
REMARK INTER + INTRA:         -12.722
REMARK INTER:                 -12.231
REMARK INTRA:                  -0.491
REMARK UNBOUND:                -0.491
REMARK SMILES Oc1ccc([C@@H]2C[C@@H](c3c4ccccc4cc4ccccc34)N=N2)c(O)c1
REMARK SMILES IDX 5 1 4 2 3 3 2 4 27 5 25 6 6 7 8 8 7 9 23 10 24 11 9 12 10 13
REMARK SMILES IDX 22 14 11 15 15 16 21 17 17 18 12 19 14 20 16 21 20 22 18 23
REMARK SMILES IDX 13 24 19 25 26 26 1 28
REMARK H PARENT 26 27 1 29
ROOT
ATOM      1  C   UNL     1     -21.707 -40.380  19.204  1.00  0.00     0.021 A 
ATOM      2  C   UNL     1     -22.873 -41.113  18.884  1.00  0.00     0.013 A 
ATOM      3  C   UNL     1     -23.945 -40.527  18.208  1.00  0.00     0.047 A 
ATOM      4  C   UNL     1     -23.868 -39.196  17.834  1.00  0.00     0.119 A 
ATOM      5  C   UNL     1     -22.736 -38.444  18.124  1.00  0.00     0.092 A 
ATOM      6  C   UNL     1     -21.664 -39.039  18.805  1.00  0.00     0.124 A 
ENDROOT
BRANCH   1   7
ATOM      7  C   UNL     1     -20.620 -41.141  19.946  1.00  0.00     0.164 C 
ATOM      8  C   UNL     1     -20.325 -40.619  22.202  1.00  0.00     0.162 C 
ATOM      9  C   UNL     1     -20.857 -41.734  21.324  1.00  0.00     0.068 C 
ATOM     10  N   UNL     1     -19.256 -40.007  21.374  1.00  0.00    -0.185 NA
ATOM     11  N   UNL     1     -19.423 -40.281  20.157  1.00  0.00    -0.185 NA
BRANCH   8  12
ATOM     12  C   UNL     1     -19.908 -41.097  23.597  1.00  0.00    -0.006 A 
ATOM     13  C   UNL     1     -20.829 -40.898  24.692  1.00  0.00    -0.012 A 
ATOM     14  C   UNL     1     -18.642 -41.750  23.826  1.00  0.00    -0.012 A 
ATOM     15  C   UNL     1     -22.137 -40.356  24.576  1.00  0.00     0.009 A 
ATOM     16  C   UNL     1     -20.428 -41.271  25.996  1.00  0.00    -0.017 A 
ATOM     17  C   UNL     1     -17.691 -42.095  22.828  1.00  0.00     0.009 A 
ATOM     18  C   UNL     1     -18.293 -42.104  25.152  1.00  0.00    -0.017 A 
ATOM     19  C   UNL     1     -22.980 -40.171  25.677  1.00  0.00     0.001 A 
ATOM     20  C   UNL     1     -21.280 -41.077  27.098  1.00  0.00     0.009 A 
ATOM     21  C   UNL     1     -19.174 -41.848  26.204  1.00  0.00     0.017 A 
ATOM     22  C   UNL     1     -16.473 -42.717  23.120  1.00  0.00     0.001 A 
ATOM     23  C   UNL     1     -17.063 -42.724  25.438  1.00  0.00     0.009 A 
ATOM     24  C   UNL     1     -22.548 -40.527  26.943  1.00  0.00     0.001 A 
ATOM     25  C   UNL     1     -16.155 -43.027  24.430  1.00  0.00     0.001 A 
ENDBRANCH   8  12
ENDBRANCH   1   7
BRANCH   6  26
ATOM     26  O   UNL     1     -20.562 -38.275  19.065  1.00  0.00    -0.507 OA
ATOM     27  H   UNL     1     -20.837 -37.351  19.191  1.00  0.00     0.293 HD
ENDBRANCH   6  26
BRANCH   4  28
ATOM     28  O   UNL     1     -24.935 -38.661  17.176  1.00  0.00    -0.508 OA
ATOM     29  H   UNL     1     -24.853 -38.854  16.228  1.00  0.00     0.293 HD
ENDBRANCH   4  28
TORSDOF 4
ENDMDL
MODEL 2
REMARK VINA RESULT:    -9.855      0.238      3.556
REMARK INTER + INTRA:         -12.075
REMARK INTER:                 -11.918
REMARK INTRA:                  -0.157
REMARK UNBOUND:                -0.491
REMARK SMILES Oc1ccc([C@@H]2C[C@@H](c3c4ccccc4cc4ccccc34)N=N2)c(O)c1
REMARK SMILES IDX 5 1 4 2 3 3 2 4 27 5 25 6 6 7 8 8 7 9 23 10 24 11 9 12 10 13
REMARK SMILES IDX 22 14 11 15 15 16 21 17 17 18 12 19 14 20 16 21 20 22 18 23
REMARK SMILES IDX 13 24 19 25 26 26 1 28
REMARK H PARENT 26 27 1 29
ROOT
ATOM      1  C   UNL     1     -21.823 -40.269  19.112  1.00  0.00     0.021 A 
ATOM      2  C   UNL     1     -23.004 -40.933  18.710  1.00  0.00     0.013 A 
ATOM      3  C   UNL     1     -24.014 -40.273  18.009  1.00  0.00     0.047 A 
ATOM      4  C   UNL     1     -23.859 -38.934  17.692  1.00  0.00     0.119 A 
ATOM      5  C   UNL     1     -22.710 -38.247  18.064  1.00  0.00     0.092 A 
ATOM      6  C   UNL     1     -21.699 -38.917  18.769  1.00  0.00     0.124 A 
ENDROOT
BRANCH   1   7
ATOM      7  C   UNL     1     -20.808 -41.108  19.873  1.00  0.00     0.164 C 
ATOM      8  C   UNL     1     -20.427 -40.530  22.102  1.00  0.00     0.162 C 
ATOM      9  C   UNL     1     -21.084 -41.619  21.276  1.00  0.00     0.068 C 
ATOM     10  N   UNL     1     -19.314 -40.066  21.238  1.00  0.00    -0.185 NA
ATOM     11  N   UNL     1     -19.526 -40.369  20.035  1.00  0.00    -0.185 NA
BRANCH   8  12
ATOM     12  C   UNL     1     -20.041 -40.994  23.511  1.00  0.00    -0.006 A 
ATOM     13  C   UNL     1     -18.742 -41.597  23.700  1.00  0.00    -0.012 A 
ATOM     14  C   UNL     1     -20.927 -40.819  24.635  1.00  0.00    -0.012 A 
ATOM     15  C   UNL     1     -17.747 -41.736  22.694  1.00  0.00     0.009 A 
ATOM     16  C   UNL     1     -18.400 -42.093  24.979  1.00  0.00    -0.017 A 
ATOM     17  C   UNL     1     -22.184 -40.157  24.609  1.00  0.00     0.009 A 
ATOM     18  C   UNL     1     -20.533 -41.333  25.895  1.00  0.00    -0.017 A 
ATOM     19  C   UNL     1     -16.511 -42.347  22.932  1.00  0.00     0.001 A 
ATOM     20  C   UNL     1     -17.157 -42.710  25.208  1.00  0.00     0.009 A 
ATOM     21  C   UNL     1     -19.298 -41.967  26.041  1.00  0.00     0.017 A 
ATOM     22  C   UNL     1     -23.004 -40.034  25.735  1.00  0.00     0.001 A 
ATOM     23  C   UNL     1     -21.366 -41.211  27.022  1.00  0.00     0.009 A 
ATOM     24  C   UNL     1     -16.218 -42.840  24.191  1.00  0.00     0.001 A 
ATOM     25  C   UNL     1     -22.597 -40.568  26.945  1.00  0.00     0.001 A 
ENDBRANCH   8  12
ENDBRANCH   1   7
BRANCH   6  26
ATOM     26  O   UNL     1     -20.577 -38.217  19.111  1.00  0.00    -0.507 OA
ATOM     27  H   UNL     1     -20.766 -37.265  19.054  1.00  0.00     0.293 HD
ENDBRANCH   6  26
BRANCH   4  28
ATOM     28  O   UNL     1     -24.868 -38.324  17.007  1.00  0.00    -0.508 OA
ATOM     29  H   UNL     1     -25.382 -38.997  16.533  1.00  0.00     0.293 HD
ENDBRANCH   4  28
TORSDOF 4
ENDMDL
MODEL 3
REMARK VINA RESULT:    -9.682      5.431      9.228
REMARK INTER + INTRA:         -11.871
REMARK INTER:                 -11.746
REMARK INTRA:                  -0.125
REMARK UNBOUND:                -0.491
REMARK SMILES Oc1ccc([C@@H]2C[C@@H](c3c4ccccc4cc4ccccc34)N=N2)c(O)c1
REMARK SMILES IDX 5 1 4 2 3 3 2 4 27 5 25 6 6 7 8 8 7 9 23 10 24 11 9 12 10 13
REMARK SMILES IDX 22 14 11 15 15 16 21 17 17 18 12 19 14 20 16 21 20 22 18 23
REMARK SMILES IDX 13 24 19 25 26 26 1 28
REMARK H PARENT 26 27 1 29
ROOT
ATOM      1  C   UNL     1     -13.054 -43.700  26.856  1.00  0.00     0.021 A 
ATOM      2  C   UNL     1     -13.573 -45.012  26.932  1.00  0.00     0.013 A 
ATOM      3  C   UNL     1     -13.072 -45.948  27.838  1.00  0.00     0.047 A 
ATOM      4  C   UNL     1     -12.042 -45.586  28.690  1.00  0.00     0.119 A 
ATOM      5  C   UNL     1     -11.510 -44.304  28.651  1.00  0.00     0.092 A 
ATOM      6  C   UNL     1     -12.018 -43.369  27.738  1.00  0.00     0.124 A 
ENDROOT
BRANCH   1   7
ATOM      7  C   UNL     1     -13.691 -42.786  25.821  1.00  0.00     0.164 C 
ATOM      8  C   UNL     1     -15.972 -43.079  25.422  1.00  0.00     0.162 C 
ATOM      9  C   UNL     1     -15.019 -42.095  26.073  1.00  0.00     0.068 C 
ATOM     10  N   UNL     1     -15.164 -43.668  24.325  1.00  0.00    -0.185 NA
ATOM     11  N   UNL     1     -13.933 -43.518  24.548  1.00  0.00    -0.185 NA
BRANCH   8  12
ATOM     12  C   UNL     1     -17.305 -42.445  25.012  1.00  0.00    -0.006 A 
ATOM     13  C   UNL     1     -18.417 -42.538  25.928  1.00  0.00    -0.012 A 
ATOM     14  C   UNL     1     -17.458 -41.749  23.757  1.00  0.00    -0.012 A 
ATOM     15  C   UNL     1     -18.365 -43.112  27.227  1.00  0.00     0.009 A 
ATOM     16  C   UNL     1     -19.672 -42.020  25.532  1.00  0.00    -0.017 A 
ATOM     17  C   UNL     1     -16.426 -41.499  22.813  1.00  0.00     0.009 A 
ATOM     18  C   UNL     1     -18.737 -41.247  23.412  1.00  0.00    -0.017 A 
ATOM     19  C   UNL     1     -19.482 -43.191  28.065  1.00  0.00     0.001 A 
ATOM     20  C   UNL     1     -20.792 -42.107  26.380  1.00  0.00     0.009 A 
ATOM     21  C   UNL     1     -19.813 -41.402  24.288  1.00  0.00     0.017 A 
ATOM     22  C   UNL     1     -16.645 -40.828  21.605  1.00  0.00     0.001 A 
ATOM     23  C   UNL     1     -18.950 -40.578  22.193  1.00  0.00     0.009 A 
ATOM     24  C   UNL     1     -20.700 -42.691  27.638  1.00  0.00     0.001 A 
ATOM     25  C   UNL     1     -17.912 -40.372  21.291  1.00  0.00     0.001 A 
ENDBRANCH   8  12
ENDBRANCH   1   7
BRANCH   6  26
ATOM     26  O   UNL     1     -11.480 -42.114  27.732  1.00  0.00    -0.507 OA
ATOM     27  H   UNL     1     -10.517 -42.180  27.615  1.00  0.00     0.293 HD
ENDBRANCH   6  26
BRANCH   4  28
ATOM     28  O   UNL     1     -11.580 -46.528  29.560  1.00  0.00    -0.508 OA
ATOM     29  H   UNL     1     -11.046 -47.176  29.074  1.00  0.00     0.293 HD
ENDBRANCH   4  28
TORSDOF 4
ENDMDL
MODEL 4
REMARK VINA RESULT:    -9.592      9.024     12.304
REMARK INTER + INTRA:         -11.765
REMARK INTER:                 -12.463
REMARK INTRA:                   0.698
REMARK UNBOUND:                -0.491
REMARK SMILES Oc1ccc([C@@H]2C[C@@H](c3c4ccccc4cc4ccccc34)N=N2)c(O)c1
REMARK SMILES IDX 5 1 4 2 3 3 2 4 27 5 25 6 6 7 8 8 7 9 23 10 24 11 9 12 10 13
REMARK SMILES IDX 22 14 11 15 15 16 21 17 17 18 12 19 14 20 16 21 20 22 18 23
REMARK SMILES IDX 13 24 19 25 26 26 1 28
REMARK H PARENT 26 27 1 29
ROOT
ATOM      1  C   UNL     1     -13.801 -45.098  27.814  1.00  0.00     0.021 A 
ATOM      2  C   UNL     1     -14.581 -43.932  27.647  1.00  0.00     0.013 A 
ATOM      3  C   UNL     1     -14.975 -43.488  26.384  1.00  0.00     0.047 A 
ATOM      4  C   UNL     1     -14.598 -44.206  25.262  1.00  0.00     0.119 A 
ATOM      5  C   UNL     1     -13.836 -45.361  25.385  1.00  0.00     0.092 A 
ATOM      6  C   UNL     1     -13.444 -45.801  26.657  1.00  0.00     0.124 A 
ENDROOT
BRANCH   1   7
ATOM      7  C   UNL     1     -13.440 -45.464  29.245  1.00  0.00     0.164 C 
ATOM      8  C   UNL     1     -11.934 -44.056  30.341  1.00  0.00     0.162 C 
ATOM      9  C   UNL     1     -13.405 -44.425  30.352  1.00  0.00     0.068 C 
ATOM     10  N   UNL     1     -11.267 -45.310  29.911  1.00  0.00    -0.185 NA
ATOM     11  N   UNL     1     -12.079 -46.063  29.310  1.00  0.00    -0.185 NA
BRANCH   8  12
ATOM     12  C   UNL     1     -11.454 -43.458  31.667  1.00  0.00    -0.006 A 
ATOM     13  C   UNL     1     -12.436 -42.877  32.552  1.00  0.00    -0.012 A 
ATOM     14  C   UNL     1     -10.063 -43.484  32.050  1.00  0.00    -0.012 A 
ATOM     15  C   UNL     1     -13.840 -42.877  32.332  1.00  0.00     0.009 A 
ATOM     16  C   UNL     1     -11.999 -42.259  33.746  1.00  0.00    -0.017 A 
ATOM     17  C   UNL     1      -9.012 -44.107  31.324  1.00  0.00     0.009 A 
ATOM     18  C   UNL     1      -9.680 -42.852  33.258  1.00  0.00    -0.017 A 
ATOM     19  C   UNL     1     -14.746 -42.282  33.218  1.00  0.00     0.001 A 
ATOM     20  C   UNL     1     -12.915 -41.659  34.629  1.00  0.00     0.009 A 
ATOM     21  C   UNL     1     -10.641 -42.244  34.069  1.00  0.00     0.017 A 
ATOM     22  C   UNL     1      -7.678 -44.084  31.745  1.00  0.00     0.001 A 
ATOM     23  C   UNL     1      -8.336 -42.828  33.671  1.00  0.00     0.009 A 
ATOM     24  C   UNL     1     -14.280 -41.667  34.367  1.00  0.00     0.001 A 
ATOM     25  C   UNL     1      -7.337 -43.437  32.919  1.00  0.00     0.001 A 
ENDBRANCH   8  12
ENDBRANCH   1   7
BRANCH   6  26
ATOM     26  O   UNL     1     -12.704 -46.946  26.745  1.00  0.00    -0.507 OA
ATOM     27  H   UNL     1     -12.992 -47.453  27.523  1.00  0.00     0.293 HD
ENDBRANCH   6  26
BRANCH   4  28
ATOM     28  O   UNL     1     -15.002 -43.740  24.046  1.00  0.00    -0.508 OA
ATOM     29  H   UNL     1     -15.942 -43.503  24.093  1.00  0.00     0.293 HD
ENDBRANCH   4  28
TORSDOF 4
ENDMDL
MODEL 5
REMARK VINA RESULT:    -9.470      6.658     10.161
REMARK INTER + INTRA:         -11.621
REMARK INTER:                 -12.078
REMARK INTRA:                   0.457
REMARK UNBOUND:                -0.491
REMARK SMILES Oc1ccc([C@@H]2C[C@@H](c3c4ccccc4cc4ccccc34)N=N2)c(O)c1
REMARK SMILES IDX 5 1 4 2 3 3 2 4 27 5 25 6 6 7 8 8 7 9 23 10 24 11 9 12 10 13
REMARK SMILES IDX 22 14 11 15 15 16 21 17 17 18 12 19 14 20 16 21 20 22 18 23
REMARK SMILES IDX 13 24 19 25 26 26 1 28
REMARK H PARENT 26 27 1 29
ROOT
ATOM      1  C   UNL     1     -12.215 -43.950  27.979  1.00  0.00     0.021 A 
ATOM      2  C   UNL     1     -11.796 -42.773  27.319  1.00  0.00     0.013 A 
ATOM      3  C   UNL     1     -10.575 -42.162  27.611  1.00  0.00     0.047 A 
ATOM      4  C   UNL     1      -9.747 -42.722  28.569  1.00  0.00     0.119 A 
ATOM      5  C   UNL     1     -10.120 -43.883  29.236  1.00  0.00     0.092 A 
ATOM      6  C   UNL     1     -11.349 -44.490  28.937  1.00  0.00     0.124 A 
ENDROOT
BRANCH   1   7
ATOM      7  C   UNL     1     -13.569 -44.505  27.565  1.00  0.00     0.164 C 
ATOM      8  C   UNL     1     -15.218 -42.948  27.014  1.00  0.00     0.162 C 
ATOM      9  C   UNL     1     -14.316 -43.973  26.355  1.00  0.00     0.068 C 
ATOM     10  N   UNL     1     -15.459 -43.517  28.363  1.00  0.00    -0.185 NA
ATOM     11  N   UNL     1     -14.562 -44.349  28.663  1.00  0.00    -0.185 NA
BRANCH   8  12
ATOM     12  C   UNL     1     -16.467 -42.624  26.186  1.00  0.00    -0.006 A 
ATOM     13  C   UNL     1     -17.760 -42.776  26.811  1.00  0.00    -0.012 A 
ATOM     14  C   UNL     1     -16.372 -42.158  24.824  1.00  0.00    -0.012 A 
ATOM     15  C   UNL     1     -17.979 -43.134  28.169  1.00  0.00     0.009 A 
ATOM     16  C   UNL     1     -18.922 -42.548  26.038  1.00  0.00    -0.017 A 
ATOM     17  C   UNL     1     -15.169 -41.873  24.124  1.00  0.00     0.009 A 
ATOM     18  C   UNL     1     -17.568 -41.944  24.096  1.00  0.00    -0.017 A 
ATOM     19  C   UNL     1     -19.258 -43.283  28.716  1.00  0.00     0.001 A 
ATOM     20  C   UNL     1     -20.204 -42.705  26.594  1.00  0.00     0.009 A 
ATOM     21  C   UNL     1     -18.808 -42.155  24.703  1.00  0.00     0.017 A 
ATOM     22  C   UNL     1     -15.146 -41.436  22.796  1.00  0.00     0.001 A 
ATOM     23  C   UNL     1     -17.537 -41.509  22.759  1.00  0.00     0.009 A 
ATOM     24  C   UNL     1     -20.373 -43.073  27.924  1.00  0.00     0.001 A 
ATOM     25  C   UNL     1     -16.333 -41.259  22.109  1.00  0.00     0.001 A 
ENDBRANCH   8  12
ENDBRANCH   1   7
BRANCH   6  26
ATOM     26  O   UNL     1     -11.681 -45.635  29.603  1.00  0.00    -0.507 OA
ATOM     27  H   UNL     1     -11.294 -45.610  30.494  1.00  0.00     0.293 HD
ENDBRANCH   6  26
BRANCH   4  28
ATOM     28  O   UNL     1      -8.563 -42.097  28.827  1.00  0.00    -0.508 OA
ATOM     29  H   UNL     1      -8.271 -41.629  28.029  1.00  0.00     0.293 HD
ENDBRANCH   4  28
TORSDOF 4
ENDMDL
MODEL 6
REMARK VINA RESULT:    -9.414      8.971     12.728
REMARK INTER + INTRA:         -11.556
REMARK INTER:                 -12.022
REMARK INTRA:                   0.465
REMARK UNBOUND:                -0.491
REMARK SMILES Oc1ccc([C@@H]2C[C@@H](c3c4ccccc4cc4ccccc34)N=N2)c(O)c1
REMARK SMILES IDX 5 1 4 2 3 3 2 4 27 5 25 6 6 7 8 8 7 9 23 10 24 11 9 12 10 13
REMARK SMILES IDX 22 14 11 15 15 16 21 17 17 18 12 19 14 20 16 21 20 22 18 23
REMARK SMILES IDX 13 24 19 25 26 26 1 28
REMARK H PARENT 26 27 1 29
ROOT
ATOM      1  C   UNL     1     -13.779 -45.078  27.797  1.00  0.00     0.021 A 
ATOM      2  C   UNL     1     -14.567 -43.917  27.621  1.00  0.00     0.013 A 
ATOM      3  C   UNL     1     -14.968 -43.487  26.355  1.00  0.00     0.047 A 
ATOM      4  C   UNL     1     -14.590 -44.214  25.239  1.00  0.00     0.119 A 
ATOM      5  C   UNL     1     -13.821 -45.364  25.370  1.00  0.00     0.092 A 
ATOM      6  C   UNL     1     -13.422 -45.790  26.645  1.00  0.00     0.124 A 
ENDROOT
BRANCH   1   7
ATOM      7  C   UNL     1     -13.411 -45.427  29.230  1.00  0.00     0.164 C 
ATOM      8  C   UNL     1     -12.046 -43.911  30.364  1.00  0.00     0.162 C 
ATOM      9  C   UNL     1     -13.481 -44.401  30.347  1.00  0.00     0.068 C 
ATOM     10  N   UNL     1     -11.270 -45.100  29.932  1.00  0.00    -0.185 NA
ATOM     11  N   UNL     1     -12.006 -45.912  29.311  1.00  0.00    -0.185 NA
BRANCH   8  12
ATOM     12  C   UNL     1     -11.638 -43.289  31.704  1.00  0.00    -0.006 A 
ATOM     13  C   UNL     1     -10.237 -43.279  32.054  1.00  0.00    -0.012 A 
ATOM     14  C   UNL     1     -12.610 -42.704  32.594  1.00  0.00    -0.012 A 
ATOM     15  C   UNL     1      -9.179 -43.736  31.223  1.00  0.00     0.009 A 
ATOM     16  C   UNL     1      -9.854 -42.772  33.318  1.00  0.00    -0.017 A 
ATOM     17  C   UNL     1     -13.999 -42.559  32.331  1.00  0.00     0.009 A 
ATOM     18  C   UNL     1     -12.171 -42.209  33.847  1.00  0.00    -0.017 A 
ATOM     19  C   UNL     1      -7.839 -43.718  31.624  1.00  0.00     0.001 A 
ATOM     20  C   UNL     1      -8.504 -42.762  33.715  1.00  0.00     0.009 A 
ATOM     21  C   UNL     1     -10.818 -42.265  34.190  1.00  0.00     0.017 A 
ATOM     22  C   UNL     1     -14.893 -41.994  33.246  1.00  0.00     0.001 A 
ATOM     23  C   UNL     1     -13.077 -41.647  34.764  1.00  0.00     0.009 A 
ATOM     24  C   UNL     1      -7.501 -43.234  32.876  1.00  0.00     0.001 A 
ATOM     25  C   UNL     1     -14.432 -41.542  34.469  1.00  0.00     0.001 A 
ENDBRANCH   8  12
ENDBRANCH   1   7
BRANCH   6  26
ATOM     26  O   UNL     1     -12.676 -46.929  26.741  1.00  0.00    -0.507 OA
ATOM     27  H   UNL     1     -13.029 -47.595  26.127  1.00  0.00     0.293 HD
ENDBRANCH   6  26
BRANCH   4  28
ATOM     28  O   UNL     1     -15.001 -43.762  24.020  1.00  0.00    -0.508 OA
ATOM     29  H   UNL     1     -15.945 -43.958  23.910  1.00  0.00     0.293 HD
ENDBRANCH   4  28
TORSDOF 4
ENDMDL
MODEL 7
REMARK VINA RESULT:    -9.155      4.220      7.564
REMARK INTER + INTRA:         -11.252
REMARK INTER:                 -11.174
REMARK INTRA:                  -0.078
REMARK UNBOUND:                -0.491
REMARK SMILES Oc1ccc([C@@H]2C[C@@H](c3c4ccccc4cc4ccccc34)N=N2)c(O)c1
REMARK SMILES IDX 5 1 4 2 3 3 2 4 27 5 25 6 6 7 8 8 7 9 23 10 24 11 9 12 10 13
REMARK SMILES IDX 22 14 11 15 15 16 21 17 17 18 12 19 14 20 16 21 20 22 18 23
REMARK SMILES IDX 13 24 19 25 26 26 1 28
REMARK H PARENT 26 27 1 29
ROOT
ATOM      1  C   UNL     1     -22.818 -43.043  27.244  1.00  0.00     0.021 A 
ATOM      2  C   UNL     1     -24.212 -43.271  27.269  1.00  0.00     0.013 A 
ATOM      3  C   UNL     1     -24.769 -44.333  27.984  1.00  0.00     0.047 A 
ATOM      4  C   UNL     1     -23.939 -45.186  28.692  1.00  0.00     0.119 A 
ATOM      5  C   UNL     1     -22.563 -44.991  28.697  1.00  0.00     0.092 A 
ATOM      6  C   UNL     1     -22.011 -43.922  27.976  1.00  0.00     0.124 A 
ENDROOT
BRANCH   1   7
ATOM      7  C   UNL     1     -22.348 -41.853  26.422  1.00  0.00     0.164 C 
ATOM      8  C   UNL     1     -20.259 -42.042  25.397  1.00  0.00     0.162 C 
ATOM      9  C   UNL     1     -21.734 -42.025  25.044  1.00  0.00     0.068 C 
ATOM     10  N   UNL     1     -20.182 -41.173  26.598  1.00  0.00    -0.185 NA
ATOM     11  N   UNL     1     -21.308 -41.082  27.155  1.00  0.00    -0.185 NA
BRANCH   8  12
ATOM     12  C   UNL     1     -19.354 -41.653  24.224  1.00  0.00    -0.006 A 
ATOM     13  C   UNL     1     -17.966 -42.048  24.271  1.00  0.00    -0.012 A 
ATOM     14  C   UNL     1     -19.862 -40.931  23.083  1.00  0.00    -0.012 A 
ATOM     15  C   UNL     1     -17.372 -42.840  25.290  1.00  0.00     0.009 A 
ATOM     16  C   UNL     1     -17.103 -41.635  23.229  1.00  0.00    -0.017 A 
ATOM     17  C   UNL     1     -21.218 -40.569  22.864  1.00  0.00     0.009 A 
ATOM     18  C   UNL     1     -18.954 -40.544  22.066  1.00  0.00    -0.017 A 
ATOM     19  C   UNL     1     -16.014 -43.178  25.292  1.00  0.00     0.001 A 
ATOM     20  C   UNL     1     -15.738 -41.975  23.241  1.00  0.00     0.009 A 
ATOM     21  C   UNL     1     -17.603 -40.886  22.163  1.00  0.00     0.017 A 
ATOM     22  C   UNL     1     -21.644 -39.854  21.739  1.00  0.00     0.001 A 
ATOM     23  C   UNL     1     -19.389 -39.821  20.941  1.00  0.00     0.009 A 
ATOM     24  C   UNL     1     -15.194 -42.739  24.267  1.00  0.00     0.001 A 
ATOM     25  C   UNL     1     -20.725 -39.473  20.778  1.00  0.00     0.001 A 
ENDBRANCH   8  12
ENDBRANCH   1   7
BRANCH   6  26
ATOM     26  O   UNL     1     -20.657 -43.752  28.010  1.00  0.00    -0.507 OA
ATOM     27  H   UNL     1     -20.349 -43.466  27.134  1.00  0.00     0.293 HD
ENDBRANCH   6  26
BRANCH   4  28
ATOM     28  O   UNL     1     -24.520 -46.211  29.377  1.00  0.00    -0.508 OA
ATOM     29  H   UNL     1     -24.611 -46.976  28.787  1.00  0.00     0.293 HD
ENDBRANCH   4  28
TORSDOF 4
ENDMDL
MODEL 8
REMARK VINA RESULT:    -9.134      4.247      6.837
REMARK INTER + INTRA:         -11.226
REMARK INTER:                 -10.892
REMARK INTRA:                  -0.335
REMARK UNBOUND:                -0.491
REMARK SMILES Oc1ccc([C@@H]2C[C@@H](c3c4ccccc4cc4ccccc34)N=N2)c(O)c1
REMARK SMILES IDX 5 1 4 2 3 3 2 4 27 5 25 6 6 7 8 8 7 9 23 10 24 11 9 12 10 13
REMARK SMILES IDX 22 14 11 15 15 16 21 17 17 18 12 19 14 20 16 21 20 22 18 23
REMARK SMILES IDX 13 24 19 25 26 26 1 28
REMARK H PARENT 26 27 1 29
ROOT
ATOM      1  C   UNL     1     -23.023 -43.439  26.630  1.00  0.00     0.021 A 
ATOM      2  C   UNL     1     -24.309 -43.996  26.446  1.00  0.00     0.013 A 
ATOM      3  C   UNL     1     -24.773 -45.048  27.238  1.00  0.00     0.047 A 
ATOM      4  C   UNL     1     -23.959 -45.560  28.234  1.00  0.00     0.119 A 
ATOM      5  C   UNL     1     -22.691 -45.035  28.451  1.00  0.00     0.092 A 
ATOM      6  C   UNL     1     -22.231 -43.979  27.650  1.00  0.00     0.124 A 
ENDROOT
BRANCH   1   7
ATOM      7  C   UNL     1     -22.645 -42.302  25.694  1.00  0.00     0.164 C 
ATOM      8  C   UNL     1     -20.384 -42.092  25.155  1.00  0.00     0.162 C 
ATOM      9  C   UNL     1     -21.698 -42.509  24.525  1.00  0.00     0.068 C 
ATOM     10  N   UNL     1     -20.788 -41.066  26.149  1.00  0.00    -0.185 NA
ATOM     11  N   UNL     1     -22.006 -41.189  26.446  1.00  0.00    -0.185 NA
BRANCH   8  12
ATOM     12  C   UNL     1     -19.334 -41.658  24.127  1.00  0.00    -0.006 A 
ATOM     13  C   UNL     1     -19.761 -40.836  23.018  1.00  0.00    -0.012 A 
ATOM     14  C   UNL     1     -17.946 -42.031  24.258  1.00  0.00    -0.012 A 
ATOM     15  C   UNL     1     -21.074 -40.326  22.833  1.00  0.00     0.009 A 
ATOM     16  C   UNL     1     -18.817 -40.487  22.025  1.00  0.00    -0.017 A 
ATOM     17  C   UNL     1     -17.377 -42.749  25.344  1.00  0.00     0.009 A 
ATOM     18  C   UNL     1     -17.043 -41.653  23.234  1.00  0.00    -0.017 A 
ATOM     19  C   UNL     1     -21.435 -39.548  21.727  1.00  0.00     0.001 A 
ATOM     20  C   UNL     1     -19.189 -39.708  20.914  1.00  0.00     0.009 A 
ATOM     21  C   UNL     1     -17.491 -40.910  22.140  1.00  0.00     0.017 A 
ATOM     22  C   UNL     1     -16.022 -43.093  25.403  1.00  0.00     0.001 A 
ATOM     23  C   UNL     1     -15.684 -42.007  23.298  1.00  0.00     0.009 A 
ATOM     24  C   UNL     1     -20.490 -39.243  20.763  1.00  0.00     0.001 A 
ATOM     25  C   UNL     1     -15.174 -42.726  24.374  1.00  0.00     0.001 A 
ENDBRANCH   8  12
ENDBRANCH   1   7
BRANCH   6  26
ATOM     26  O   UNL     1     -20.984 -43.479  27.895  1.00  0.00    -0.507 OA
ATOM     27  H   UNL     1     -21.035 -42.840  28.626  1.00  0.00     0.293 HD
ENDBRANCH   6  26
BRANCH   4  28
ATOM     28  O   UNL     1     -24.448 -46.586  28.987  1.00  0.00    -0.508 OA
ATOM     29  H   UNL     1     -23.883 -46.705  29.767  1.00  0.00     0.293 HD
ENDBRANCH   4  28
TORSDOF 4
ENDMDL
MODEL 9
REMARK VINA RESULT:    -8.913      3.926      6.622
REMARK INTER + INTRA:         -10.967
REMARK INTER:                 -10.296
REMARK INTRA:                  -0.671
REMARK UNBOUND:                -0.491
REMARK SMILES Oc1ccc([C@@H]2C[C@@H](c3c4ccccc4cc4ccccc34)N=N2)c(O)c1
REMARK SMILES IDX 5 1 4 2 3 3 2 4 27 5 25 6 6 7 8 8 7 9 23 10 24 11 9 12 10 13
REMARK SMILES IDX 22 14 11 15 15 16 21 17 17 18 12 19 14 20 16 21 20 22 18 23
REMARK SMILES IDX 13 24 19 25 26 26 1 28
REMARK H PARENT 26 27 1 29
ROOT
ATOM      1  C   UNL     1     -22.604 -42.521  27.304  1.00  0.00     0.021 A 
ATOM      2  C   UNL     1     -23.123 -41.209  27.221  1.00  0.00     0.013 A 
ATOM      3  C   UNL     1     -24.465 -40.933  27.489  1.00  0.00     0.047 A 
ATOM      4  C   UNL     1     -25.314 -41.966  27.849  1.00  0.00     0.119 A 
ATOM      5  C   UNL     1     -24.840 -43.269  27.947  1.00  0.00     0.092 A 
ATOM      6  C   UNL     1     -23.491 -43.539  27.676  1.00  0.00     0.124 A 
ENDROOT
BRANCH   1   7
ATOM      7  C   UNL     1     -21.127 -42.679  26.981  1.00  0.00     0.164 C 
ATOM      8  C   UNL     1     -20.474 -42.213  24.789  1.00  0.00     0.162 C 
ATOM      9  C   UNL     1     -20.366 -41.633  26.186  1.00  0.00     0.068 C 
ATOM     10  N   UNL     1     -20.522 -43.677  25.026  1.00  0.00    -0.185 NA
ATOM     11  N   UNL     1     -20.885 -43.926  26.206  1.00  0.00    -0.185 NA
BRANCH   8  12
ATOM     12  C   UNL     1     -19.373 -41.719  23.844  1.00  0.00    -0.006 A 
ATOM     13  C   UNL     1     -19.755 -40.897  22.720  1.00  0.00    -0.012 A 
ATOM     14  C   UNL     1     -17.984 -42.037  24.068  1.00  0.00    -0.012 A 
ATOM     15  C   UNL     1     -21.073 -40.439  22.448  1.00  0.00     0.009 A 
ATOM     16  C   UNL     1     -18.759 -40.493  21.801  1.00  0.00    -0.017 A 
ATOM     17  C   UNL     1     -17.463 -42.749  25.182  1.00  0.00     0.009 A 
ATOM     18  C   UNL     1     -17.028 -41.605  23.117  1.00  0.00    -0.017 A 
ATOM     19  C   UNL     1     -21.387 -39.657  21.331  1.00  0.00     0.001 A 
ATOM     20  C   UNL     1     -19.085 -39.711  20.678  1.00  0.00     0.009 A 
ATOM     21  C   UNL     1     -17.429 -40.862  22.005  1.00  0.00     0.017 A 
ATOM     22  C   UNL     1     -16.102 -43.038  25.333  1.00  0.00     0.001 A 
ATOM     23  C   UNL     1     -15.662 -41.904  23.273  1.00  0.00     0.009 A 
ATOM     24  C   UNL     1     -20.391 -39.297  20.441  1.00  0.00     0.001 A 
ATOM     25  C   UNL     1     -15.200 -42.619  24.372  1.00  0.00     0.001 A 
ENDBRANCH   8  12
ENDBRANCH   1   7
BRANCH   6  26
ATOM     26  O   UNL     1     -23.055 -44.827  27.792  1.00  0.00    -0.507 OA
ATOM     27  H   UNL     1     -23.822 -45.424  27.801  1.00  0.00     0.293 HD
ENDBRANCH   6  26
BRANCH   4  28
ATOM     28  O   UNL     1     -26.617 -41.656  28.102  1.00  0.00    -0.508 OA
ATOM     29  H   UNL     1     -27.052 -41.407  27.272  1.00  0.00     0.293 HD
ENDBRANCH   4  28
TORSDOF 4
ENDMDL
