MODEL 1
REMARK VINA RESULT:    -9.011      0.000      0.000
REMARK INTER + INTRA:         -10.253
REMARK INTER:                 -10.065
REMARK INTRA:                  -0.188
REMARK UNBOUND:                -0.188
REMARK SMILES CNC(=O)Oc1ccc2c(c1)[C@]1(C)CC[N@@H+](C)[C@@H]1N2C
REMARK SMILES IDX 5 1 6 2 15 3 16 4 14 5 18 6 12 7 19 8 10 9 9 10 11 11 8 12
REMARK SMILES IDX 7 13 17 14 13 16 20 17 3 18 2 19 4 20 1 21
REMARK H PARENT 16 15 2 22
ROOT
ATOM      1  O   UNL     1     -14.272 -44.363  26.406  1.00  0.00    -0.410 OA
ENDROOT
BRANCH   1   2
ATOM      2  C   UNL     1     -13.130 -44.053  27.153  1.00  0.00     0.133 A 
ATOM      3  C   UNL     1     -11.721 -44.394  31.809  1.00  0.00     0.265 C 
ATOM      4  N   UNL     1     -10.420 -43.680  31.574  1.00  0.00    -0.317 N 
ATOM      5  C   UNL     1     -11.571 -45.709  31.069  1.00  0.00     0.081 C 
ATOM      6  C   UNL     1      -9.777 -44.259  30.357  1.00  0.00     0.296 C 
ATOM      7  C   UNL     1     -10.744 -45.349  29.840  1.00  0.00     0.072 C 
ATOM      8  N   UNL     1      -9.795 -43.095  29.478  1.00  0.00    -0.325 N 
ATOM      9  C   UNL     1     -11.491 -44.584  28.789  1.00  0.00    -0.007 A 
ATOM     10  C   UNL     1     -10.883 -43.337  28.593  1.00  0.00     0.045 A 
ATOM     11  C   UNL     1     -12.605 -44.970  28.064  1.00  0.00     0.054 A 
ATOM     12  C   UNL     1     -11.383 -42.451  27.649  1.00  0.00     0.030 A 
ATOM     13  C   UNL     1     -12.518 -42.815  26.920  1.00  0.00     0.049 A 
ATOM     14  C   UNL     1      -9.532 -43.558  32.753  1.00  0.00     0.334 C 
ATOM     15  H   UNL     1     -10.632 -42.736  31.222  1.00  0.00     0.349 HD
ATOM     16  C   UNL     1     -10.017 -46.549  29.239  1.00  0.00     0.025 C 
ATOM     17  C   UNL     1      -8.556 -42.811  28.750  1.00  0.00     0.150 C 
ENDBRANCH   1   2
BRANCH   1  18
ATOM     18  C   UNL     1     -15.276 -43.405  26.467  1.00  0.00     0.412 C 
ATOM     19  N   UNL     1     -15.722 -43.302  27.755  1.00  0.00    -0.324 N 
ATOM     20  O   UNL     1     -15.703 -42.754  25.523  1.00  0.00    -0.224 OA
ATOM     21  C   UNL     1     -16.852 -42.485  28.110  1.00  0.00     0.146 C 
ATOM     22  H   UNL     1     -15.370 -43.984  28.412  1.00  0.00     0.166 HD
ENDBRANCH   1  18
TORSDOF 2
ENDMDL
MODEL 2
REMARK VINA RESULT:    -8.272      1.495      2.237
REMARK INTER + INTRA:          -9.427
REMARK INTER:                  -9.575
REMARK INTRA:                   0.148
REMARK UNBOUND:                -0.188
REMARK SMILES CNC(=O)Oc1ccc2c(c1)[C@]1(C)CC[N@@H+](C)[C@@H]1N2C
REMARK SMILES IDX 5 1 6 2 15 3 16 4 14 5 18 6 12 7 19 8 10 9 9 10 11 11 8 12
REMARK SMILES IDX 7 13 17 14 13 16 20 17 3 18 2 19 4 20 1 21
REMARK H PARENT 16 15 2 22
ROOT
ATOM      1  O   UNL     1     -12.078 -42.852  26.823  1.00  0.00    -0.410 OA
ENDROOT
BRANCH   1   2
ATOM      2  C   UNL     1     -11.204 -43.044  27.900  1.00  0.00     0.133 A 
ATOM      3  C   UNL     1     -11.355 -42.521  32.745  1.00  0.00     0.265 C 
ATOM      4  N   UNL     1      -9.901 -42.853  32.928  1.00  0.00    -0.317 N 
ATOM      5  C   UNL     1     -11.987 -43.823  32.292  1.00  0.00     0.081 C 
ATOM      6  C   UNL     1      -9.592 -44.075  32.129  1.00  0.00     0.296 C 
ATOM      7  C   UNL     1     -10.911 -44.475  31.430  1.00  0.00     0.072 C 
ATOM      8  N   UNL     1      -8.646 -43.521  31.167  1.00  0.00    -0.325 N 
ATOM      9  C   UNL     1     -10.719 -43.838  30.086  1.00  0.00    -0.007 A 
ATOM     10  C   UNL     1      -9.408 -43.358  29.976  1.00  0.00     0.045 A 
ATOM     11  C   UNL     1     -11.629 -43.709  29.050  1.00  0.00     0.054 A 
ATOM     12  C   UNL     1      -8.980 -42.743  28.808  1.00  0.00     0.030 A 
ATOM     13  C   UNL     1      -9.889 -42.587  27.758  1.00  0.00     0.049 A 
ATOM     14  C   UNL     1      -9.421 -42.883  34.330  1.00  0.00     0.334 C 
ATOM     15  H   UNL     1      -9.347 -42.161  32.405  1.00  0.00     0.349 HD
ATOM     16  C   UNL     1     -11.083 -45.986  31.307  1.00  0.00     0.025 C 
ATOM     17  C   UNL     1      -7.428 -44.299  30.930  1.00  0.00     0.150 C 
ENDBRANCH   1   2
BRANCH   1  18
ATOM     18  C   UNL     1     -13.261 -43.575  26.909  1.00  0.00     0.412 C 
ATOM     19  N   UNL     1     -14.319 -42.710  26.918  1.00  0.00    -0.324 N 
ATOM     20  O   UNL     1     -13.352 -44.794  26.972  1.00  0.00    -0.224 OA
ATOM     21  C   UNL     1     -15.670 -43.155  27.133  1.00  0.00     0.146 C 
ATOM     22  H   UNL     1     -14.098 -41.726  26.986  1.00  0.00     0.166 HD
ENDBRANCH   1  18
TORSDOF 2
ENDMDL
MODEL 3
REMARK VINA RESULT:    -8.161      3.994      8.996
REMARK INTER + INTRA:          -9.304
REMARK INTER:                  -9.319
REMARK INTRA:                   0.016
REMARK UNBOUND:                -0.188
REMARK SMILES CNC(=O)Oc1ccc2c(c1)[C@]1(C)CC[N@@H+](C)[C@@H]1N2C
REMARK SMILES IDX 5 1 6 2 15 3 16 4 14 5 18 6 12 7 19 8 10 9 9 10 11 11 8 12
REMARK SMILES IDX 7 13 17 14 13 16 20 17 3 18 2 19 4 20 1 21
REMARK H PARENT 16 15 2 22
ROOT
ATOM      1  O   UNL     1     -15.147 -42.690  26.931  1.00  0.00    -0.410 OA
ENDROOT
BRANCH   1   2
ATOM      2  C   UNL     1     -16.246 -42.585  26.070  1.00  0.00     0.133 A 
ATOM      3  C   UNL     1     -20.575 -44.765  25.538  1.00  0.00     0.265 C 
ATOM      4  N   UNL     1     -20.907 -44.023  24.274  1.00  0.00    -0.317 N 
ATOM      5  C   UNL     1     -20.600 -43.702  26.619  1.00  0.00     0.081 C 
ATOM      6  C   UNL     1     -20.609 -42.576  24.484  1.00  0.00     0.296 C 
ATOM      7  C   UNL     1     -20.061 -42.456  25.925  1.00  0.00     0.072 C 
ATOM      8  N   UNL     1     -19.540 -42.390  23.509  1.00  0.00    -0.325 N 
ATOM      9  C   UNL     1     -18.585 -42.478  25.665  1.00  0.00    -0.007 A 
ATOM     10  C   UNL     1     -18.348 -42.391  24.287  1.00  0.00     0.045 A 
ATOM     11  C   UNL     1     -17.545 -42.555  26.576  1.00  0.00     0.054 A 
ATOM     12  C   UNL     1     -17.050 -42.370  23.796  1.00  0.00     0.030 A 
ATOM     13  C   UNL     1     -15.988 -42.466  24.699  1.00  0.00     0.049 A 
ATOM     14  C   UNL     1     -22.239 -44.310  23.693  1.00  0.00     0.334 C 
ATOM     15  H   UNL     1     -20.187 -44.247  23.574  1.00  0.00     0.349 HD
ATOM     16  C   UNL     1     -20.483 -41.162  26.614  1.00  0.00     0.025 C 
ATOM     17  C   UNL     1     -19.634 -41.199  22.661  1.00  0.00     0.150 C 
ENDBRANCH   1   2
BRANCH   1  18
ATOM     18  C   UNL     1     -14.559 -43.948  26.958  1.00  0.00     0.412 C 
ATOM     19  N   UNL     1     -14.218 -44.260  28.244  1.00  0.00    -0.324 N 
ATOM     20  O   UNL     1     -14.368 -44.671  25.988  1.00  0.00    -0.224 OA
ATOM     21  C   UNL     1     -13.471 -45.444  28.573  1.00  0.00     0.146 C 
ATOM     22  H   UNL     1     -14.319 -43.524  28.930  1.00  0.00     0.166 HD
ENDBRANCH   1  18
TORSDOF 2
ENDMDL
MODEL 4
REMARK VINA RESULT:    -7.953      3.535      5.025
REMARK INTER + INTRA:          -9.071
REMARK INTER:                  -8.869
REMARK INTRA:                  -0.202
REMARK UNBOUND:                -0.188
REMARK SMILES CNC(=O)Oc1ccc2c(c1)[C@]1(C)CC[N@@H+](C)[C@@H]1N2C
REMARK SMILES IDX 5 1 6 2 15 3 16 4 14 5 18 6 12 7 19 8 10 9 9 10 11 11 8 12
REMARK SMILES IDX 7 13 17 14 13 16 20 17 3 18 2 19 4 20 1 21
REMARK H PARENT 16 15 2 22
ROOT
ATOM      1  O   UNL     1     -12.504 -41.820  33.925  1.00  0.00    -0.410 OA
ENDROOT
BRANCH   1   2
ATOM      2  C   UNL     1     -11.594 -42.468  33.082  1.00  0.00     0.133 A 
ATOM      3  C   UNL     1     -11.783 -45.827  29.552  1.00  0.00     0.265 C 
ATOM      4  N   UNL     1     -10.289 -45.908  29.409  1.00  0.00    -0.317 N 
ATOM      5  C   UNL     1     -12.138 -44.444  29.043  1.00  0.00     0.081 C 
ATOM      6  C   UNL     1      -9.745 -44.519  29.350  1.00  0.00     0.296 C 
ATOM      7  C   UNL     1     -10.963 -43.576  29.481  1.00  0.00     0.072 C 
ATOM      8  N   UNL     1      -8.948 -44.503  30.572  1.00  0.00    -0.325 N 
ATOM      9  C   UNL     1     -10.925 -43.273  30.948  1.00  0.00    -0.007 A 
ATOM     10  C   UNL     1      -9.743 -43.779  31.503  1.00  0.00     0.045 A 
ATOM     11  C   UNL     1     -11.856 -42.595  31.718  1.00  0.00     0.054 A 
ATOM     12  C   UNL     1      -9.468 -43.604  32.852  1.00  0.00     0.030 A 
ATOM     13  C   UNL     1     -10.404 -42.938  33.649  1.00  0.00     0.049 A 
ATOM     14  C   UNL     1      -9.793 -46.820  28.352  1.00  0.00     0.334 C 
ATOM     15  H   UNL     1      -9.897 -46.207  30.313  1.00  0.00     0.349 HD
ATOM     16  C   UNL     1     -10.820 -42.304  28.649  1.00  0.00     0.025 C 
ATOM     17  C   UNL     1      -7.598 -43.943  30.460  1.00  0.00     0.150 C 
ENDBRANCH   1   2
BRANCH   1  18
ATOM     18  C   UNL     1     -13.823 -42.223  33.764  1.00  0.00     0.412 C 
ATOM     19  N   UNL     1     -14.564 -41.170  33.307  1.00  0.00    -0.324 N 
ATOM     20  O   UNL     1     -14.263 -43.342  33.995  1.00  0.00    -0.224 OA
ATOM     21  C   UNL     1     -15.994 -41.243  33.168  1.00  0.00     0.146 C 
ATOM     22  H   UNL     1     -14.103 -40.271  33.276  1.00  0.00     0.166 HD
ENDBRANCH   1  18
TORSDOF 2
ENDMDL
MODEL 5
REMARK VINA RESULT:    -7.613      3.289      4.747
REMARK INTER + INTRA:          -8.691
REMARK INTER:                  -8.490
REMARK INTRA:                  -0.201
REMARK UNBOUND:                -0.188
REMARK SMILES CNC(=O)Oc1ccc2c(c1)[C@]1(C)CC[N@@H+](C)[C@@H]1N2C
REMARK SMILES IDX 5 1 6 2 15 3 16 4 14 5 18 6 12 7 19 8 10 9 9 10 11 11 8 12
REMARK SMILES IDX 7 13 17 14 13 16 20 17 3 18 2 19 4 20 1 21
REMARK H PARENT 16 15 2 22
ROOT
ATOM      1  O   UNL     1     -14.185 -43.866  33.260  1.00  0.00    -0.410 OA
ENDROOT
BRANCH   1   2
ATOM      2  C   UNL     1     -13.461 -44.199  32.109  1.00  0.00     0.133 A 
ATOM      3  C   UNL     1      -9.668 -42.387  29.638  1.00  0.00     0.265 C 
ATOM      4  N   UNL     1      -9.785 -43.389  28.524  1.00  0.00    -0.317 N 
ATOM      5  C   UNL     1      -9.230 -43.205  30.838  1.00  0.00     0.081 C 
ATOM      6  C   UNL     1      -9.948 -44.746  29.124  1.00  0.00     0.296 C 
ATOM      7  C   UNL     1      -9.945 -44.540  30.656  1.00  0.00     0.072 C 
ATOM      8  N   UNL     1     -11.288 -45.077  28.651  1.00  0.00    -0.325 N 
ATOM      9  C   UNL     1     -11.417 -44.501  30.936  1.00  0.00    -0.007 A 
ATOM     10  C   UNL     1     -12.125 -44.858  29.781  1.00  0.00     0.045 A 
ATOM     11  C   UNL     1     -12.067 -44.187  32.118  1.00  0.00     0.054 A 
ATOM     12  C   UNL     1     -13.512 -44.916  29.796  1.00  0.00     0.030 A 
ATOM     13  C   UNL     1     -14.186 -44.585  30.975  1.00  0.00     0.049 A 
ATOM     14  C   UNL     1      -8.755 -43.292  27.463  1.00  0.00     0.334 C 
ATOM     15  H   UNL     1     -10.714 -43.280  28.093  1.00  0.00     0.349 HD
ATOM     16  C   UNL     1      -9.269 -45.683  31.406  1.00  0.00     0.025 C 
ATOM     17  C   UNL     1     -11.468 -46.420  28.095  1.00  0.00     0.150 C 
ENDBRANCH   1   2
BRANCH   1  18
ATOM     18  C   UNL     1     -14.363 -42.502  33.449  1.00  0.00     0.412 C 
ATOM     19  N   UNL     1     -14.567 -42.253  34.777  1.00  0.00    -0.324 N 
ATOM     20  O   UNL     1     -14.346 -41.648  32.572  1.00  0.00    -0.224 OA
ATOM     21  C   UNL     1     -14.914 -40.946  35.268  1.00  0.00     0.146 C 
ATOM     22  H   UNL     1     -14.680 -43.059  35.377  1.00  0.00     0.166 HD
ENDBRANCH   1  18
TORSDOF 2
ENDMDL
MODEL 6
REMARK VINA RESULT:    -7.309      3.806      6.516
REMARK INTER + INTRA:          -8.351
REMARK INTER:                  -9.098
REMARK INTRA:                   0.747
REMARK UNBOUND:                -0.188
REMARK SMILES CNC(=O)Oc1ccc2c(c1)[C@]1(C)CC[N@@H+](C)[C@@H]1N2C
REMARK SMILES IDX 5 1 6 2 15 3 16 4 14 5 18 6 12 7 19 8 10 9 9 10 11 11 8 12
REMARK SMILES IDX 7 13 17 14 13 16 20 17 3 18 2 19 4 20 1 21
REMARK H PARENT 16 15 2 22
ROOT
ATOM      1  O   UNL     1     -10.382 -41.683  33.764  1.00  0.00    -0.410 OA
ENDROOT
BRANCH   1   2
ATOM      2  C   UNL     1     -11.084 -42.670  33.062  1.00  0.00     0.133 A 
ATOM      3  C   UNL     1     -11.212 -44.386  28.500  1.00  0.00     0.265 C 
ATOM      4  N   UNL     1     -12.366 -45.310  28.771  1.00  0.00    -0.317 N 
ATOM      5  C   UNL     1     -10.063 -44.971  29.298  1.00  0.00     0.081 C 
ATOM      6  C   UNL     1     -12.091 -46.047  30.041  1.00  0.00     0.296 C 
ATOM      7  C   UNL     1     -10.729 -45.527  30.551  1.00  0.00     0.072 C 
ATOM      8  N   UNL     1     -13.180 -45.543  30.871  1.00  0.00    -0.325 N 
ATOM      9  C   UNL     1     -11.177 -44.486  31.533  1.00  0.00    -0.007 A 
ATOM     10  C   UNL     1     -12.564 -44.572  31.709  1.00  0.00     0.045 A 
ATOM     11  C   UNL     1     -10.414 -43.554  32.216  1.00  0.00     0.054 A 
ATOM     12  C   UNL     1     -13.215 -43.721  32.591  1.00  0.00     0.030 A 
ATOM     13  C   UNL     1     -12.465 -42.761  33.277  1.00  0.00     0.049 A 
ATOM     14  C   UNL     1     -12.790 -46.159  27.634  1.00  0.00     0.334 C 
ATOM     15  H   UNL     1     -13.167 -44.740  29.074  1.00  0.00     0.349 HD
ATOM     16  C   UNL     1      -9.899 -46.611  31.234  1.00  0.00     0.025 C 
ATOM     17  C   UNL     1     -13.920 -46.540  31.648  1.00  0.00     0.150 C 
ENDBRANCH   1   2
BRANCH   1  18
ATOM     18  C   UNL     1      -9.169 -42.108  34.289  1.00  0.00     0.412 C 
ATOM     19  N   UNL     1      -8.332 -42.459  33.267  1.00  0.00    -0.324 N 
ATOM     20  O   UNL     1      -8.884 -42.166  35.478  1.00  0.00    -0.224 OA
ATOM     21  C   UNL     1      -7.048 -43.063  33.501  1.00  0.00     0.146 C 
ATOM     22  H   UNL     1      -8.734 -42.480  32.340  1.00  0.00     0.166 HD
ENDBRANCH   1  18
TORSDOF 2
ENDMDL
MODEL 7
REMARK VINA RESULT:    -7.177      4.062      6.523
REMARK INTER + INTRA:          -8.204
REMARK INTER:                  -8.723
REMARK INTRA:                   0.519
REMARK UNBOUND:                -0.188
REMARK SMILES CNC(=O)Oc1ccc2c(c1)[C@]1(C)CC[N@@H+](C)[C@@H]1N2C
REMARK SMILES IDX 5 1 6 2 15 3 16 4 14 5 18 6 12 7 19 8 10 9 9 10 11 11 8 12
REMARK SMILES IDX 7 13 17 14 13 16 20 17 3 18 2 19 4 20 1 21
REMARK H PARENT 16 15 2 22
ROOT
ATOM      1  O   UNL     1      -6.691 -44.512  32.574  1.00  0.00    -0.410 OA
ENDROOT
BRANCH   1   2
ATOM      2  C   UNL     1      -7.765 -44.871  31.752  1.00  0.00     0.133 A 
ATOM      3  C   UNL     1     -12.507 -43.785  31.416  1.00  0.00     0.265 C 
ATOM      4  N   UNL     1     -12.762 -44.781  30.319  1.00  0.00    -0.317 N 
ATOM      5  C   UNL     1     -11.633 -42.727  30.771  1.00  0.00     0.081 C 
ATOM      6  C   UNL     1     -11.692 -44.631  29.288  1.00  0.00     0.296 C 
ATOM      7  C   UNL     1     -10.756 -43.513  29.802  1.00  0.00     0.072 C 
ATOM      8  N   UNL     1     -11.046 -45.934  29.396  1.00  0.00    -0.325 N 
ATOM      9  C   UNL     1      -9.681 -44.328  30.455  1.00  0.00    -0.007 A 
ATOM     10  C   UNL     1      -9.868 -45.683  30.153  1.00  0.00     0.045 A 
ATOM     11  C   UNL     1      -8.622 -43.898  31.237  1.00  0.00     0.054 A 
ATOM     12  C   UNL     1      -8.981 -46.638  30.629  1.00  0.00     0.030 A 
ATOM     13  C   UNL     1      -7.917 -46.226  31.436  1.00  0.00     0.049 A 
ATOM     14  C   UNL     1     -14.144 -44.812  29.788  1.00  0.00     0.334 C 
ATOM     15  H   UNL     1     -12.525 -45.717  30.676  1.00  0.00     0.349 HD
ATOM     16  C   UNL     1     -10.192 -42.650  28.677  1.00  0.00     0.025 C 
ATOM     17  C   UNL     1     -10.746 -46.618  28.136  1.00  0.00     0.150 C 
ENDBRANCH   1   2
BRANCH   1  18
ATOM     18  C   UNL     1      -6.878 -43.330  33.279  1.00  0.00     0.412 C 
ATOM     19  N   UNL     1      -8.138 -43.315  33.809  1.00  0.00    -0.324 N 
ATOM     20  O   UNL     1      -6.054 -42.435  33.409  1.00  0.00    -0.224 OA
ATOM     21  C   UNL     1      -8.672 -42.162  34.482  1.00  0.00     0.146 C 
ATOM     22  H   UNL     1      -8.758 -44.061  33.523  1.00  0.00     0.166 HD
ENDBRANCH   1  18
TORSDOF 2
ENDMDL
MODEL 8
REMARK VINA RESULT:    -7.059      3.743      6.505
REMARK INTER + INTRA:          -8.072
REMARK INTER:                  -8.142
REMARK INTRA:                   0.070
REMARK UNBOUND:                -0.188
REMARK SMILES CNC(=O)Oc1ccc2c(c1)[C@]1(C)CC[N@@H+](C)[C@@H]1N2C
REMARK SMILES IDX 5 1 6 2 15 3 16 4 14 5 18 6 12 7 19 8 10 9 9 10 11 11 8 12
REMARK SMILES IDX 7 13 17 14 13 16 20 17 3 18 2 19 4 20 1 21
REMARK H PARENT 16 15 2 22
ROOT
ATOM      1  O   UNL     1      -8.371 -45.462  31.903  1.00  0.00    -0.410 OA
ENDROOT
BRANCH   1   2
ATOM      2  C   UNL     1      -9.688 -44.989  31.890  1.00  0.00     0.133 A 
ATOM      3  C   UNL     1     -13.431 -44.965  28.764  1.00  0.00     0.265 C 
ATOM      4  N   UNL     1     -14.297 -44.115  29.650  1.00  0.00    -0.317 N 
ATOM      5  C   UNL     1     -13.312 -46.284  29.503  1.00  0.00     0.081 C 
ATOM      6  C   UNL     1     -14.239 -44.666  31.037  1.00  0.00     0.296 C 
ATOM      7  C   UNL     1     -13.287 -45.882  30.974  1.00  0.00     0.072 C 
ATOM      8  N   UNL     1     -13.606 -43.551  31.731  1.00  0.00    -0.325 N 
ATOM      9  C   UNL     1     -12.003 -45.255  31.427  1.00  0.00    -0.007 A 
ATOM     10  C   UNL     1     -12.251 -43.955  31.887  1.00  0.00     0.045 A 
ATOM     11  C   UNL     1     -10.730 -45.799  31.438  1.00  0.00     0.054 A 
ATOM     12  C   UNL     1     -11.215 -43.175  32.381  1.00  0.00     0.030 A 
ATOM     13  C   UNL     1      -9.920 -43.700  32.384  1.00  0.00     0.049 A 
ATOM     14  C   UNL     1     -15.661 -43.840  29.142  1.00  0.00     0.334 C 
ATOM     15  H   UNL     1     -13.815 -43.218  29.803  1.00  0.00     0.349 HD
ATOM     16  C   UNL     1     -13.709 -47.014  31.907  1.00  0.00     0.025 C 
ATOM     17  C   UNL     1     -14.205 -43.156  33.008  1.00  0.00     0.150 C 
ENDBRANCH   1   2
BRANCH   1  18
ATOM     18  C   UNL     1      -7.408 -44.483  31.697  1.00  0.00     0.412 C 
ATOM     19  N   UNL     1      -6.888 -44.100  32.902  1.00  0.00    -0.324 N 
ATOM     20  O   UNL     1      -7.073 -44.025  30.613  1.00  0.00    -0.224 OA
ATOM     21  C   UNL     1      -5.962 -43.006  33.024  1.00  0.00     0.146 C 
ATOM     22  H   UNL     1      -7.340 -44.468  33.728  1.00  0.00     0.166 HD
ENDBRANCH   1  18
TORSDOF 2
ENDMDL
MODEL 9
REMARK VINA RESULT:    -7.036      3.558      6.465
REMARK INTER + INTRA:          -8.046
REMARK INTER:                  -9.169
REMARK INTRA:                   1.122
REMARK UNBOUND:                -0.188
REMARK SMILES CNC(=O)Oc1ccc2c(c1)[C@]1(C)CC[N@@H+](C)[C@@H]1N2C
REMARK SMILES IDX 5 1 6 2 15 3 16 4 14 5 18 6 12 7 19 8 10 9 9 10 11 11 8 12
REMARK SMILES IDX 7 13 17 14 13 16 20 17 3 18 2 19 4 20 1 21
REMARK H PARENT 16 15 2 22
ROOT
ATOM      1  O   UNL     1      -8.823 -42.791  33.307  1.00  0.00    -0.410 OA
ENDROOT
BRANCH   1   2
ATOM      2  C   UNL     1      -9.845 -43.185  32.435  1.00  0.00     0.133 A 
ATOM      3  C   UNL     1     -11.062 -42.387  27.782  1.00  0.00     0.265 C 
ATOM      4  N   UNL     1     -12.359 -43.140  27.885  1.00  0.00    -0.317 N 
ATOM      5  C   UNL     1      -9.993 -43.454  27.917  1.00  0.00     0.081 C 
ATOM      6  C   UNL     1     -12.096 -44.438  28.574  1.00  0.00     0.296 C 
ATOM      7  C   UNL     1     -10.587 -44.449  28.907  1.00  0.00     0.072 C 
ATOM      8  N   UNL     1     -12.890 -44.252  29.783  1.00  0.00    -0.325 N 
ATOM      9  C   UNL     1     -10.612 -43.973  30.329  1.00  0.00    -0.007 A 
ATOM     10  C   UNL     1     -11.935 -43.926  30.786  1.00  0.00     0.045 A 
ATOM     11  C   UNL     1      -9.549 -43.626  31.145  1.00  0.00     0.054 A 
ATOM     12  C   UNL     1     -12.216 -43.535  32.088  1.00  0.00     0.030 A 
ATOM     13  C   UNL     1     -11.157 -43.162  32.921  1.00  0.00     0.049 A 
ATOM     14  C   UNL     1     -13.143 -43.242  26.633  1.00  0.00     0.334 C 
ATOM     15  H   UNL     1     -12.938 -42.681  28.601  1.00  0.00     0.349 HD
ATOM     16  C   UNL     1      -9.966 -45.839  28.799  1.00  0.00     0.025 C 
ATOM     17  C   UNL     1     -13.736 -45.379  30.185  1.00  0.00     0.150 C 
ENDBRANCH   1   2
BRANCH   1  18
ATOM     18  C   UNL     1      -7.582 -43.346  33.023  1.00  0.00     0.412 C 
ATOM     19  N   UNL     1      -7.757 -44.564  32.428  1.00  0.00    -0.324 N 
ATOM     20  O   UNL     1      -6.496 -42.836  33.266  1.00  0.00    -0.224 OA
ATOM     21  C   UNL     1      -6.654 -45.440  32.136  1.00  0.00     0.146 C 
ATOM     22  H   UNL     1      -8.703 -44.921  32.398  1.00  0.00     0.166 HD
ENDBRANCH   1  18
TORSDOF 2
ENDMDL
