MODEL 1
REMARK VINA RESULT:   -10.179      0.000      0.000
REMARK INTER + INTRA:         -19.520
REMARK INTER:                 -17.320
REMARK INTRA:                  -2.200
REMARK UNBOUND:                -2.200
REMARK SMILES CC[N@@H+](CCCCCCNC1=CC(=O)c2ccccc2C1=O)Cc1ccccc1OC
REMARK SMILES IDX 5 1 4 2 3 3 2 5 1 6 23 7 24 8 25 9 29 10 26 11 28 12 27 13
REMARK SMILES IDX 30 14 31 15 6 16 7 17 8 18 9 19 10 20 11 22 12 23 21 24
REMARK SMILES IDX 13 25 20 26 15 27 19 28 16 29 18 30 17 31 22 32 14 33
REMARK H PARENT 3 4 10 21
ROOT
ATOM      1  C   UNL     1      -8.519 -42.941  29.051  1.00  0.00     0.061 C 
ENDROOT
BRANCH   1   2
ATOM      2  C   UNL     1      -8.112 -43.567  30.385  1.00  0.00     0.262 C 
BRANCH   2   3
ATOM      3  N   UNL     1      -9.336 -43.898  31.220  1.00  0.00    -0.331 N 
ATOM      4  H   UNL     1     -10.160 -43.445  30.810  1.00  0.00     0.348 HD
BRANCH   3   5
ATOM      5  C   UNL     1      -9.249 -43.384  32.646  1.00  0.00     0.259 C 
ATOM      6  C   UNL     1      -7.800 -43.275  33.089  1.00  0.00     0.071 C 
ENDBRANCH   3   5
BRANCH   3   7
ATOM      7  C   UNL     1      -9.642 -45.392  31.179  1.00  0.00     0.302 C 
BRANCH   7   8
ATOM      8  C   UNL     1     -10.688 -45.772  30.163  1.00  0.00     0.048 A 
ATOM      9  C   UNL     1     -10.286 -46.264  28.908  1.00  0.00     0.013 A 
ATOM     10  C   UNL     1     -12.061 -45.637  30.445  1.00  0.00     0.127 A 
ATOM     11  C   UNL     1     -11.235 -46.614  27.949  1.00  0.00     0.001 A 
ATOM     12  C   UNL     1     -13.003 -45.987  29.474  1.00  0.00     0.047 A 
ATOM     13  C   UNL     1     -12.590 -46.473  28.233  1.00  0.00     0.004 A 
BRANCH  10  14
ATOM     14  O   UNL     1     -12.366 -45.129  31.682  1.00  0.00    -0.496 OA
ATOM     15  C   UNL     1     -13.673 -45.400  32.187  1.00  0.00     0.278 C 
ENDBRANCH  10  14
ENDBRANCH   7   8
ENDBRANCH   3   7
ENDBRANCH   2   3
ENDBRANCH   1   2
BRANCH   1  16
ATOM     16  C   UNL     1      -9.982 -42.486  29.016  1.00  0.00     0.006 C 
BRANCH  16  17
ATOM     17  C   UNL     1     -10.646 -42.859  27.688  1.00  0.00     0.002 C 
BRANCH  17  18
ATOM     18  C   UNL     1     -12.147 -42.556  27.657  1.00  0.00     0.021 C 
BRANCH  18  19
ATOM     19  C   UNL     1     -12.911 -43.361  26.605  1.00  0.00     0.113 C 
BRANCH  19  20
ATOM     20  N   UNL     1     -14.288 -43.547  27.012  1.00  0.00    -0.382 N 
ATOM     21  H   UNL     1     -14.457 -43.509  28.024  1.00  0.00     0.160 HD
BRANCH  20  22
ATOM     22  C   UNL     1     -15.430 -43.149  26.322  1.00  0.00     0.087 C 
ATOM     23  C   UNL     1     -15.591 -43.146  24.995  1.00  0.00     0.082 C 
ATOM     24  C   UNL     1     -16.565 -42.685  27.199  1.00  0.00     0.209 C 
ATOM     25  C   UNL     1     -16.834 -42.716  24.330  1.00  0.00     0.188 C 
ATOM     26  C   UNL     1     -17.841 -42.308  26.563  1.00  0.00     0.035 A 
ATOM     27  C   UNL     1     -17.971 -42.322  25.177  1.00  0.00     0.033 A 
ATOM     28  C   UNL     1     -18.927 -41.928  27.363  1.00  0.00     0.013 A 
ATOM     29  C   UNL     1     -19.185 -41.954  24.582  1.00  0.00     0.013 A 
ATOM     30  C   UNL     1     -20.137 -41.563  26.770  1.00  0.00     0.001 A 
ATOM     31  C   UNL     1     -20.266 -41.576  25.380  1.00  0.00     0.001 A 
ATOM     32  O   UNL     1     -16.408 -42.610  28.416  1.00  0.00    -0.287 OA
ATOM     33  O   UNL     1     -16.900 -42.695  23.107  1.00  0.00    -0.289 OA
ENDBRANCH  20  22
ENDBRANCH  19  20
ENDBRANCH  18  19
ENDBRANCH  17  18
ENDBRANCH  16  17
ENDBRANCH   1  16
TORSDOF 12
ENDMDL
MODEL 2
REMARK VINA RESULT:   -10.093      1.051      3.222
REMARK INTER + INTRA:         -19.374
REMARK INTER:                 -17.459
REMARK INTRA:                  -1.916
REMARK UNBOUND:                -2.200
REMARK SMILES CC[N@@H+](CCCCCCNC1=CC(=O)c2ccccc2C1=O)Cc1ccccc1OC
REMARK SMILES IDX 5 1 4 2 3 3 2 5 1 6 23 7 24 8 25 9 29 10 26 11 28 12 27 13
REMARK SMILES IDX 30 14 31 15 6 16 7 17 8 18 9 19 10 20 11 22 12 23 21 24
REMARK SMILES IDX 13 25 20 26 15 27 19 28 16 29 18 30 17 31 22 32 14 33
REMARK H PARENT 3 4 10 21
ROOT
ATOM      1  C   UNL     1     -11.833 -46.503  28.174  1.00  0.00     0.061 C 
ENDROOT
BRANCH   1   2
ATOM      2  C   UNL     1     -10.362 -46.306  28.542  1.00  0.00     0.262 C 
BRANCH   2   3
ATOM      3  N   UNL     1     -10.205 -45.185  29.554  1.00  0.00    -0.331 N 
ATOM      4  H   UNL     1     -11.133 -44.874  29.862  1.00  0.00     0.348 HD
BRANCH   3   5
ATOM      5  C   UNL     1      -9.525 -43.952  28.985  1.00  0.00     0.259 C 
ATOM      6  C   UNL     1     -10.520 -42.815  28.828  1.00  0.00     0.071 C 
ENDBRANCH   3   5
BRANCH   3   7
ATOM      7  C   UNL     1      -9.510 -45.678  30.817  1.00  0.00     0.302 C 
BRANCH   7   8
ATOM      8  C   UNL     1      -9.261 -44.596  31.837  1.00  0.00     0.048 A 
ATOM      9  C   UNL     1      -7.938 -44.246  32.165  1.00  0.00     0.013 A 
ATOM     10  C   UNL     1     -10.329 -43.932  32.472  1.00  0.00     0.127 A 
ATOM     11  C   UNL     1      -7.683 -43.255  33.111  1.00  0.00     0.001 A 
ATOM     12  C   UNL     1     -10.060 -42.943  33.422  1.00  0.00     0.047 A 
ATOM     13  C   UNL     1      -8.743 -42.607  33.738  1.00  0.00     0.004 A 
BRANCH  10  14
ATOM     14  O   UNL     1     -11.584 -44.349  32.112  1.00  0.00    -0.496 OA
ATOM     15  C   UNL     1     -12.621 -43.367  32.131  1.00  0.00     0.278 C 
ENDBRANCH  10  14
ENDBRANCH   7   8
ENDBRANCH   3   7
ENDBRANCH   2   3
ENDBRANCH   1   2
BRANCH   1  16
ATOM     16  C   UNL     1     -12.800 -45.998  29.250  1.00  0.00     0.006 C 
BRANCH  16  17
ATOM     17  C   UNL     1     -13.814 -45.012  28.665  1.00  0.00     0.002 C 
BRANCH  17  18
ATOM     18  C   UNL     1     -13.783 -44.949  27.135  1.00  0.00     0.021 C 
BRANCH  18  19
ATOM     19  C   UNL     1     -13.224 -43.634  26.590  1.00  0.00     0.113 C 
BRANCH  19  20
ATOM     20  N   UNL     1     -14.203 -42.575  26.727  1.00  0.00    -0.382 N 
ATOM     21  H   UNL     1     -13.816 -41.633  26.857  1.00  0.00     0.160 HD
BRANCH  20  22
ATOM     22  C   UNL     1     -15.451 -42.499  26.115  1.00  0.00     0.087 C 
ATOM     23  C   UNL     1     -15.687 -42.500  24.799  1.00  0.00     0.082 C 
ATOM     24  C   UNL     1     -16.615 -42.408  27.068  1.00  0.00     0.209 C 
ATOM     25  C   UNL     1     -17.040 -42.424  24.219  1.00  0.00     0.188 C 
ATOM     26  C   UNL     1     -17.982 -42.393  26.516  1.00  0.00     0.035 A 
ATOM     27  C   UNL     1     -18.188 -42.399  25.139  1.00  0.00     0.033 A 
ATOM     28  C   UNL     1     -19.080 -42.366  27.387  1.00  0.00     0.013 A 
ATOM     29  C   UNL     1     -19.491 -42.377  24.624  1.00  0.00     0.013 A 
ATOM     30  C   UNL     1     -20.378 -42.344  26.873  1.00  0.00     0.001 A 
ATOM     31  C   UNL     1     -20.583 -42.350  25.493  1.00  0.00     0.001 A 
ATOM     32  O   UNL     1     -16.410 -42.330  28.278  1.00  0.00    -0.287 OA
ATOM     33  O   UNL     1     -17.185 -42.384  23.003  1.00  0.00    -0.289 OA
ENDBRANCH  20  22
ENDBRANCH  19  20
ENDBRANCH  18  19
ENDBRANCH  17  18
ENDBRANCH  16  17
ENDBRANCH   1  16
TORSDOF 12
ENDMDL
MODEL 3
REMARK VINA RESULT:   -10.055      1.628      3.456
REMARK INTER + INTRA:         -19.309
REMARK INTER:                 -17.205
REMARK INTRA:                  -2.104
REMARK UNBOUND:                -2.200
REMARK SMILES CC[N@@H+](CCCCCCNC1=CC(=O)c2ccccc2C1=O)Cc1ccccc1OC
REMARK SMILES IDX 5 1 4 2 3 3 2 5 1 6 23 7 24 8 25 9 29 10 26 11 28 12 27 13
REMARK SMILES IDX 30 14 31 15 6 16 7 17 8 18 9 19 10 20 11 22 12 23 21 24
REMARK SMILES IDX 13 25 20 26 15 27 19 28 16 29 18 30 17 31 22 32 14 33
REMARK H PARENT 3 4 10 21
ROOT
ATOM      1  C   UNL     1     -13.454 -45.675  31.595  1.00  0.00     0.061 C 
ENDROOT
BRANCH   1   2
ATOM      2  C   UNL     1     -13.846 -44.197  31.639  1.00  0.00     0.262 C 
BRANCH   2   3
ATOM      3  N   UNL     1     -13.016 -43.451  32.668  1.00  0.00    -0.331 N 
ATOM      4  H   UNL     1     -12.517 -44.126  33.257  1.00  0.00     0.348 HD
BRANCH   3   5
ATOM      5  C   UNL     1     -13.852 -42.612  33.620  1.00  0.00     0.259 C 
ATOM      6  C   UNL     1     -15.076 -42.057  32.911  1.00  0.00     0.071 C 
ENDBRANCH   3   5
BRANCH   3   7
ATOM      7  C   UNL     1     -11.925 -42.622  31.999  1.00  0.00     0.302 C 
BRANCH   7   8
ATOM      8  C   UNL     1     -10.803 -43.447  31.422  1.00  0.00     0.048 A 
ATOM      9  C   UNL     1     -10.103 -44.340  32.253  1.00  0.00     0.013 A 
ATOM     10  C   UNL     1     -10.438 -43.334  30.066  1.00  0.00     0.127 A 
ATOM     11  C   UNL     1      -9.056 -45.107  31.744  1.00  0.00     0.001 A 
ATOM     12  C   UNL     1      -9.384 -44.104  29.569  1.00  0.00     0.047 A 
ATOM     13  C   UNL     1      -8.697 -44.986  30.405  1.00  0.00     0.004 A 
BRANCH  10  14
ATOM     14  O   UNL     1     -11.155 -42.424  29.332  1.00  0.00    -0.496 OA
ATOM     15  C   UNL     1     -10.654 -42.103  28.035  1.00  0.00     0.278 C 
ENDBRANCH  10  14
ENDBRANCH   7   8
ENDBRANCH   3   7
ENDBRANCH   2   3
ENDBRANCH   1   2
BRANCH   1  16
ATOM     16  C   UNL     1     -12.881 -46.111  30.243  1.00  0.00     0.006 C 
BRANCH  16  17
ATOM     17  C   UNL     1     -13.502 -45.311  29.094  1.00  0.00     0.002 C 
BRANCH  17  18
ATOM     18  C   UNL     1     -12.645 -45.313  27.825  1.00  0.00     0.021 C 
BRANCH  18  19
ATOM     19  C   UNL     1     -13.238 -44.480  26.688  1.00  0.00     0.113 C 
BRANCH  19  20
ATOM     20  N   UNL     1     -14.289 -43.618  27.188  1.00  0.00    -0.382 N 
ATOM     21  H   UNL     1     -13.987 -42.896  27.852  1.00  0.00     0.160 HD
BRANCH  20  22
ATOM     22  C   UNL     1     -15.425 -43.193  26.504  1.00  0.00     0.087 C 
ATOM     23  C   UNL     1     -15.584 -43.166  25.177  1.00  0.00     0.082 C 
ATOM     24  C   UNL     1     -16.554 -42.728  27.388  1.00  0.00     0.209 C 
ATOM     25  C   UNL     1     -16.821 -42.708  24.519  1.00  0.00     0.188 C 
ATOM     26  C   UNL     1     -17.824 -42.324  26.758  1.00  0.00     0.035 A 
ATOM     27  C   UNL     1     -17.954 -42.312  25.371  1.00  0.00     0.033 A 
ATOM     28  C   UNL     1     -18.906 -41.942  27.564  1.00  0.00     0.013 A 
ATOM     29  C   UNL     1     -19.162 -41.918  24.782  1.00  0.00     0.013 A 
ATOM     30  C   UNL     1     -20.110 -41.551  26.975  1.00  0.00     0.001 A 
ATOM     31  C   UNL     1     -20.238 -41.539  25.586  1.00  0.00     0.001 A 
ATOM     32  O   UNL     1     -16.397 -42.676  28.606  1.00  0.00    -0.287 OA
ATOM     33  O   UNL     1     -16.886 -42.666  23.297  1.00  0.00    -0.289 OA
ENDBRANCH  20  22
ENDBRANCH  19  20
ENDBRANCH  18  19
ENDBRANCH  17  18
ENDBRANCH  16  17
ENDBRANCH   1  16
TORSDOF 12
ENDMDL
MODEL 4
REMARK VINA RESULT:   -10.048      1.397      2.814
REMARK INTER + INTRA:         -19.296
REMARK INTER:                 -17.912
REMARK INTRA:                  -1.385
REMARK UNBOUND:                -2.200
REMARK SMILES CC[N@@H+](CCCCCCNC1=CC(=O)c2ccccc2C1=O)Cc1ccccc1OC
REMARK SMILES IDX 5 1 4 2 3 3 2 5 1 6 23 7 24 8 25 9 29 10 26 11 28 12 27 13
REMARK SMILES IDX 30 14 31 15 6 16 7 17 8 18 9 19 10 20 11 22 12 23 21 24
REMARK SMILES IDX 13 25 20 26 15 27 19 28 16 29 18 30 17 31 22 32 14 33
REMARK H PARENT 3 4 10 21
ROOT
ATOM      1  C   UNL     1      -9.920 -46.537  29.153  1.00  0.00     0.061 C 
ENDROOT
BRANCH   1   2
ATOM      2  C   UNL     1      -9.017 -45.740  30.095  1.00  0.00     0.262 C 
BRANCH   2   3
ATOM      3  N   UNL     1      -9.631 -44.388  30.413  1.00  0.00    -0.331 N 
ATOM      4  H   UNL     1     -10.508 -44.283  29.893  1.00  0.00     0.348 HD
BRANCH   3   5
ATOM      5  C   UNL     1      -8.759 -43.218  29.992  1.00  0.00     0.259 C 
ATOM      6  C   UNL     1      -9.018 -42.851  28.541  1.00  0.00     0.071 C 
ENDBRANCH   3   5
BRANCH   3   7
ATOM      7  C   UNL     1     -10.025 -44.295  31.883  1.00  0.00     0.302 C 
BRANCH   7   8
ATOM      8  C   UNL     1     -11.498 -44.069  32.105  1.00  0.00     0.048 A 
ATOM      9  C   UNL     1     -12.416 -45.064  31.718  1.00  0.00     0.013 A 
ATOM     10  C   UNL     1     -11.974 -42.879  32.687  1.00  0.00     0.127 A 
ATOM     11  C   UNL     1     -13.784 -44.874  31.906  1.00  0.00     0.001 A 
ATOM     12  C   UNL     1     -13.348 -42.699  32.865  1.00  0.00     0.047 A 
ATOM     13  C   UNL     1     -14.247 -43.693  32.476  1.00  0.00     0.004 A 
BRANCH  10  14
ATOM     14  O   UNL     1     -11.017 -41.953  33.013  1.00  0.00    -0.496 OA
ATOM     15  C   UNL     1     -10.574 -41.932  34.370  1.00  0.00     0.278 C 
ENDBRANCH  10  14
ENDBRANCH   7   8
ENDBRANCH   3   7
ENDBRANCH   2   3
ENDBRANCH   1   2
BRANCH   1  16
ATOM     16  C   UNL     1     -10.980 -45.677  28.457  1.00  0.00     0.006 C 
BRANCH  16  17
ATOM     17  C   UNL     1     -12.097 -46.543  27.870  1.00  0.00     0.002 C 
BRANCH  17  18
ATOM     18  C   UNL     1     -13.194 -45.727  27.179  1.00  0.00     0.021 C 
BRANCH  18  19
ATOM     19  C   UNL     1     -12.991 -44.215  27.290  1.00  0.00     0.113 C 
BRANCH  19  20
ATOM     20  N   UNL     1     -14.233 -43.564  27.651  1.00  0.00    -0.382 N 
ATOM     21  H   UNL     1     -14.171 -42.897  28.429  1.00  0.00     0.160 HD
BRANCH  20  22
ATOM     22  C   UNL     1     -15.274 -43.206  26.798  1.00  0.00     0.087 C 
ATOM     23  C   UNL     1     -15.255 -43.259  25.462  1.00  0.00     0.082 C 
ATOM     24  C   UNL     1     -16.519 -42.718  27.495  1.00  0.00     0.209 C 
ATOM     25  C   UNL     1     -16.400 -42.870  24.620  1.00  0.00     0.188 C 
ATOM     26  C   UNL     1     -17.699 -42.381  26.679  1.00  0.00     0.035 A 
ATOM     27  C   UNL     1     -17.642 -42.452  25.289  1.00  0.00     0.033 A 
ATOM     28  C   UNL     1     -18.885 -41.979  27.309  1.00  0.00     0.013 A 
ATOM     29  C   UNL     1     -18.767 -42.122  24.522  1.00  0.00     0.013 A 
ATOM     30  C   UNL     1     -20.005 -41.651  26.544  1.00  0.00     0.001 A 
ATOM     31  C   UNL     1     -19.947 -41.723  25.152  1.00  0.00     0.001 A 
ATOM     32  O   UNL     1     -16.526 -42.592  28.717  1.00  0.00    -0.287 OA
ATOM     33  O   UNL     1     -16.301 -42.900  23.399  1.00  0.00    -0.289 OA
ENDBRANCH  20  22
ENDBRANCH  19  20
ENDBRANCH  18  19
ENDBRANCH  17  18
ENDBRANCH  16  17
ENDBRANCH   1  16
TORSDOF 12
ENDMDL
MODEL 5
REMARK VINA RESULT:    -9.833      1.287      3.782
REMARK INTER + INTRA:         -18.932
REMARK INTER:                 -17.319
REMARK INTRA:                  -1.613
REMARK UNBOUND:                -2.200
REMARK SMILES CC[N@@H+](CCCCCCNC1=CC(=O)c2ccccc2C1=O)Cc1ccccc1OC
REMARK SMILES IDX 5 1 4 2 3 3 2 5 1 6 23 7 24 8 25 9 29 10 26 11 28 12 27 13
REMARK SMILES IDX 30 14 31 15 6 16 7 17 8 18 9 19 10 20 11 22 12 23 21 24
REMARK SMILES IDX 13 25 20 26 15 27 19 28 16 29 18 30 17 31 22 32 14 33
REMARK H PARENT 3 4 10 21
ROOT
ATOM      1  C   UNL     1     -10.833 -46.509  29.157  1.00  0.00     0.061 C 
ENDROOT
BRANCH   1   2
ATOM      2  C   UNL     1      -9.861 -45.405  28.742  1.00  0.00     0.262 C 
BRANCH   2   3
ATOM      3  N   UNL     1      -9.873 -44.269  29.750  1.00  0.00    -0.331 N 
ATOM      4  H   UNL     1     -10.844 -44.032  29.982  1.00  0.00     0.348 HD
BRANCH   3   5
ATOM      5  C   UNL     1      -9.251 -42.989  29.221  1.00  0.00     0.259 C 
ATOM      6  C   UNL     1     -10.243 -42.228  28.358  1.00  0.00     0.071 C 
ENDBRANCH   3   5
BRANCH   3   7
ATOM      7  C   UNL     1      -9.241 -44.698  31.069  1.00  0.00     0.302 C 
BRANCH   7   8
ATOM      8  C   UNL     1      -9.538 -43.768  32.217  1.00  0.00     0.048 A 
ATOM      9  C   UNL     1      -8.474 -43.229  32.964  1.00  0.00     0.013 A 
ATOM     10  C   UNL     1     -10.862 -43.434  32.562  1.00  0.00     0.127 A 
ATOM     11  C   UNL     1      -8.725 -42.373  34.035  1.00  0.00     0.001 A 
ATOM     12  C   UNL     1     -11.101 -42.579  33.641  1.00  0.00     0.047 A 
ATOM     13  C   UNL     1     -10.035 -42.052  34.373  1.00  0.00     0.004 A 
BRANCH  10  14
ATOM     14  O   UNL     1     -11.840 -44.021  31.799  1.00  0.00    -0.496 OA
ATOM     15  C   UNL     1     -13.193 -43.754  32.167  1.00  0.00     0.278 C 
ENDBRANCH  10  14
ENDBRANCH   7   8
ENDBRANCH   3   7
ENDBRANCH   2   3
ENDBRANCH   1   2
BRANCH   1  16
ATOM     16  C   UNL     1     -12.300 -46.156  28.894  1.00  0.00     0.006 C 
BRANCH  16  17
ATOM     17  C   UNL     1     -12.667 -46.374  27.423  1.00  0.00     0.002 C 
BRANCH  17  18
ATOM     18  C   UNL     1     -13.578 -45.279  26.859  1.00  0.00     0.021 C 
BRANCH  18  19
ATOM     19  C   UNL     1     -13.236 -43.879  27.369  1.00  0.00     0.113 C 
BRANCH  19  20
ATOM     20  N   UNL     1     -13.884 -42.872  26.553  1.00  0.00    -0.382 N 
ATOM     21  H   UNL     1     -13.352 -42.562  25.733  1.00  0.00     0.160 HD
BRANCH  20  22
ATOM     22  C   UNL     1     -15.249 -42.730  26.319  1.00  0.00     0.087 C 
ATOM     23  C   UNL     1     -16.205 -42.638  27.249  1.00  0.00     0.082 C 
ATOM     24  C   UNL     1     -15.636 -42.683  24.863  1.00  0.00     0.209 C 
ATOM     25  C   UNL     1     -17.635 -42.482  26.928  1.00  0.00     0.188 C 
ATOM     26  C   UNL     1     -17.052 -42.465  24.514  1.00  0.00     0.035 A 
ATOM     27  C   UNL     1     -18.019 -42.370  25.512  1.00  0.00     0.033 A 
ATOM     28  C   UNL     1     -17.425 -42.362  23.167  1.00  0.00     0.013 A 
ATOM     29  C   UNL     1     -19.363 -42.172  25.170  1.00  0.00     0.013 A 
ATOM     30  C   UNL     1     -18.765 -42.163  22.828  1.00  0.00     0.001 A 
ATOM     31  C   UNL     1     -19.733 -42.068  23.828  1.00  0.00     0.001 A 
ATOM     32  O   UNL     1     -14.779 -42.842  23.997  1.00  0.00    -0.287 OA
ATOM     33  O   UNL     1     -18.465 -42.448  27.828  1.00  0.00    -0.289 OA
ENDBRANCH  20  22
ENDBRANCH  19  20
ENDBRANCH  18  19
ENDBRANCH  17  18
ENDBRANCH  16  17
ENDBRANCH   1  16
TORSDOF 12
ENDMDL
MODEL 6
REMARK VINA RESULT:    -9.712      1.509      3.924
REMARK INTER + INTRA:         -18.725
REMARK INTER:                 -17.315
REMARK INTRA:                  -1.410
REMARK UNBOUND:                -2.200
REMARK SMILES CC[N@@H+](CCCCCCNC1=CC(=O)c2ccccc2C1=O)Cc1ccccc1OC
REMARK SMILES IDX 5 1 4 2 3 3 2 5 1 6 23 7 24 8 25 9 29 10 26 11 28 12 27 13
REMARK SMILES IDX 30 14 31 15 6 16 7 17 8 18 9 19 10 20 11 22 12 23 21 24
REMARK SMILES IDX 13 25 20 26 15 27 19 28 16 29 18 30 17 31 22 32 14 33
REMARK H PARENT 3 4 10 21
ROOT
ATOM      1  C   UNL     1     -12.750 -45.981  29.846  1.00  0.00     0.061 C 
ENDROOT
BRANCH   1   2
ATOM      2  C   UNL     1     -12.083 -46.022  31.221  1.00  0.00     0.262 C 
BRANCH   2   3
ATOM      3  N   UNL     1     -12.296 -44.714  31.962  1.00  0.00    -0.331 N 
ATOM      4  H   UNL     1     -11.856 -44.772  32.887  1.00  0.00     0.348 HD
BRANCH   3   5
ATOM      5  C   UNL     1     -13.760 -44.401  32.220  1.00  0.00     0.259 C 
ATOM      6  C   UNL     1     -13.928 -42.960  32.669  1.00  0.00     0.071 C 
ENDBRANCH   3   5
BRANCH   3   7
ATOM      7  C   UNL     1     -11.591 -43.561  31.257  1.00  0.00     0.302 C 
BRANCH   7   8
ATOM      8  C   UNL     1     -10.105 -43.513  31.505  1.00  0.00     0.048 A 
ATOM      9  C   UNL     1      -9.219 -43.818  30.455  1.00  0.00     0.013 A 
ATOM     10  C   UNL     1      -9.587 -43.176  32.770  1.00  0.00     0.127 A 
ATOM     11  C   UNL     1      -7.841 -43.789  30.663  1.00  0.00     0.001 A 
ATOM     12  C   UNL     1      -8.204 -43.155  32.967  1.00  0.00     0.047 A 
ATOM     13  C   UNL     1      -7.336 -43.460  31.917  1.00  0.00     0.004 A 
BRANCH  10  14
ATOM     14  O   UNL     1     -10.518 -42.917  33.743  1.00  0.00    -0.496 OA
ATOM     15  C   UNL     1     -10.433 -41.651  34.397  1.00  0.00     0.278 C 
ENDBRANCH  10  14
ENDBRANCH   7   8
ENDBRANCH   3   7
ENDBRANCH   2   3
ENDBRANCH   1   2
BRANCH   1  16
ATOM     16  C   UNL     1     -11.779 -46.255  28.693  1.00  0.00     0.006 C 
BRANCH  16  17
ATOM     17  C   UNL     1     -12.513 -46.296  27.349  1.00  0.00     0.002 C 
BRANCH  17  18
ATOM     18  C   UNL     1     -13.604 -45.228  27.223  1.00  0.00     0.021 C 
BRANCH  18  19
ATOM     19  C   UNL     1     -13.056 -43.827  26.950  1.00  0.00     0.113 C 
BRANCH  19  20
ATOM     20  N   UNL     1     -13.836 -43.171  25.921  1.00  0.00    -0.382 N 
ATOM     21  H   UNL     1     -13.520 -43.333  24.958  1.00  0.00     0.160 HD
BRANCH  20  22
ATOM     22  C   UNL     1     -15.205 -42.918  25.938  1.00  0.00     0.087 C 
ATOM     23  C   UNL     1     -15.972 -42.791  27.025  1.00  0.00     0.082 C 
ATOM     24  C   UNL     1     -15.837 -42.782  24.576  1.00  0.00     0.209 C 
ATOM     25  C   UNL     1     -17.419 -42.514  26.969  1.00  0.00     0.188 C 
ATOM     26  C   UNL     1     -17.269 -42.444  24.491  1.00  0.00     0.035 A 
ATOM     27  C   UNL     1     -18.035 -42.317  25.647  1.00  0.00     0.033 A 
ATOM     28  C   UNL     1     -17.864 -42.258  23.235  1.00  0.00     0.013 A 
ATOM     29  C   UNL     1     -19.398 -42.004  25.555  1.00  0.00     0.013 A 
ATOM     30  C   UNL     1     -19.221 -41.945  23.145  1.00  0.00     0.001 A 
ATOM     31  C   UNL     1     -19.987 -41.818  24.305  1.00  0.00     0.001 A 
ATOM     32  O   UNL     1     -15.161 -42.970  23.566  1.00  0.00    -0.287 OA
ATOM     33  O   UNL     1     -18.073 -42.455  28.003  1.00  0.00    -0.289 OA
ENDBRANCH  20  22
ENDBRANCH  19  20
ENDBRANCH  18  19
ENDBRANCH  17  18
ENDBRANCH  16  17
ENDBRANCH   1  16
TORSDOF 12
ENDMDL
MODEL 7
REMARK VINA RESULT:    -9.569      1.432      3.545
REMARK INTER + INTRA:         -18.482
REMARK INTER:                 -17.581
REMARK INTRA:                  -0.901
REMARK UNBOUND:                -2.200
REMARK SMILES CC[N@@H+](CCCCCCNC1=CC(=O)c2ccccc2C1=O)Cc1ccccc1OC
REMARK SMILES IDX 5 1 4 2 3 3 2 5 1 6 23 7 24 8 25 9 29 10 26 11 28 12 27 13
REMARK SMILES IDX 30 14 31 15 6 16 7 17 8 18 9 19 10 20 11 22 12 23 21 24
REMARK SMILES IDX 13 25 20 26 15 27 19 28 16 29 18 30 17 31 22 32 14 33
REMARK H PARENT 3 4 10 21
ROOT
ATOM      1  C   UNL     1     -12.415 -46.153  29.764  1.00  0.00     0.061 C 
ENDROOT
BRANCH   1   2
ATOM      2  C   UNL     1     -11.676 -46.082  31.101  1.00  0.00     0.262 C 
BRANCH   2   3
ATOM      3  N   UNL     1     -11.681 -44.664  31.644  1.00  0.00    -0.331 N 
ATOM      4  H   UNL     1     -11.430 -44.680  32.638  1.00  0.00     0.348 HD
BRANCH   3   5
ATOM      5  C   UNL     1     -13.044 -43.998  31.573  1.00  0.00     0.259 C 
ATOM      6  C   UNL     1     -13.981 -44.584  32.616  1.00  0.00     0.071 C 
ENDBRANCH   3   5
BRANCH   3   7
ATOM      7  C   UNL     1     -10.605 -43.816  30.975  1.00  0.00     0.302 C 
BRANCH   7   8
ATOM      8  C   UNL     1      -9.248 -43.936  31.618  1.00  0.00     0.048 A 
ATOM      9  C   UNL     1      -8.324 -44.870  31.114  1.00  0.00     0.013 A 
ATOM     10  C   UNL     1      -8.889 -43.135  32.719  1.00  0.00     0.127 A 
ATOM     11  C   UNL     1      -7.065 -45.005  31.697  1.00  0.00     0.001 A 
ATOM     12  C   UNL     1      -7.626 -43.283  33.298  1.00  0.00     0.047 A 
ATOM     13  C   UNL     1      -6.719 -44.214  32.788  1.00  0.00     0.004 A 
BRANCH  10  14
ATOM     14  O   UNL     1      -9.854 -42.268  33.162  1.00  0.00    -0.496 OA
ATOM     15  C   UNL     1     -10.158 -42.297  34.557  1.00  0.00     0.278 C 
ENDBRANCH  10  14
ENDBRANCH   7   8
ENDBRANCH   3   7
ENDBRANCH   2   3
ENDBRANCH   1   2
BRANCH   1  16
ATOM     16  C   UNL     1     -11.477 -46.267  28.558  1.00  0.00     0.006 C 
BRANCH  16  17
ATOM     17  C   UNL     1     -12.242 -46.680  27.298  1.00  0.00     0.002 C 
BRANCH  17  18
ATOM     18  C   UNL     1     -13.381 -45.719  26.941  1.00  0.00     0.021 C 
BRANCH  18  19
ATOM     19  C   UNL     1     -13.040 -44.250  27.191  1.00  0.00     0.113 C 
BRANCH  19  20
ATOM     20  N   UNL     1     -14.229 -43.512  27.565  1.00  0.00    -0.382 N 
ATOM     21  H   UNL     1     -14.096 -42.803  28.295  1.00  0.00     0.160 HD
BRANCH  20  22
ATOM     22  C   UNL     1     -15.290 -43.153  26.739  1.00  0.00     0.087 C 
ATOM     23  C   UNL     1     -15.297 -43.184  25.402  1.00  0.00     0.082 C 
ATOM     24  C   UNL     1     -16.527 -42.691  27.467  1.00  0.00     0.209 C 
ATOM     25  C   UNL     1     -16.463 -42.795  24.588  1.00  0.00     0.188 C 
ATOM     26  C   UNL     1     -17.727 -42.355  26.680  1.00  0.00     0.035 A 
ATOM     27  C   UNL     1     -17.697 -42.403  25.288  1.00  0.00     0.033 A 
ATOM     28  C   UNL     1     -18.905 -41.978  27.340  1.00  0.00     0.013 A 
ATOM     29  C   UNL     1     -18.840 -42.074  24.549  1.00  0.00     0.013 A 
ATOM     30  C   UNL     1     -20.044 -41.651  26.602  1.00  0.00     0.001 A 
ATOM     31  C   UNL     1     -20.012 -41.699  25.208  1.00  0.00     0.001 A 
ATOM     32  O   UNL     1     -16.512 -42.585  28.691  1.00  0.00    -0.287 OA
ATOM     33  O   UNL     1     -16.388 -42.804  23.366  1.00  0.00    -0.289 OA
ENDBRANCH  20  22
ENDBRANCH  19  20
ENDBRANCH  18  19
ENDBRANCH  17  18
ENDBRANCH  16  17
ENDBRANCH   1  16
TORSDOF 12
ENDMDL
MODEL 8
REMARK VINA RESULT:    -9.207      1.762      3.625
REMARK INTER + INTRA:         -17.866
REMARK INTER:                 -16.474
REMARK INTRA:                  -1.392
REMARK UNBOUND:                -2.200
REMARK SMILES CC[N@@H+](CCCCCCNC1=CC(=O)c2ccccc2C1=O)Cc1ccccc1OC
REMARK SMILES IDX 5 1 4 2 3 3 2 5 1 6 23 7 24 8 25 9 29 10 26 11 28 12 27 13
REMARK SMILES IDX 30 14 31 15 6 16 7 17 8 18 9 19 10 20 11 22 12 23 21 24
REMARK SMILES IDX 13 25 20 26 15 27 19 28 16 29 18 30 17 31 22 32 14 33
REMARK H PARENT 3 4 10 21
ROOT
ATOM      1  C   UNL     1     -12.660 -46.210  27.837  1.00  0.00     0.061 C 
ENDROOT
BRANCH   1   2
ATOM      2  C   UNL     1     -11.208 -46.162  28.316  1.00  0.00     0.262 C 
BRANCH   2   3
ATOM      3  N   UNL     1     -10.960 -44.923  29.157  1.00  0.00    -0.331 N 
ATOM      4  H   UNL     1     -11.791 -44.324  29.133  1.00  0.00     0.348 HD
BRANCH   3   5
ATOM      5  C   UNL     1      -9.817 -44.066  28.642  1.00  0.00     0.259 C 
ATOM      6  C   UNL     1     -10.342 -42.756  28.079  1.00  0.00     0.071 C 
ENDBRANCH   3   5
BRANCH   3   7
ATOM      7  C   UNL     1     -10.772 -45.285  30.627  1.00  0.00     0.302 C 
BRANCH   7   8
ATOM      8  C   UNL     1     -11.495 -44.365  31.577  1.00  0.00     0.048 A 
ATOM      9  C   UNL     1     -12.902 -44.329  31.568  1.00  0.00     0.013 A 
ATOM     10  C   UNL     1     -10.788 -43.536  32.469  1.00  0.00     0.127 A 
ATOM     11  C   UNL     1     -13.592 -43.481  32.432  1.00  0.00     0.001 A 
ATOM     12  C   UNL     1     -11.492 -42.686  33.327  1.00  0.00     0.047 A 
ATOM     13  C   UNL     1     -12.888 -42.661  33.307  1.00  0.00     0.004 A 
BRANCH  10  14
ATOM     14  O   UNL     1      -9.421 -43.615  32.397  1.00  0.00    -0.496 OA
ATOM     15  C   UNL     1      -8.678 -42.822  33.322  1.00  0.00     0.278 C 
ENDBRANCH  10  14
ENDBRANCH   7   8
ENDBRANCH   3   7
ENDBRANCH   2   3
ENDBRANCH   1   2
BRANCH   1  16
ATOM     16  C   UNL     1     -13.349 -44.842  27.855  1.00  0.00     0.006 C 
BRANCH  16  17
ATOM     17  C   UNL     1     -13.862 -44.461  26.463  1.00  0.00     0.002 C 
BRANCH  17  18
ATOM     18  C   UNL     1     -14.230 -42.980  26.340  1.00  0.00     0.021 C 
BRANCH  18  19
ATOM     19  C   UNL     1     -14.864 -42.620  24.995  1.00  0.00     0.113 C 
BRANCH  19  20
ATOM     20  N   UNL     1     -16.169 -43.235  24.871  1.00  0.00    -0.382 N 
ATOM     21  H   UNL     1     -16.303 -44.097  25.412  1.00  0.00     0.160 HD
BRANCH  20  22
ATOM     22  C   UNL     1     -17.389 -42.589  24.693  1.00  0.00     0.087 C 
ATOM     23  C   UNL     1     -17.922 -42.211  23.526  1.00  0.00     0.082 C 
ATOM     24  C   UNL     1     -18.145 -42.310  25.968  1.00  0.00     0.209 C 
ATOM     25  C   UNL     1     -19.226 -41.535  23.412  1.00  0.00     0.188 C 
ATOM     26  C   UNL     1     -19.480 -41.690  25.877  1.00  0.00     0.035 A 
ATOM     27  C   UNL     1     -20.002 -41.314  24.642  1.00  0.00     0.033 A 
ATOM     28  C   UNL     1     -20.224 -41.473  27.045  1.00  0.00     0.013 A 
ATOM     29  C   UNL     1     -21.268 -40.718  24.568  1.00  0.00     0.013 A 
ATOM     30  C   UNL     1     -21.485 -40.881  26.969  1.00  0.00     0.001 A 
ATOM     31  C   UNL     1     -22.007 -40.504  25.732  1.00  0.00     0.001 A 
ATOM     32  O   UNL     1     -17.637 -42.583  27.053  1.00  0.00    -0.287 OA
ATOM     33  O   UNL     1     -19.636 -41.174  22.315  1.00  0.00    -0.289 OA
ENDBRANCH  20  22
ENDBRANCH  19  20
ENDBRANCH  18  19
ENDBRANCH  17  18
ENDBRANCH  16  17
ENDBRANCH   1  16
TORSDOF 12
ENDMDL
MODEL 9
REMARK VINA RESULT:    -9.108      1.881      4.197
REMARK INTER + INTRA:         -17.698
REMARK INTER:                 -16.401
REMARK INTRA:                  -1.298
REMARK UNBOUND:                -2.200
REMARK SMILES CC[N@@H+](CCCCCCNC1=CC(=O)c2ccccc2C1=O)Cc1ccccc1OC
REMARK SMILES IDX 5 1 4 2 3 3 2 5 1 6 23 7 24 8 25 9 29 10 26 11 28 12 27 13
REMARK SMILES IDX 30 14 31 15 6 16 7 17 8 18 9 19 10 20 11 22 12 23 21 24
REMARK SMILES IDX 13 25 20 26 15 27 19 28 16 29 18 30 17 31 22 32 14 33
REMARK H PARENT 3 4 10 21
ROOT
ATOM      1  C   UNL     1     -13.584 -45.095  27.687  1.00  0.00     0.061 C 
ENDROOT
BRANCH   1   2
ATOM      2  C   UNL     1     -13.509 -44.848  29.194  1.00  0.00     0.262 C 
BRANCH   2   3
ATOM      3  N   UNL     1     -12.081 -44.559  29.621  1.00  0.00    -0.331 N 
ATOM      4  H   UNL     1     -12.040 -43.635  30.064  1.00  0.00     0.348 HD
BRANCH   3   5
ATOM      5  C   UNL     1     -11.105 -44.504  28.459  1.00  0.00     0.259 C 
ATOM      6  C   UNL     1     -10.718 -43.067  28.152  1.00  0.00     0.071 C 
ENDBRANCH   3   5
BRANCH   3   7
ATOM      7  C   UNL     1     -11.620 -45.537  30.696  1.00  0.00     0.302 C 
BRANCH   7   8
ATOM      8  C   UNL     1     -10.188 -45.341  31.123  1.00  0.00     0.048 A 
ATOM      9  C   UNL     1      -9.275 -46.404  30.990  1.00  0.00     0.013 A 
ATOM     10  C   UNL     1      -9.748 -44.116  31.660  1.00  0.00     0.127 A 
ATOM     11  C   UNL     1      -7.948 -46.249  31.387  1.00  0.00     0.001 A 
ATOM     12  C   UNL     1      -8.416 -43.975  32.058  1.00  0.00     0.047 A 
ATOM     13  C   UNL     1      -7.521 -45.038  31.920  1.00  0.00     0.004 A 
BRANCH  10  14
ATOM     14  O   UNL     1     -10.705 -43.141  31.776  1.00  0.00    -0.496 OA
ATOM     15  C   UNL     1     -11.036 -42.715  33.098  1.00  0.00     0.278 C 
ENDBRANCH  10  14
ENDBRANCH   7   8
ENDBRANCH   3   7
ENDBRANCH   2   3
ENDBRANCH   1   2
BRANCH   1  16
ATOM     16  C   UNL     1     -14.453 -44.072  26.947  1.00  0.00     0.006 C 
BRANCH  16  17
ATOM     17  C   UNL     1     -14.489 -44.360  25.444  1.00  0.00     0.002 C 
BRANCH  17  18
ATOM     18  C   UNL     1     -14.139 -43.139  24.587  1.00  0.00     0.021 C 
BRANCH  18  19
ATOM     19  C   UNL     1     -15.281 -42.129  24.471  1.00  0.00     0.113 C 
BRANCH  19  20
ATOM     20  N   UNL     1     -16.551 -42.814  24.346  1.00  0.00    -0.382 N 
ATOM     21  H   UNL     1     -16.506 -43.838  24.397  1.00  0.00     0.160 HD
BRANCH  20  22
ATOM     22  C   UNL     1     -17.793 -42.367  24.788  1.00  0.00     0.087 C 
ATOM     23  C   UNL     1     -18.237 -42.385  26.049  1.00  0.00     0.082 C 
ATOM     24  C   UNL     1     -18.688 -41.821  23.704  1.00  0.00     0.209 C 
ATOM     25  C   UNL     1     -19.566 -41.888  26.448  1.00  0.00     0.188 C 
ATOM     26  C   UNL     1     -19.998 -41.261  24.084  1.00  0.00     0.035 A 
ATOM     27  C   UNL     1     -20.424 -41.294  25.410  1.00  0.00     0.033 A 
ATOM     28  C   UNL     1     -20.821 -40.697  23.100  1.00  0.00     0.013 A 
ATOM     29  C   UNL     1     -21.674 -40.767  25.758  1.00  0.00     0.013 A 
ATOM     30  C   UNL     1     -22.066 -40.170  23.449  1.00  0.00     0.001 A 
ATOM     31  C   UNL     1     -22.492 -40.205  24.778  1.00  0.00     0.001 A 
ATOM     32  O   UNL     1     -18.325 -41.866  22.531  1.00  0.00    -0.287 OA
ATOM     33  O   UNL     1     -19.929 -41.976  27.614  1.00  0.00    -0.289 OA
ENDBRANCH  20  22
ENDBRANCH  19  20
ENDBRANCH  18  19
ENDBRANCH  17  18
ENDBRANCH  16  17
ENDBRANCH   1  16
TORSDOF 12
ENDMDL
