MODEL 1
REMARK VINA RESULT:   -12.548      0.000      0.000
REMARK INTER + INTRA:         -17.703
REMARK INTER:                 -16.949
REMARK INTRA:                  -0.754
REMARK UNBOUND:                -0.754
REMARK SMILES COc1ccccc1C(=O)Nc1ccc2c(c1)CN(C(=O)c1ccccc1OC)C(=O)C2
REMARK SMILES IDX 12 1 13 2 14 3 15 4 16 5 17 6 18 7 19 8 30 9 31 10 32 11
REMARK SMILES IDX 11 12 9 13 10 14 8 16 3 17 4 18 5 19 7 20 6 21 2 22 1 23
REMARK SMILES IDX 20 24 21 25 22 26 23 27 27 28 24 29 26 30 25 31 28 32 29 33
REMARK H PARENT 11 15
ROOT
ATOM      1  C   UNL     1     -13.816 -44.871  26.731  1.00  0.00     0.041 A 
ATOM      2  C   UNL     1     -13.398 -46.172  26.455  1.00  0.00     0.026 A 
ATOM      3  C   UNL     1     -12.283 -46.716  27.103  1.00  0.00     0.007 A 
ATOM      4  C   UNL     1     -11.580 -45.965  28.047  1.00  0.00    -0.033 A 
ATOM      5  C   UNL     1     -11.989 -44.659  28.331  1.00  0.00    -0.022 A 
ATOM      6  C   UNL     1     -13.099 -44.116  27.670  1.00  0.00     0.032 A 
ATOM      7  C   UNL     1     -11.173 -43.857  29.305  1.00  0.00     0.164 C 
ATOM      8  N   UNL     1     -10.658 -44.692  30.382  1.00  0.00    -0.274 N 
ATOM      9  C   UNL     1     -10.017 -45.879  30.069  1.00  0.00     0.234 C 
ATOM     10  O   UNL     1      -9.151 -46.398  30.777  1.00  0.00    -0.274 OA
ATOM     11  C   UNL     1     -10.352 -46.512  28.725  1.00  0.00     0.136 C 
ENDROOT
BRANCH   1  12
ATOM     12  N   UNL     1     -14.923 -44.249  26.121  1.00  0.00    -0.322 N 
ATOM     13  C   UNL     1     -14.942 -43.437  25.005  1.00  0.00     0.259 C 
ATOM     14  O   UNL     1     -13.955 -43.109  24.353  1.00  0.00    -0.269 OA
ATOM     15  H   UNL     1     -15.827 -44.423  26.546  1.00  0.00     0.170 HD
BRANCH  13  16
ATOM     16  C   UNL     1     -16.290 -42.912  24.573  1.00  0.00     0.082 A 
ATOM     17  C   UNL     1     -17.328 -42.518  25.447  1.00  0.00     0.131 A 
ATOM     18  C   UNL     1     -18.533 -42.041  24.907  1.00  0.00     0.047 A 
ATOM     19  C   UNL     1     -18.720 -41.962  23.525  1.00  0.00     0.004 A 
ATOM     20  C   UNL     1     -16.502 -42.826  23.183  1.00  0.00     0.018 A 
ATOM     21  C   UNL     1     -17.707 -42.355  22.662  1.00  0.00     0.001 A 
BRANCH  17  22
ATOM     22  O   UNL     1     -17.100 -42.611  26.800  1.00  0.00    -0.496 OA
ATOM     23  C   UNL     1     -18.204 -42.396  27.675  1.00  0.00     0.278 C 
ENDBRANCH  17  22
ENDBRANCH  13  16
ENDBRANCH   1  12
BRANCH   8  24
ATOM     24  C   UNL     1     -10.578 -44.227  31.686  1.00  0.00     0.264 C 
ATOM     25  O   UNL     1      -9.562 -44.294  32.376  1.00  0.00    -0.268 OA
BRANCH  24  26
ATOM     26  C   UNL     1     -11.818 -43.747  32.345  1.00  0.00     0.082 A 
ATOM     27  C   UNL     1     -12.992 -44.491  32.169  1.00  0.00     0.018 A 
ATOM     28  C   UNL     1     -11.832 -42.612  33.165  1.00  0.00     0.131 A 
ATOM     29  C   UNL     1     -14.182 -44.067  32.765  1.00  0.00     0.001 A 
ATOM     30  C   UNL     1     -13.029 -42.177  33.739  1.00  0.00     0.047 A 
ATOM     31  C   UNL     1     -14.201 -42.907  33.540  1.00  0.00     0.004 A 
BRANCH  28  32
ATOM     32  O   UNL     1     -10.709 -41.862  33.390  1.00  0.00    -0.496 OA
ATOM     33  C   UNL     1     -10.339 -41.928  34.772  1.00  0.00     0.278 C 
ENDBRANCH  28  32
ENDBRANCH  24  26
ENDBRANCH   8  24
TORSDOF 6
ENDMDL
MODEL 2
REMARK VINA RESULT:   -11.996      0.844      1.696
REMARK INTER + INTRA:         -16.957
REMARK INTER:                 -16.231
REMARK INTRA:                  -0.726
REMARK UNBOUND:                -0.754
REMARK SMILES COc1ccccc1C(=O)Nc1ccc2c(c1)CN(C(=O)c1ccccc1OC)C(=O)C2
REMARK SMILES IDX 12 1 13 2 14 3 15 4 16 5 17 6 18 7 19 8 30 9 31 10 32 11
REMARK SMILES IDX 11 12 9 13 10 14 8 16 3 17 4 18 5 19 7 20 6 21 2 22 1 23
REMARK SMILES IDX 20 24 21 25 22 26 23 27 27 28 24 29 26 30 25 31 28 32 29 33
REMARK H PARENT 11 15
ROOT
ATOM      1  C   UNL     1     -13.911 -44.836  26.630  1.00  0.00     0.041 A 
ATOM      2  C   UNL     1     -13.512 -46.133  26.308  1.00  0.00     0.026 A 
ATOM      3  C   UNL     1     -12.396 -46.709  26.924  1.00  0.00     0.007 A 
ATOM      4  C   UNL     1     -11.671 -45.996  27.881  1.00  0.00    -0.033 A 
ATOM      5  C   UNL     1     -12.061 -44.695  28.211  1.00  0.00    -0.022 A 
ATOM      6  C   UNL     1     -13.173 -44.119  27.582  1.00  0.00     0.032 A 
ATOM      7  C   UNL     1     -11.223 -43.933  29.199  1.00  0.00     0.164 C 
ATOM      8  N   UNL     1     -10.704 -44.807  30.242  1.00  0.00    -0.274 N 
ATOM      9  C   UNL     1     -10.081 -45.991  29.884  1.00  0.00     0.234 C 
ATOM     10  O   UNL     1      -9.212 -46.542  30.564  1.00  0.00    -0.274 OA
ATOM     11  C   UNL     1     -10.441 -46.578  28.525  1.00  0.00     0.136 C 
ENDROOT
BRANCH   1  12
ATOM     12  N   UNL     1     -15.018 -44.183  26.055  1.00  0.00    -0.322 N 
ATOM     13  C   UNL     1     -15.065 -43.435  24.895  1.00  0.00     0.259 C 
ATOM     14  O   UNL     1     -14.106 -43.206  24.163  1.00  0.00    -0.269 OA
ATOM     15  H   UNL     1     -15.901 -44.277  26.546  1.00  0.00     0.170 HD
BRANCH  13  16
ATOM     16  C   UNL     1     -16.407 -42.854  24.519  1.00  0.00     0.082 A 
ATOM     17  C   UNL     1     -17.430 -42.513  25.430  1.00  0.00     0.131 A 
ATOM     18  C   UNL     1     -18.630 -41.973  24.940  1.00  0.00     0.047 A 
ATOM     19  C   UNL     1     -18.826 -41.779  23.570  1.00  0.00     0.004 A 
ATOM     20  C   UNL     1     -16.627 -42.653  23.141  1.00  0.00     0.018 A 
ATOM     21  C   UNL     1     -17.827 -42.121  22.670  1.00  0.00     0.001 A 
BRANCH  17  22
ATOM     22  O   UNL     1     -17.195 -42.718  26.769  1.00  0.00    -0.496 OA
ATOM     23  C   UNL     1     -18.216 -42.339  27.688  1.00  0.00     0.278 C 
ENDBRANCH  17  22
ENDBRANCH  13  16
ENDBRANCH   1  12
BRANCH   8  24
ATOM     24  C   UNL     1     -10.601 -44.383  31.558  1.00  0.00     0.264 C 
ATOM     25  O   UNL     1      -9.578 -44.487  32.234  1.00  0.00    -0.268 OA
BRANCH  24  26
ATOM     26  C   UNL     1     -11.825 -43.906  32.247  1.00  0.00     0.082 A 
ATOM     27  C   UNL     1     -11.777 -42.668  32.902  1.00  0.00     0.018 A 
ATOM     28  C   UNL     1     -13.024 -44.630  32.220  1.00  0.00     0.131 A 
ATOM     29  C   UNL     1     -12.906 -42.188  33.571  1.00  0.00     0.001 A 
ATOM     30  C   UNL     1     -14.143 -44.159  32.910  1.00  0.00     0.047 A 
ATOM     31  C   UNL     1     -14.082 -42.938  33.582  1.00  0.00     0.004 A 
BRANCH  28  32
ATOM     32  O   UNL     1     -13.133 -45.834  31.576  1.00  0.00    -0.496 OA
ATOM     33  C   UNL     1     -14.071 -46.675  32.257  1.00  0.00     0.278 C 
ENDBRANCH  28  32
ENDBRANCH  24  26
ENDBRANCH   8  24
TORSDOF 6
ENDMDL
MODEL 3
REMARK VINA RESULT:   -11.034      1.334      2.210
REMARK INTER + INTRA:         -15.658
REMARK INTER:                 -16.364
REMARK INTRA:                   0.705
REMARK UNBOUND:                -0.754
REMARK SMILES COc1ccccc1C(=O)Nc1ccc2c(c1)CN(C(=O)c1ccccc1OC)C(=O)C2
REMARK SMILES IDX 12 1 13 2 14 3 15 4 16 5 17 6 18 7 19 8 30 9 31 10 32 11
REMARK SMILES IDX 11 12 9 13 10 14 8 16 3 17 4 18 5 19 7 20 6 21 2 22 1 23
REMARK SMILES IDX 20 24 21 25 22 26 23 27 27 28 24 29 26 30 25 31 28 32 29 33
REMARK H PARENT 11 15
ROOT
ATOM      1  C   UNL     1     -14.055 -44.810  26.632  1.00  0.00     0.041 A 
ATOM      2  C   UNL     1     -13.652 -46.086  26.238  1.00  0.00     0.026 A 
ATOM      3  C   UNL     1     -12.570 -46.716  26.860  1.00  0.00     0.007 A 
ATOM      4  C   UNL     1     -11.884 -46.080  27.898  1.00  0.00    -0.033 A 
ATOM      5  C   UNL     1     -12.278 -44.801  28.301  1.00  0.00    -0.022 A 
ATOM      6  C   UNL     1     -13.356 -44.170  27.664  1.00  0.00     0.032 A 
ATOM      7  C   UNL     1     -11.480 -44.119  29.376  1.00  0.00     0.164 C 
ATOM      8  N   UNL     1     -11.016 -45.070  30.377  1.00  0.00    -0.274 N 
ATOM      9  C   UNL     1     -10.386 -46.233  29.965  1.00  0.00     0.234 C 
ATOM     10  O   UNL     1      -9.554 -46.839  30.643  1.00  0.00    -0.274 OA
ATOM     11  C   UNL     1     -10.689 -46.719  28.553  1.00  0.00     0.136 C 
ENDROOT
BRANCH   1  12
ATOM     12  N   UNL     1     -15.131 -44.106  26.055  1.00  0.00    -0.322 N 
ATOM     13  C   UNL     1     -15.209 -43.542  24.797  1.00  0.00     0.259 C 
ATOM     14  O   UNL     1     -14.312 -43.558  23.959  1.00  0.00    -0.269 OA
ATOM     15  H   UNL     1     -15.961 -44.005  26.629  1.00  0.00     0.170 HD
BRANCH  13  16
ATOM     16  C   UNL     1     -16.503 -42.846  24.448  1.00  0.00     0.082 A 
ATOM     17  C   UNL     1     -17.483 -42.435  25.378  1.00  0.00     0.131 A 
ATOM     18  C   UNL     1     -18.640 -41.791  24.913  1.00  0.00     0.047 A 
ATOM     19  C   UNL     1     -18.837 -41.562  23.549  1.00  0.00     0.004 A 
ATOM     20  C   UNL     1     -16.723 -42.608  23.077  1.00  0.00     0.018 A 
ATOM     21  C   UNL     1     -17.881 -41.971  22.630  1.00  0.00     0.001 A 
BRANCH  17  22
ATOM     22  O   UNL     1     -17.248 -42.679  26.711  1.00  0.00    -0.496 OA
ATOM     23  C   UNL     1     -18.346 -42.561  27.611  1.00  0.00     0.278 C 
ENDBRANCH  17  22
ENDBRANCH  13  16
ENDBRANCH   1  12
BRANCH   8  24
ATOM     24  C   UNL     1     -10.970 -44.741  31.723  1.00  0.00     0.264 C 
ATOM     25  O   UNL     1     -11.945 -44.781  32.472  1.00  0.00    -0.268 OA
BRANCH  24  26
ATOM     26  C   UNL     1      -9.714 -44.172  32.272  1.00  0.00     0.082 A 
ATOM     27  C   UNL     1      -8.496 -44.701  31.825  1.00  0.00     0.018 A 
ATOM     28  C   UNL     1      -9.715 -43.103  33.177  1.00  0.00     0.131 A 
ATOM     29  C   UNL     1      -7.292 -44.200  32.325  1.00  0.00     0.001 A 
ATOM     30  C   UNL     1      -8.511 -42.621  33.693  1.00  0.00     0.047 A 
ATOM     31  C   UNL     1      -7.301 -43.168  33.264  1.00  0.00     0.004 A 
BRANCH  28  32
ATOM     32  O   UNL     1     -10.876 -42.533  33.629  1.00  0.00    -0.496 OA
ATOM     33  C   UNL     1     -10.580 -41.421  34.480  1.00  0.00     0.278 C 
ENDBRANCH  28  32
ENDBRANCH  24  26
ENDBRANCH   8  24
TORSDOF 6
ENDMDL
MODEL 4
REMARK VINA RESULT:   -10.705      3.448      9.441
REMARK INTER + INTRA:         -15.214
REMARK INTER:                 -14.617
REMARK INTRA:                  -0.596
REMARK UNBOUND:                -0.754
REMARK SMILES COc1ccccc1C(=O)Nc1ccc2c(c1)CN(C(=O)c1ccccc1OC)C(=O)C2
REMARK SMILES IDX 12 1 13 2 14 3 15 4 16 5 17 6 18 7 19 8 30 9 31 10 32 11
REMARK SMILES IDX 11 12 9 13 10 14 8 16 3 17 4 18 5 19 7 20 6 21 2 22 1 23
REMARK SMILES IDX 20 24 21 25 22 26 23 27 27 28 24 29 26 30 25 31 28 32 29 33
REMARK H PARENT 11 15
ROOT
ATOM      1  C   UNL     1     -15.225 -42.909  24.544  1.00  0.00     0.041 A 
ATOM      2  C   UNL     1     -14.897 -41.927  23.610  1.00  0.00     0.026 A 
ATOM      3  C   UNL     1     -15.896 -41.281  22.874  1.00  0.00     0.007 A 
ATOM      4  C   UNL     1     -17.240 -41.601  23.075  1.00  0.00    -0.033 A 
ATOM      5  C   UNL     1     -17.581 -42.585  24.009  1.00  0.00    -0.022 A 
ATOM      6  C   UNL     1     -16.575 -43.237  24.734  1.00  0.00     0.032 A 
ATOM      7  C   UNL     1     -19.031 -42.950  24.155  1.00  0.00     0.164 C 
ATOM      8  N   UNL     1     -19.892 -41.784  24.002  1.00  0.00    -0.274 N 
ATOM      9  C   UNL     1     -19.707 -40.946  22.915  1.00  0.00     0.234 C 
ATOM     10  O   UNL     1     -20.605 -40.266  22.414  1.00  0.00    -0.274 OA
ATOM     11  C   UNL     1     -18.330 -40.951  22.264  1.00  0.00     0.136 C 
ENDROOT
BRANCH   1  12
ATOM     12  N   UNL     1     -14.282 -43.609  25.322  1.00  0.00    -0.322 N 
ATOM     13  C   UNL     1     -14.181 -43.671  26.697  1.00  0.00     0.259 C 
ATOM     14  O   UNL     1     -14.922 -43.092  27.486  1.00  0.00    -0.269 OA
ATOM     15  H   UNL     1     -13.589 -44.147  24.811  1.00  0.00     0.170 HD
BRANCH  13  16
ATOM     16  C   UNL     1     -13.059 -44.513  27.256  1.00  0.00     0.082 A 
ATOM     17  C   UNL     1     -11.942 -44.016  27.963  1.00  0.00     0.131 A 
ATOM     18  C   UNL     1     -10.974 -44.917  28.433  1.00  0.00     0.047 A 
ATOM     19  C   UNL     1     -11.097 -46.290  28.202  1.00  0.00     0.004 A 
ATOM     20  C   UNL     1     -13.161 -45.901  27.032  1.00  0.00     0.018 A 
ATOM     21  C   UNL     1     -12.188 -46.783  27.501  1.00  0.00     0.001 A 
BRANCH  17  22
ATOM     22  O   UNL     1     -11.862 -42.659  28.169  1.00  0.00    -0.496 OA
ATOM     23  C   UNL     1     -10.569 -42.060  28.151  1.00  0.00     0.278 C 
ENDBRANCH  17  22
ENDBRANCH  13  16
ENDBRANCH   1  12
BRANCH   8  24
ATOM     24  C   UNL     1     -21.033 -41.620  24.772  1.00  0.00     0.264 C 
ATOM     25  O   UNL     1     -21.616 -40.546  24.912  1.00  0.00    -0.268 OA
BRANCH  24  26
ATOM     26  C   UNL     1     -21.509 -42.763  25.589  1.00  0.00     0.082 A 
ATOM     27  C   UNL     1     -22.365 -43.696  24.990  1.00  0.00     0.018 A 
ATOM     28  C   UNL     1     -21.091 -42.956  26.911  1.00  0.00     0.131 A 
ATOM     29  C   UNL     1     -22.843 -44.780  25.729  1.00  0.00     0.001 A 
ATOM     30  C   UNL     1     -21.589 -44.028  27.655  1.00  0.00     0.047 A 
ATOM     31  C   UNL     1     -22.462 -44.940  27.061  1.00  0.00     0.004 A 
BRANCH  28  32
ATOM     32  O   UNL     1     -20.236 -42.089  27.539  1.00  0.00    -0.496 OA
ATOM     33  C   UNL     1     -18.985 -42.733  27.804  1.00  0.00     0.278 C 
ENDBRANCH  28  32
ENDBRANCH  24  26
ENDBRANCH   8  24
TORSDOF 6
ENDMDL
MODEL 5
REMARK VINA RESULT:   -10.609      2.377      3.668
REMARK INTER + INTRA:         -15.084
REMARK INTER:                 -15.163
REMARK INTRA:                   0.078
REMARK UNBOUND:                -0.754
REMARK SMILES COc1ccccc1C(=O)Nc1ccc2c(c1)CN(C(=O)c1ccccc1OC)C(=O)C2
REMARK SMILES IDX 12 1 13 2 14 3 15 4 16 5 17 6 18 7 19 8 30 9 31 10 32 11
REMARK SMILES IDX 11 12 9 13 10 14 8 16 3 17 4 18 5 19 7 20 6 21 2 22 1 23
REMARK SMILES IDX 20 24 21 25 22 26 23 27 27 28 24 29 26 30 25 31 28 32 29 33
REMARK H PARENT 11 15
ROOT
ATOM      1  C   UNL     1     -15.406 -43.529  27.478  1.00  0.00     0.041 A 
ATOM      2  C   UNL     1     -15.847 -43.294  28.780  1.00  0.00     0.026 A 
ATOM      3  C   UNL     1     -15.249 -43.946  29.864  1.00  0.00     0.007 A 
ATOM      4  C   UNL     1     -14.191 -44.834  29.658  1.00  0.00    -0.033 A 
ATOM      5  C   UNL     1     -13.741 -45.078  28.357  1.00  0.00    -0.022 A 
ATOM      6  C   UNL     1     -14.352 -44.431  27.274  1.00  0.00     0.032 A 
ATOM      7  C   UNL     1     -12.644 -46.086  28.164  1.00  0.00     0.164 C 
ATOM      8  N   UNL     1     -11.678 -46.036  29.254  1.00  0.00    -0.274 N 
ATOM      9  C   UNL     1     -12.134 -46.054  30.562  1.00  0.00     0.234 C 
ATOM     10  O   UNL     1     -11.480 -46.495  31.510  1.00  0.00    -0.274 OA
ATOM     11  C   UNL     1     -13.561 -45.581  30.804  1.00  0.00     0.136 C 
ENDROOT
BRANCH   1  12
ATOM     12  N   UNL     1     -15.955 -42.918  26.334  1.00  0.00    -0.322 N 
ATOM     13  C   UNL     1     -15.683 -43.182  25.007  1.00  0.00     0.259 C 
ATOM     14  O   UNL     1     -14.878 -44.017  24.604  1.00  0.00    -0.269 OA
ATOM     15  H   UNL     1     -16.648 -42.196  26.499  1.00  0.00     0.170 HD
BRANCH  13  16
ATOM     16  C   UNL     1     -16.436 -42.364  23.986  1.00  0.00     0.082 A 
ATOM     17  C   UNL     1     -17.838 -42.198  23.949  1.00  0.00     0.131 A 
ATOM     18  C   UNL     1     -18.407 -41.401  22.944  1.00  0.00     0.047 A 
ATOM     19  C   UNL     1     -17.608 -40.781  21.979  1.00  0.00     0.004 A 
ATOM     20  C   UNL     1     -15.650 -41.732  23.001  1.00  0.00     0.018 A 
ATOM     21  C   UNL     1     -16.231 -40.947  22.006  1.00  0.00     0.001 A 
BRANCH  17  22
ATOM     22  O   UNL     1     -18.586 -42.824  24.918  1.00  0.00    -0.496 OA
ATOM     23  C   UNL     1     -19.422 -42.014  25.739  1.00  0.00     0.278 C 
ENDBRANCH  17  22
ENDBRANCH  13  16
ENDBRANCH   1  12
BRANCH   8  24
ATOM     24  C   UNL     1     -10.321 -46.210  29.029  1.00  0.00     0.264 C 
ATOM     25  O   UNL     1      -9.859 -46.996  28.203  1.00  0.00    -0.268 OA
BRANCH  24  26
ATOM     26  C   UNL     1      -9.360 -45.521  29.925  1.00  0.00     0.082 A 
ATOM     27  C   UNL     1      -8.578 -46.303  30.786  1.00  0.00     0.018 A 
ATOM     28  C   UNL     1      -9.183 -44.132  29.898  1.00  0.00     0.131 A 
ATOM     29  C   UNL     1      -7.669 -45.691  31.652  1.00  0.00     0.001 A 
ATOM     30  C   UNL     1      -8.290 -43.521  30.781  1.00  0.00     0.047 A 
ATOM     31  C   UNL     1      -7.533 -44.303  31.655  1.00  0.00     0.004 A 
BRANCH  28  32
ATOM     32  O   UNL     1      -9.903 -43.322  29.060  1.00  0.00    -0.496 OA
ATOM     33  C   UNL     1      -9.021 -42.595  28.197  1.00  0.00     0.278 C 
ENDBRANCH  28  32
ENDBRANCH  24  26
ENDBRANCH   8  24
TORSDOF 6
ENDMDL
MODEL 6
REMARK VINA RESULT:   -10.406      3.445      9.881
REMARK INTER + INTRA:         -14.810
REMARK INTER:                 -13.994
REMARK INTRA:                  -0.816
REMARK UNBOUND:                -0.754
REMARK SMILES COc1ccccc1C(=O)Nc1ccc2c(c1)CN(C(=O)c1ccccc1OC)C(=O)C2
REMARK SMILES IDX 12 1 13 2 14 3 15 4 16 5 17 6 18 7 19 8 30 9 31 10 32 11
REMARK SMILES IDX 11 12 9 13 10 14 8 16 3 17 4 18 5 19 7 20 6 21 2 22 1 23
REMARK SMILES IDX 20 24 21 25 22 26 23 27 27 28 24 29 26 30 25 31 28 32 29 33
REMARK H PARENT 11 15
ROOT
ATOM      1  C   UNL     1     -15.175 -43.077  24.857  1.00  0.00     0.041 A 
ATOM      2  C   UNL     1     -14.932 -42.147  23.847  1.00  0.00     0.026 A 
ATOM      3  C   UNL     1     -15.992 -41.552  23.156  1.00  0.00     0.007 A 
ATOM      4  C   UNL     1     -17.313 -41.872  23.478  1.00  0.00    -0.033 A 
ATOM      5  C   UNL     1     -17.568 -42.804  24.488  1.00  0.00    -0.022 A 
ATOM      6  C   UNL     1     -16.501 -43.405  25.169  1.00  0.00     0.032 A 
ATOM      7  C   UNL     1     -18.998 -43.173  24.766  1.00  0.00     0.164 C 
ATOM      8  N   UNL     1     -19.883 -42.025  24.615  1.00  0.00    -0.274 N 
ATOM      9  C   UNL     1     -19.793 -41.248  23.472  1.00  0.00     0.234 C 
ATOM     10  O   UNL     1     -20.735 -40.605  23.004  1.00  0.00    -0.274 OA
ATOM     11  C   UNL     1     -18.469 -41.278  22.718  1.00  0.00     0.136 C 
ENDROOT
BRANCH   1  12
ATOM     12  N   UNL     1     -14.165 -43.724  25.597  1.00  0.00    -0.322 N 
ATOM     13  C   UNL     1     -14.097 -43.924  26.962  1.00  0.00     0.259 C 
ATOM     14  O   UNL     1     -14.935 -43.542  27.774  1.00  0.00    -0.269 OA
ATOM     15  H   UNL     1     -13.389 -44.101  25.064  1.00  0.00     0.170 HD
BRANCH  13  16
ATOM     16  C   UNL     1     -12.885 -44.662  27.477  1.00  0.00     0.082 A 
ATOM     17  C   UNL     1     -11.784 -44.064  28.128  1.00  0.00     0.131 A 
ATOM     18  C   UNL     1     -10.723 -44.875  28.563  1.00  0.00     0.047 A 
ATOM     19  C   UNL     1     -10.740 -46.256  28.352  1.00  0.00     0.004 A 
ATOM     20  C   UNL     1     -12.880 -46.056  27.272  1.00  0.00     0.018 A 
ATOM     21  C   UNL     1     -11.816 -46.847  27.706  1.00  0.00     0.001 A 
BRANCH  17  22
ATOM     22  O   UNL     1     -11.809 -42.702  28.317  1.00  0.00    -0.496 OA
ATOM     23  C   UNL     1     -10.607 -41.976  28.077  1.00  0.00     0.278 C 
ENDBRANCH  17  22
ENDBRANCH  13  16
ENDBRANCH   1  12
BRANCH   8  24
ATOM     24  C   UNL     1     -20.964 -41.827  25.460  1.00  0.00     0.264 C 
ATOM     25  O   UNL     1     -21.275 -40.734  25.930  1.00  0.00    -0.268 OA
BRANCH  24  26
ATOM     26  C   UNL     1     -21.712 -43.013  25.945  1.00  0.00     0.082 A 
ATOM     27  C   UNL     1     -21.443 -43.483  27.238  1.00  0.00     0.018 A 
ATOM     28  C   UNL     1     -22.698 -43.638  25.172  1.00  0.00     0.131 A 
ATOM     29  C   UNL     1     -22.119 -44.604  27.727  1.00  0.00     0.001 A 
ATOM     30  C   UNL     1     -23.354 -44.772  25.655  1.00  0.00     0.047 A 
ATOM     31  C   UNL     1     -23.065 -45.251  26.933  1.00  0.00     0.004 A 
BRANCH  28  32
ATOM     32  O   UNL     1     -23.017 -43.206  23.912  1.00  0.00    -0.496 OA
ATOM     33  C   UNL     1     -22.405 -44.051  22.931  1.00  0.00     0.278 C 
ENDBRANCH  28  32
ENDBRANCH  24  26
ENDBRANCH   8  24
TORSDOF 6
ENDMDL
MODEL 7
REMARK VINA RESULT:   -10.306      3.451      9.779
REMARK INTER + INTRA:         -14.675
REMARK INTER:                 -13.421
REMARK INTRA:                  -1.254
REMARK UNBOUND:                -0.754
REMARK SMILES COc1ccccc1C(=O)Nc1ccc2c(c1)CN(C(=O)c1ccccc1OC)C(=O)C2
REMARK SMILES IDX 12 1 13 2 14 3 15 4 16 5 17 6 18 7 19 8 30 9 31 10 32 11
REMARK SMILES IDX 11 12 9 13 10 14 8 16 3 17 4 18 5 19 7 20 6 21 2 22 1 23
REMARK SMILES IDX 20 24 21 25 22 26 23 27 27 28 24 29 26 30 25 31 28 32 29 33
REMARK H PARENT 11 15
ROOT
ATOM      1  C   UNL     1     -15.210 -42.815  24.314  1.00  0.00     0.041 A 
ATOM      2  C   UNL     1     -14.898 -41.587  23.733  1.00  0.00     0.026 A 
ATOM      3  C   UNL     1     -15.834 -40.915  22.940  1.00  0.00     0.007 A 
ATOM      4  C   UNL     1     -17.102 -41.462  22.729  1.00  0.00    -0.033 A 
ATOM      5  C   UNL     1     -17.425 -42.694  23.305  1.00  0.00    -0.022 A 
ATOM      6  C   UNL     1     -16.478 -43.367  24.089  1.00  0.00     0.032 A 
ATOM      7  C   UNL     1     -18.774 -43.284  23.006  1.00  0.00     0.164 C 
ATOM      8  N   UNL     1     -19.797 -42.251  22.913  1.00  0.00    -0.274 N 
ATOM      9  C   UNL     1     -19.565 -41.138  22.121  1.00  0.00     0.234 C 
ATOM     10  O   UNL     1     -20.458 -40.483  21.580  1.00  0.00    -0.274 OA
ATOM     11  C   UNL     1     -18.110 -40.780  21.843  1.00  0.00     0.136 C 
ENDROOT
BRANCH   1  12
ATOM     12  N   UNL     1     -14.324 -43.556  25.122  1.00  0.00    -0.322 N 
ATOM     13  C   UNL     1     -14.212 -43.553  26.498  1.00  0.00     0.259 C 
ATOM     14  O   UNL     1     -14.887 -42.866  27.259  1.00  0.00    -0.269 OA
ATOM     15  H   UNL     1     -13.690 -44.182  24.636  1.00  0.00     0.170 HD
BRANCH  13  16
ATOM     16  C   UNL     1     -13.165 -44.464  27.093  1.00  0.00     0.082 A 
ATOM     17  C   UNL     1     -12.040 -44.036  27.832  1.00  0.00     0.131 A 
ATOM     18  C   UNL     1     -11.147 -44.996  28.335  1.00  0.00     0.047 A 
ATOM     19  C   UNL     1     -11.353 -46.360  28.106  1.00  0.00     0.004 A 
ATOM     20  C   UNL     1     -13.351 -45.843  26.872  1.00  0.00     0.018 A 
ATOM     21  C   UNL     1     -12.452 -46.784  27.374  1.00  0.00     0.001 A 
BRANCH  17  22
ATOM     22  O   UNL     1     -11.878 -42.687  28.036  1.00  0.00    -0.496 OA
ATOM     23  C   UNL     1     -10.610 -42.233  28.503  1.00  0.00     0.278 C 
ENDBRANCH  17  22
ENDBRANCH  13  16
ENDBRANCH   1  12
BRANCH   8  24
ATOM     24  C   UNL     1     -21.081 -42.456  23.396  1.00  0.00     0.264 C 
ATOM     25  O   UNL     1     -21.917 -43.167  22.840  1.00  0.00    -0.268 OA
BRANCH  24  26
ATOM     26  C   UNL     1     -21.531 -41.669  24.570  1.00  0.00     0.082 A 
ATOM     27  C   UNL     1     -22.580 -40.757  24.395  1.00  0.00     0.018 A 
ATOM     28  C   UNL     1     -20.972 -41.846  25.842  1.00  0.00     0.131 A 
ATOM     29  C   UNL     1     -23.025 -39.990  25.474  1.00  0.00     0.001 A 
ATOM     30  C   UNL     1     -21.403 -41.061  26.913  1.00  0.00     0.047 A 
ATOM     31  C   UNL     1     -22.431 -40.135  26.727  1.00  0.00     0.004 A 
BRANCH  28  32
ATOM     32  O   UNL     1     -19.961 -42.740  26.075  1.00  0.00    -0.496 OA
ATOM     33  C   UNL     1     -18.825 -42.067  26.628  1.00  0.00     0.278 C 
ENDBRANCH  28  32
ENDBRANCH  24  26
ENDBRANCH   8  24
TORSDOF 6
ENDMDL
MODEL 8
REMARK VINA RESULT:    -9.960      2.793      9.334
REMARK INTER + INTRA:         -14.207
REMARK INTER:                 -13.362
REMARK INTRA:                  -0.845
REMARK UNBOUND:                -0.754
REMARK SMILES COc1ccccc1C(=O)Nc1ccc2c(c1)CN(C(=O)c1ccccc1OC)C(=O)C2
REMARK SMILES IDX 12 1 13 2 14 3 15 4 16 5 17 6 18 7 19 8 30 9 31 10 32 11
REMARK SMILES IDX 11 12 9 13 10 14 8 16 3 17 4 18 5 19 7 20 6 21 2 22 1 23
REMARK SMILES IDX 20 24 21 25 22 26 23 27 27 28 24 29 26 30 25 31 28 32 29 33
REMARK H PARENT 11 15
ROOT
ATOM      1  C   UNL     1     -13.985 -43.346  26.326  1.00  0.00     0.041 A 
ATOM      2  C   UNL     1     -13.428 -42.562  25.317  1.00  0.00     0.026 A 
ATOM      3  C   UNL     1     -14.222 -42.072  24.274  1.00  0.00     0.007 A 
ATOM      4  C   UNL     1     -15.590 -42.352  24.238  1.00  0.00    -0.033 A 
ATOM      5  C   UNL     1     -16.159 -43.138  25.244  1.00  0.00    -0.022 A 
ATOM      6  C   UNL     1     -15.356 -43.635  26.279  1.00  0.00     0.032 A 
ATOM      7  C   UNL     1     -17.620 -43.472  25.140  1.00  0.00     0.164 C 
ATOM      8  N   UNL     1     -18.383 -42.360  24.588  1.00  0.00    -0.274 N 
ATOM      9  C   UNL     1     -17.939 -41.746  23.429  1.00  0.00     0.234 C 
ATOM     10  O   UNL     1     -18.683 -41.178  22.626  1.00  0.00    -0.274 OA
ATOM     11  C   UNL     1     -16.456 -41.873  23.103  1.00  0.00     0.136 C 
ENDROOT
BRANCH   1  12
ATOM     12  N   UNL     1     -13.256 -43.881  27.407  1.00  0.00    -0.322 N 
ATOM     13  C   UNL     1     -12.847 -45.185  27.603  1.00  0.00     0.259 C 
ATOM     14  O   UNL     1     -13.076 -46.119  26.840  1.00  0.00    -0.269 OA
ATOM     15  H   UNL     1     -12.985 -43.227  28.133  1.00  0.00     0.170 HD
BRANCH  13  16
ATOM     16  C   UNL     1     -12.067 -45.466  28.865  1.00  0.00     0.082 A 
ATOM     17  C   UNL     1     -12.459 -45.082  30.167  1.00  0.00     0.131 A 
ATOM     18  C   UNL     1     -11.638 -45.416  31.255  1.00  0.00     0.047 A 
ATOM     19  C   UNL     1     -10.440 -46.110  31.066  1.00  0.00     0.004 A 
ATOM     20  C   UNL     1     -10.854 -46.163  28.697  1.00  0.00     0.018 A 
ATOM     21  C   UNL     1     -10.047 -46.483  29.789  1.00  0.00     0.001 A 
BRANCH  17  22
ATOM     22  O   UNL     1     -13.646 -44.402  30.307  1.00  0.00    -0.496 OA
ATOM     23  C   UNL     1     -14.062 -44.059  31.626  1.00  0.00     0.278 C 
ENDBRANCH  17  22
ENDBRANCH  13  16
ENDBRANCH   1  12
BRANCH   8  24
ATOM     24  C   UNL     1     -19.655 -42.054  25.048  1.00  0.00     0.264 C 
ATOM     25  O   UNL     1     -20.170 -40.941  24.947  1.00  0.00    -0.268 OA
BRANCH  24  26
ATOM     26  C   UNL     1     -20.390 -43.075  25.833  1.00  0.00     0.082 A 
ATOM     27  C   UNL     1     -20.228 -43.085  27.225  1.00  0.00     0.018 A 
ATOM     28  C   UNL     1     -21.266 -43.987  25.231  1.00  0.00     0.131 A 
ATOM     29  C   UNL     1     -20.896 -44.037  27.999  1.00  0.00     0.001 A 
ATOM     30  C   UNL     1     -21.913 -44.953  26.005  1.00  0.00     0.047 A 
ATOM     31  C   UNL     1     -21.728 -44.975  27.388  1.00  0.00     0.004 A 
BRANCH  28  32
ATOM     32  O   UNL     1     -21.480 -44.007  23.878  1.00  0.00    -0.496 OA
ATOM     33  C   UNL     1     -22.504 -44.953  23.554  1.00  0.00     0.278 C 
ENDBRANCH  28  32
ENDBRANCH  24  26
ENDBRANCH   8  24
TORSDOF 6
ENDMDL
MODEL 9
REMARK VINA RESULT:    -9.850      3.029      9.939
REMARK INTER + INTRA:         -14.058
REMARK INTER:                 -12.792
REMARK INTRA:                  -1.266
REMARK UNBOUND:                -0.754
REMARK SMILES COc1ccccc1C(=O)Nc1ccc2c(c1)CN(C(=O)c1ccccc1OC)C(=O)C2
REMARK SMILES IDX 12 1 13 2 14 3 15 4 16 5 17 6 18 7 19 8 30 9 31 10 32 11
REMARK SMILES IDX 11 12 9 13 10 14 8 16 3 17 4 18 5 19 7 20 6 21 2 22 1 23
REMARK SMILES IDX 20 24 21 25 22 26 23 27 27 28 24 29 26 30 25 31 28 32 29 33
REMARK H PARENT 11 15
ROOT
ATOM      1  C   UNL     1     -14.738 -42.883  25.960  1.00  0.00     0.041 A 
ATOM      2  C   UNL     1     -14.160 -42.132  24.937  1.00  0.00     0.026 A 
ATOM      3  C   UNL     1     -14.925 -41.701  23.848  1.00  0.00     0.007 A 
ATOM      4  C   UNL     1     -16.286 -42.007  23.777  1.00  0.00    -0.033 A 
ATOM      5  C   UNL     1     -16.876 -42.761  24.796  1.00  0.00    -0.022 A 
ATOM      6  C   UNL     1     -16.101 -43.199  25.878  1.00  0.00     0.032 A 
ATOM      7  C   UNL     1     -18.327 -43.125  24.658  1.00  0.00     0.164 C 
ATOM      8  N   UNL     1     -19.089 -42.052  24.033  1.00  0.00    -0.274 N 
ATOM      9  C   UNL     1     -18.615 -41.479  22.864  1.00  0.00     0.234 C 
ATOM     10  O   UNL     1     -19.340 -40.959  22.013  1.00  0.00    -0.274 OA
ATOM     11  C   UNL     1     -17.120 -41.592  22.595  1.00  0.00     0.136 C 
ENDROOT
BRANCH   1  12
ATOM     12  N   UNL     1     -14.038 -43.358  27.087  1.00  0.00    -0.322 N 
ATOM     13  C   UNL     1     -13.524 -44.621  27.307  1.00  0.00     0.259 C 
ATOM     14  O   UNL     1     -13.612 -45.565  26.527  1.00  0.00    -0.269 OA
ATOM     15  H   UNL     1     -13.880 -42.689  27.832  1.00  0.00     0.170 HD
BRANCH  13  16
ATOM     16  C   UNL     1     -12.810 -44.841  28.619  1.00  0.00     0.082 A 
ATOM     17  C   UNL     1     -11.538 -44.322  28.950  1.00  0.00     0.131 A 
ATOM     18  C   UNL     1     -10.994 -44.601  30.213  1.00  0.00     0.047 A 
ATOM     19  C   UNL     1     -11.686 -45.389  31.137  1.00  0.00     0.004 A 
ATOM     20  C   UNL     1     -13.489 -45.635  29.564  1.00  0.00     0.018 A 
ATOM     21  C   UNL     1     -12.932 -45.907  30.813  1.00  0.00     0.001 A 
BRANCH  17  22
ATOM     22  O   UNL     1     -10.893 -43.551  28.012  1.00  0.00    -0.496 OA
ATOM     23  C   UNL     1     -10.739 -42.161  28.288  1.00  0.00     0.278 C 
ENDBRANCH  17  22
ENDBRANCH  13  16
ENDBRANCH   1  12
BRANCH   8  24
ATOM     24  C   UNL     1     -20.381 -41.750  24.436  1.00  0.00     0.264 C 
ATOM     25  O   UNL     1     -20.675 -40.763  25.108  1.00  0.00    -0.268 OA
BRANCH  24  26
ATOM     26  C   UNL     1     -21.456 -42.736  24.168  1.00  0.00     0.082 A 
ATOM     27  C   UNL     1     -22.057 -42.734  22.902  1.00  0.00     0.018 A 
ATOM     28  C   UNL     1     -21.847 -43.686  25.119  1.00  0.00     0.131 A 
ATOM     29  C   UNL     1     -23.081 -43.640  22.615  1.00  0.00     0.001 A 
ATOM     30  C   UNL     1     -22.887 -44.575  24.837  1.00  0.00     0.047 A 
ATOM     31  C   UNL     1     -23.500 -44.552  23.584  1.00  0.00     0.004 A 
BRANCH  28  32
ATOM     32  O   UNL     1     -21.277 -43.748  26.364  1.00  0.00    -0.496 OA
ATOM     33  C   UNL     1     -22.285 -43.636  27.375  1.00  0.00     0.278 C 
ENDBRANCH  28  32
ENDBRANCH  24  26
ENDBRANCH   8  24
TORSDOF 6
ENDMDL
