MODEL 1
REMARK VINA RESULT:    -9.404      0.000      0.000
REMARK INTER + INTRA:         -14.380
REMARK INTER:                 -12.977
REMARK INTRA:                  -1.403
REMARK UNBOUND:                -1.403
REMARK SMILES COc1ccc(OC)c([C@H]2CC(c3cc(F)cc(F)c3)=NN2c2ccc(S(N)(=O)=O)cc2)c1
REMARK SMILES IDX 23 1 24 2 25 3 26 4 31 5 32 6 22 7 10 8 11 9 12 10 21 11
REMARK SMILES IDX 9 12 3 13 4 14 33 15 5 16 6 17 2 18 1 19 7 20 8 21 13 22
REMARK SMILES IDX 14 23 20 24 15 25 18 26 17 27 16 28 19 29 27 30 29 31 30 32
REMARK SMILES IDX 28 33
REMARK H PARENT 28 34 28 35
ROOT
ATOM      1  C   UNL     1     -20.030 -41.044  23.733  1.00  0.00     0.060 A 
ATOM      2  C   UNL     1     -21.338 -40.549  23.906  1.00  0.00     0.029 A 
ATOM      3  C   UNL     1     -22.022 -39.874  22.890  1.00  0.00     0.024 A 
ATOM      4  C   UNL     1     -21.391 -39.670  21.666  1.00  0.00     0.082 A 
ATOM      5  C   UNL     1     -20.103 -40.156  21.450  1.00  0.00     0.024 A 
ATOM      6  C   UNL     1     -19.436 -40.833  22.480  1.00  0.00     0.029 A 
ENDROOT
BRANCH   1   7
ATOM      7  N   UNL     1     -19.382 -41.705  24.776  1.00  0.00    -0.257 N 
ATOM      8  C   UNL     1     -19.896 -41.896  26.140  1.00  0.00     0.148 C 
ATOM      9  C   UNL     1     -18.640 -42.241  26.943  1.00  0.00     0.091 C 
ATOM     10  C   UNL     1     -17.638 -42.384  25.832  1.00  0.00     0.071 C 
ATOM     11  N   UNL     1     -18.061 -42.039  24.655  1.00  0.00    -0.176 NA
BRANCH   8  12
ATOM     12  C   UNL     1     -20.974 -42.965  26.234  1.00  0.00     0.023 A 
ATOM     13  C   UNL     1     -21.689 -45.245  25.663  1.00  0.00     0.119 A 
ATOM     14  C   UNL     1     -22.902 -45.033  26.311  1.00  0.00     0.050 A 
ATOM     15  C   UNL     1     -20.743 -44.214  25.623  1.00  0.00     0.056 A 
ATOM     16  C   UNL     1     -23.162 -43.799  26.912  1.00  0.00     0.050 A 
ATOM     17  C   UNL     1     -22.202 -42.782  26.887  1.00  0.00     0.124 A 
BRANCH  13  18
ATOM     18  O   UNL     1     -21.304 -46.393  25.029  1.00  0.00    -0.497 OA
ATOM     19  C   UNL     1     -22.288 -47.054  24.242  1.00  0.00     0.278 C 
ENDBRANCH  13  18
BRANCH  17  20
ATOM     20  O   UNL     1     -22.521 -41.565  27.428  1.00  0.00    -0.496 OA
ATOM     21  C   UNL     1     -23.924 -41.313  27.316  1.00  0.00     0.278 C 
ENDBRANCH  17  20
ENDBRANCH   8  12
BRANCH  10  22
ATOM     22  C   UNL     1     -16.256 -42.856  26.080  1.00  0.00     0.004 A 
ATOM     23  C   UNL     1     -15.904 -43.490  27.275  1.00  0.00     0.049 A 
ATOM     24  C   UNL     1     -15.287 -42.660  25.089  1.00  0.00     0.049 A 
ATOM     25  C   UNL     1     -14.592 -43.919  27.461  1.00  0.00     0.126 A 
ATOM     26  C   UNL     1     -13.983 -43.101  25.303  1.00  0.00     0.126 A 
ATOM     27  C   UNL     1     -13.624 -43.732  26.484  1.00  0.00     0.078 A 
ATOM     28  F   UNL     1     -14.260 -44.526  28.607  1.00  0.00    -0.207 F 
ATOM     29  F   UNL     1     -13.061 -42.913  24.351  1.00  0.00    -0.207 F 
ENDBRANCH  10  22
ENDBRANCH   1   7
BRANCH   4  30
ATOM     30  S   UNL     1     -22.230 -38.811  20.365  1.00  0.00     0.238 S 
ATOM     31  O   UNL     1     -21.249 -38.129  19.556  1.00  0.00    -0.207 OA
ATOM     32  O   UNL     1     -23.232 -39.687  19.802  1.00  0.00    -0.207 OA
BRANCH  30  33
ATOM     33  N   UNL     1     -23.085 -37.646  21.233  1.00  0.00    -0.225 NA
ATOM     34  H   UNL     1     -23.473 -38.084  22.072  1.00  0.00     0.137 HD
ATOM     35  H   UNL     1     -22.522 -36.826  21.459  1.00  0.00     0.137 HD
ENDBRANCH  30  33
ENDBRANCH   4  30
TORSDOF 7
ENDMDL
MODEL 2
REMARK VINA RESULT:    -9.359      0.241      1.672
REMARK INTER + INTRA:         -14.318
REMARK INTER:                 -12.920
REMARK INTRA:                  -1.397
REMARK UNBOUND:                -1.403
REMARK SMILES COc1ccc(OC)c([C@H]2CC(c3cc(F)cc(F)c3)=NN2c2ccc(S(N)(=O)=O)cc2)c1
REMARK SMILES IDX 23 1 24 2 25 3 26 4 31 5 32 6 22 7 10 8 11 9 12 10 21 11
REMARK SMILES IDX 9 12 3 13 4 14 33 15 5 16 6 17 2 18 1 19 7 20 8 21 13 22
REMARK SMILES IDX 14 23 20 24 15 25 18 26 17 27 16 28 19 29 27 30 29 31 30 32
REMARK SMILES IDX 28 33
REMARK H PARENT 28 34 28 35
ROOT
ATOM      1  C   UNL     1     -20.152 -40.916  23.697  1.00  0.00     0.060 A 
ATOM      2  C   UNL     1     -19.478 -40.616  22.495  1.00  0.00     0.029 A 
ATOM      3  C   UNL     1     -20.110 -39.972  21.426  1.00  0.00     0.024 A 
ATOM      4  C   UNL     1     -21.451 -39.622  21.541  1.00  0.00     0.082 A 
ATOM      5  C   UNL     1     -22.150 -39.888  22.716  1.00  0.00     0.024 A 
ATOM      6  C   UNL     1     -21.499 -40.531  23.778  1.00  0.00     0.029 A 
ENDROOT
BRANCH   1   7
ATOM      7  N   UNL     1     -19.486 -41.566  24.735  1.00  0.00    -0.257 N 
ATOM      8  C   UNL     1     -19.959 -41.711  26.119  1.00  0.00     0.148 C 
ATOM      9  C   UNL     1     -18.686 -42.066  26.889  1.00  0.00     0.091 C 
ATOM     10  C   UNL     1     -17.725 -42.261  25.752  1.00  0.00     0.071 C 
ATOM     11  N   UNL     1     -18.178 -41.935  24.580  1.00  0.00    -0.176 NA
BRANCH   8  12
ATOM     12  C   UNL     1     -21.059 -42.751  26.275  1.00  0.00     0.023 A 
ATOM     13  C   UNL     1     -21.808 -45.053  25.862  1.00  0.00     0.119 A 
ATOM     14  C   UNL     1     -23.027 -44.772  26.474  1.00  0.00     0.050 A 
ATOM     15  C   UNL     1     -20.843 -44.045  25.761  1.00  0.00     0.056 A 
ATOM     16  C   UNL     1     -23.271 -43.494  26.979  1.00  0.00     0.050 A 
ATOM     17  C   UNL     1     -22.292 -42.498  26.894  1.00  0.00     0.124 A 
BRANCH  13  18
ATOM     18  O   UNL     1     -21.437 -46.252  25.319  1.00  0.00    -0.497 OA
ATOM     19  C   UNL     1     -22.194 -46.719  24.209  1.00  0.00     0.278 C 
ENDBRANCH  13  18
BRANCH  17  20
ATOM     20  O   UNL     1     -22.596 -41.240  27.339  1.00  0.00    -0.496 OA
ATOM     21  C   UNL     1     -23.973 -41.153  27.713  1.00  0.00     0.278 C 
ENDBRANCH  17  20
ENDBRANCH   8  12
BRANCH  10  22
ATOM     22  C   UNL     1     -16.348 -42.760  25.967  1.00  0.00     0.004 A 
ATOM     23  C   UNL     1     -15.362 -42.634  24.984  1.00  0.00     0.049 A 
ATOM     24  C   UNL     1     -16.033 -43.372  27.187  1.00  0.00     0.049 A 
ATOM     25  C   UNL     1     -14.080 -43.116  25.234  1.00  0.00     0.126 A 
ATOM     26  C   UNL     1     -14.742 -43.844  27.409  1.00  0.00     0.126 A 
ATOM     27  C   UNL     1     -13.757 -43.722  26.441  1.00  0.00     0.078 A 
ATOM     28  F   UNL     1     -13.139 -42.992  24.289  1.00  0.00    -0.207 F 
ATOM     29  F   UNL     1     -14.446 -44.425  28.578  1.00  0.00    -0.207 F 
ENDBRANCH  10  22
ENDBRANCH   1   7
BRANCH   4  30
ATOM     30  S   UNL     1     -22.277 -38.814  20.199  1.00  0.00     0.238 S 
ATOM     31  O   UNL     1     -21.282 -38.300  19.289  1.00  0.00    -0.207 OA
ATOM     32  O   UNL     1     -23.376 -39.645  19.763  1.00  0.00    -0.207 OA
BRANCH  30  33
ATOM     33  N   UNL     1     -22.987 -37.503  20.985  1.00  0.00    -0.225 NA
ATOM     34  H   UNL     1     -23.979 -37.475  20.741  1.00  0.00     0.137 HD
ATOM     35  H   UNL     1     -22.845 -37.521  21.996  1.00  0.00     0.137 HD
ENDBRANCH  30  33
ENDBRANCH   4  30
TORSDOF 7
ENDMDL
MODEL 3
REMARK VINA RESULT:    -9.251      1.009      1.320
REMARK INTER + INTRA:         -14.169
REMARK INTER:                 -12.780
REMARK INTRA:                  -1.388
REMARK UNBOUND:                -1.403
REMARK SMILES COc1ccc(OC)c([C@H]2CC(c3cc(F)cc(F)c3)=NN2c2ccc(S(N)(=O)=O)cc2)c1
REMARK SMILES IDX 23 1 24 2 25 3 26 4 31 5 32 6 22 7 10 8 11 9 12 10 21 11
REMARK SMILES IDX 9 12 3 13 4 14 33 15 5 16 6 17 2 18 1 19 7 20 8 21 13 22
REMARK SMILES IDX 14 23 20 24 15 25 18 26 17 27 16 28 19 29 27 30 29 31 30 32
REMARK SMILES IDX 28 33
REMARK H PARENT 28 34 28 35
ROOT
ATOM      1  C   UNL     1     -20.275 -40.656  23.240  1.00  0.00     0.060 A 
ATOM      2  C   UNL     1     -19.604 -40.413  22.025  1.00  0.00     0.029 A 
ATOM      3  C   UNL     1     -20.194 -39.702  20.975  1.00  0.00     0.024 A 
ATOM      4  C   UNL     1     -21.492 -39.223  21.124  1.00  0.00     0.082 A 
ATOM      5  C   UNL     1     -22.185 -39.429  22.315  1.00  0.00     0.024 A 
ATOM      6  C   UNL     1     -21.575 -40.142  23.356  1.00  0.00     0.029 A 
ENDROOT
BRANCH   1   7
ATOM      7  N   UNL     1     -19.652 -41.376  24.259  1.00  0.00    -0.257 N 
ATOM      8  C   UNL     1     -20.081 -41.452  25.662  1.00  0.00     0.148 C 
ATOM      9  C   UNL     1     -18.831 -41.957  26.385  1.00  0.00     0.091 C 
ATOM     10  C   UNL     1     -17.950 -42.278  25.211  1.00  0.00     0.071 C 
ATOM     11  N   UNL     1     -18.408 -41.907  24.055  1.00  0.00    -0.176 NA
BRANCH   8  12
ATOM     12  C   UNL     1     -21.293 -42.345  25.876  1.00  0.00     0.023 A 
ATOM     13  C   UNL     1     -22.475 -44.414  25.277  1.00  0.00     0.119 A 
ATOM     14  C   UNL     1     -23.504 -44.087  26.156  1.00  0.00     0.050 A 
ATOM     15  C   UNL     1     -21.389 -43.543  25.139  1.00  0.00     0.056 A 
ATOM     16  C   UNL     1     -23.441 -42.899  26.887  1.00  0.00     0.050 A 
ATOM     17  C   UNL     1     -22.341 -42.046  26.759  1.00  0.00     0.124 A 
BRANCH  13  18
ATOM     18  O   UNL     1     -22.408 -45.534  24.496  1.00  0.00    -0.497 OA
ATOM     19  C   UNL     1     -23.259 -46.618  24.849  1.00  0.00     0.278 C 
ENDBRANCH  13  18
BRANCH  17  20
ATOM     20  O   UNL     1     -22.349 -40.858  27.441  1.00  0.00    -0.496 OA
ATOM     21  C   UNL     1     -23.226 -39.920  26.814  1.00  0.00     0.278 C 
ENDBRANCH  17  20
ENDBRANCH   8  12
BRANCH  10  22
ATOM     22  C   UNL     1     -16.637 -42.943  25.376  1.00  0.00     0.004 A 
ATOM     23  C   UNL     1     -16.016 -43.033  26.625  1.00  0.00     0.049 A 
ATOM     24  C   UNL     1     -16.011 -43.493  24.251  1.00  0.00     0.049 A 
ATOM     25  C   UNL     1     -14.782 -43.671  26.731  1.00  0.00     0.126 A 
ATOM     26  C   UNL     1     -14.778 -44.125  24.388  1.00  0.00     0.126 A 
ATOM     27  C   UNL     1     -14.154 -44.221  25.622  1.00  0.00     0.078 A 
ATOM     28  F   UNL     1     -14.191 -43.755  27.930  1.00  0.00    -0.207 F 
ATOM     29  F   UNL     1     -14.185 -44.651  23.309  1.00  0.00    -0.207 F 
ENDBRANCH  10  22
ENDBRANCH   1   7
BRANCH   4  30
ATOM     30  S   UNL     1     -22.266 -38.327  19.808  1.00  0.00     0.238 S 
ATOM     31  O   UNL     1     -21.246 -37.622  19.069  1.00  0.00    -0.207 OA
ATOM     32  O   UNL     1     -23.236 -39.188  19.169  1.00  0.00    -0.207 OA
BRANCH  30  33
ATOM     33  N   UNL     1     -23.167 -37.189  20.664  1.00  0.00    -0.225 NA
ATOM     34  H   UNL     1     -22.971 -37.301  21.661  1.00  0.00     0.137 HD
ATOM     35  H   UNL     1     -23.001 -36.232  20.350  1.00  0.00     0.137 HD
ENDBRANCH  30  33
ENDBRANCH   4  30
TORSDOF 7
ENDMDL
MODEL 4
REMARK VINA RESULT:    -8.638      4.577      7.699
REMARK INTER + INTRA:         -13.323
REMARK INTER:                 -11.990
REMARK INTRA:                  -1.333
REMARK UNBOUND:                -1.403
REMARK SMILES COc1ccc(OC)c([C@H]2CC(c3cc(F)cc(F)c3)=NN2c2ccc(S(N)(=O)=O)cc2)c1
REMARK SMILES IDX 23 1 24 2 25 3 26 4 31 5 32 6 22 7 10 8 11 9 12 10 21 11
REMARK SMILES IDX 9 12 3 13 4 14 33 15 5 16 6 17 2 18 1 19 7 20 8 21 13 22
REMARK SMILES IDX 14 23 20 24 15 25 18 26 17 27 16 28 19 29 27 30 29 31 30 32
REMARK SMILES IDX 28 33
REMARK H PARENT 28 34 28 35
ROOT
ATOM      1  C   UNL     1     -19.314 -41.823  26.051  1.00  0.00     0.060 A 
ATOM      2  C   UNL     1     -18.722 -42.026  27.314  1.00  0.00     0.029 A 
ATOM      3  C   UNL     1     -17.401 -42.464  27.458  1.00  0.00     0.024 A 
ATOM      4  C   UNL     1     -16.643 -42.720  26.319  1.00  0.00     0.082 A 
ATOM      5  C   UNL     1     -17.186 -42.519  25.053  1.00  0.00     0.024 A 
ATOM      6  C   UNL     1     -18.510 -42.077  24.929  1.00  0.00     0.029 A 
ENDROOT
BRANCH   1   7
ATOM      7  N   UNL     1     -20.637 -41.393  25.953  1.00  0.00    -0.257 N 
ATOM      8  C   UNL     1     -21.323 -40.954  24.730  1.00  0.00     0.148 C 
ATOM      9  C   UNL     1     -22.532 -40.183  25.263  1.00  0.00     0.091 C 
ATOM     10  C   UNL     1     -22.428 -40.495  26.729  1.00  0.00     0.071 C 
ATOM     11  N   UNL     1     -21.351 -41.124  27.088  1.00  0.00    -0.176 NA
BRANCH   8  12
ATOM     12  C   UNL     1     -21.709 -42.102  23.809  1.00  0.00     0.023 A 
ATOM     13  C   UNL     1     -22.432 -44.440  23.603  1.00  0.00     0.119 A 
ATOM     14  C   UNL     1     -22.423 -44.327  22.215  1.00  0.00     0.050 A 
ATOM     15  C   UNL     1     -22.070 -43.337  24.384  1.00  0.00     0.056 A 
ATOM     16  C   UNL     1     -22.055 -43.118  21.621  1.00  0.00     0.050 A 
ATOM     17  C   UNL     1     -21.716 -42.014  22.410  1.00  0.00     0.124 A 
BRANCH  13  18
ATOM     18  O   UNL     1     -22.762 -45.559  24.317  1.00  0.00    -0.497 OA
ATOM     19  C   UNL     1     -21.715 -46.190  25.044  1.00  0.00     0.278 C 
ENDBRANCH  13  18
BRANCH  17  20
ATOM     20  O   UNL     1     -21.295 -40.869  21.788  1.00  0.00    -0.496 OA
ATOM     21  C   UNL     1     -20.553 -41.177  20.606  1.00  0.00     0.278 C 
ENDBRANCH  17  20
ENDBRANCH   8  12
BRANCH  10  22
ATOM     22  C   UNL     1     -23.472 -40.080  27.694  1.00  0.00     0.004 A 
ATOM     23  C   UNL     1     -24.280 -41.017  28.344  1.00  0.00     0.049 A 
ATOM     24  C   UNL     1     -23.648 -38.716  27.956  1.00  0.00     0.049 A 
ATOM     25  C   UNL     1     -25.247 -40.579  29.245  1.00  0.00     0.126 A 
ATOM     26  C   UNL     1     -24.622 -38.307  28.862  1.00  0.00     0.126 A 
ATOM     27  C   UNL     1     -25.428 -39.229  29.513  1.00  0.00     0.078 A 
ATOM     28  F   UNL     1     -26.019 -41.481  29.866  1.00  0.00    -0.207 F 
ATOM     29  F   UNL     1     -24.784 -37.002  29.111  1.00  0.00    -0.207 F 
ENDBRANCH  10  22
ENDBRANCH   1   7
BRANCH   4  30
ATOM     30  S   UNL     1     -14.972 -43.284  26.473  1.00  0.00     0.238 S 
ATOM     31  O   UNL     1     -14.762 -44.364  25.539  1.00  0.00    -0.207 OA
ATOM     32  O   UNL     1     -14.099 -42.134  26.542  1.00  0.00    -0.207 OA
BRANCH  30  33
ATOM     33  N   UNL     1     -14.982 -43.937  28.027  1.00  0.00    -0.225 NA
ATOM     34  H   UNL     1     -15.310 -44.903  27.972  1.00  0.00     0.137 HD
ATOM     35  H   UNL     1     -14.077 -43.870  28.493  1.00  0.00     0.137 HD
ENDBRANCH  30  33
ENDBRANCH   4  30
TORSDOF 7
ENDMDL
MODEL 5
REMARK VINA RESULT:    -8.621      3.476      5.902
REMARK INTER + INTRA:         -13.300
REMARK INTER:                 -11.721
REMARK INTRA:                  -1.579
REMARK UNBOUND:                -1.403
REMARK SMILES COc1ccc(OC)c([C@H]2CC(c3cc(F)cc(F)c3)=NN2c2ccc(S(N)(=O)=O)cc2)c1
REMARK SMILES IDX 23 1 24 2 25 3 26 4 31 5 32 6 22 7 10 8 11 9 12 10 21 11
REMARK SMILES IDX 9 12 3 13 4 14 33 15 5 16 6 17 2 18 1 19 7 20 8 21 13 22
REMARK SMILES IDX 14 23 20 24 15 25 18 26 17 27 16 28 19 29 27 30 29 31 30 32
REMARK SMILES IDX 28 33
REMARK H PARENT 28 34 28 35
ROOT
ATOM      1  C   UNL     1     -23.166 -40.052  27.036  1.00  0.00     0.060 A 
ATOM      2  C   UNL     1     -23.867 -40.652  28.102  1.00  0.00     0.029 A 
ATOM      3  C   UNL     1     -24.912 -40.003  28.768  1.00  0.00     0.024 A 
ATOM      4  C   UNL     1     -25.271 -38.717  28.376  1.00  0.00     0.082 A 
ATOM      5  C   UNL     1     -24.613 -38.094  27.318  1.00  0.00     0.024 A 
ATOM      6  C   UNL     1     -23.571 -38.761  26.662  1.00  0.00     0.029 A 
ENDROOT
BRANCH   1   7
ATOM      7  N   UNL     1     -22.125 -40.731  26.406  1.00  0.00    -0.257 N 
ATOM      8  C   UNL     1     -22.229 -41.555  25.193  1.00  0.00     0.148 C 
ATOM      9  C   UNL     1     -20.952 -42.397  25.230  1.00  0.00     0.091 C 
ATOM     10  C   UNL     1     -20.231 -41.748  26.378  1.00  0.00     0.071 C 
ATOM     11  N   UNL     1     -20.918 -40.865  27.036  1.00  0.00    -0.176 NA
BRANCH   8  12
ATOM     12  C   UNL     1     -22.366 -40.738  23.918  1.00  0.00     0.023 A 
ATOM     13  C   UNL     1     -21.240 -39.530  22.099  1.00  0.00     0.119 A 
ATOM     14  C   UNL     1     -22.474 -39.189  21.554  1.00  0.00     0.050 A 
ATOM     15  C   UNL     1     -21.195 -40.291  23.273  1.00  0.00     0.056 A 
ATOM     16  C   UNL     1     -23.650 -39.607  22.181  1.00  0.00     0.050 A 
ATOM     17  C   UNL     1     -23.595 -40.386  23.342  1.00  0.00     0.124 A 
BRANCH  13  18
ATOM     18  O   UNL     1     -20.015 -39.186  21.598  1.00  0.00    -0.497 OA
ATOM     19  C   UNL     1     -18.982 -40.159  21.695  1.00  0.00     0.278 C 
ENDBRANCH  13  18
BRANCH  17  20
ATOM     20  O   UNL     1     -24.769 -40.717  23.965  1.00  0.00    -0.496 OA
ATOM     21  C   UNL     1     -25.806 -39.798  23.614  1.00  0.00     0.278 C 
ENDBRANCH  17  20
ENDBRANCH   8  12
BRANCH  10  22
ATOM     22  C   UNL     1     -18.846 -42.121  26.744  1.00  0.00     0.004 A 
ATOM     23  C   UNL     1     -18.443 -42.214  28.079  1.00  0.00     0.049 A 
ATOM     24  C   UNL     1     -17.924 -42.385  25.723  1.00  0.00     0.049 A 
ATOM     25  C   UNL     1     -17.130 -42.571  28.374  1.00  0.00     0.126 A 
ATOM     26  C   UNL     1     -16.618 -42.741  26.049  1.00  0.00     0.126 A 
ATOM     27  C   UNL     1     -16.209 -42.837  27.370  1.00  0.00     0.078 A 
ATOM     28  F   UNL     1     -16.749 -42.659  29.655  1.00  0.00    -0.207 F 
ATOM     29  F   UNL     1     -15.742 -42.995  25.069  1.00  0.00    -0.207 F 
ENDBRANCH  10  22
ENDBRANCH   1   7
BRANCH   4  30
ATOM     30  S   UNL     1     -26.585 -37.869  29.208  1.00  0.00     0.238 S 
ATOM     31  O   UNL     1     -27.397 -37.199  28.221  1.00  0.00    -0.207 OA
ATOM     32  O   UNL     1     -27.144 -38.749  30.209  1.00  0.00    -0.207 OA
BRANCH  30  33
ATOM     33  N   UNL     1     -25.734 -36.694  30.064  1.00  0.00    -0.225 NA
ATOM     34  H   UNL     1     -25.763 -35.820  29.535  1.00  0.00     0.137 HD
ATOM     35  H   UNL     1     -26.075 -36.571  31.018  1.00  0.00     0.137 HD
ENDBRANCH  30  33
ENDBRANCH   4  30
TORSDOF 7
ENDMDL
MODEL 6
REMARK VINA RESULT:    -8.503      4.427      7.757
REMARK INTER + INTRA:         -13.138
REMARK INTER:                 -11.752
REMARK INTRA:                  -1.386
REMARK UNBOUND:                -1.403
REMARK SMILES COc1ccc(OC)c([C@H]2CC(c3cc(F)cc(F)c3)=NN2c2ccc(S(N)(=O)=O)cc2)c1
REMARK SMILES IDX 23 1 24 2 25 3 26 4 31 5 32 6 22 7 10 8 11 9 12 10 21 11
REMARK SMILES IDX 9 12 3 13 4 14 33 15 5 16 6 17 2 18 1 19 7 20 8 21 13 22
REMARK SMILES IDX 14 23 20 24 15 25 18 26 17 27 16 28 19 29 27 30 29 31 30 32
REMARK SMILES IDX 28 33
REMARK H PARENT 28 34 28 35
ROOT
ATOM      1  C   UNL     1     -18.967 -42.186  24.247  1.00  0.00     0.060 A 
ATOM      2  C   UNL     1     -18.894 -42.111  25.653  1.00  0.00     0.029 A 
ATOM      3  C   UNL     1     -17.721 -42.402  26.357  1.00  0.00     0.024 A 
ATOM      4  C   UNL     1     -16.586 -42.791  25.652  1.00  0.00     0.082 A 
ATOM      5  C   UNL     1     -16.611 -42.864  24.262  1.00  0.00     0.024 A 
ATOM      6  C   UNL     1     -17.796 -42.565  23.574  1.00  0.00     0.029 A 
ENDROOT
BRANCH   1   7
ATOM      7  N   UNL     1     -20.159 -41.895  23.586  1.00  0.00    -0.257 N 
ATOM      8  C   UNL     1     -21.442 -42.592  23.753  1.00  0.00     0.148 C 
ATOM      9  C   UNL     1     -22.225 -42.190  22.501  1.00  0.00     0.091 C 
ATOM     10  C   UNL     1     -21.305 -41.151  21.927  1.00  0.00     0.071 C 
ATOM     11  N   UNL     1     -20.155 -41.040  22.517  1.00  0.00    -0.176 NA
BRANCH   8  12
ATOM     12  C   UNL     1     -22.160 -42.234  25.045  1.00  0.00     0.023 A 
ATOM     13  C   UNL     1     -23.261 -40.500  26.392  1.00  0.00     0.119 A 
ATOM     14  C   UNL     1     -23.486 -41.424  27.409  1.00  0.00     0.050 A 
ATOM     15  C   UNL     1     -22.598 -40.907  25.230  1.00  0.00     0.056 A 
ATOM     16  C   UNL     1     -23.049 -42.742  27.257  1.00  0.00     0.050 A 
ATOM     17  C   UNL     1     -22.407 -43.146  26.082  1.00  0.00     0.124 A 
BRANCH  13  18
ATOM     18  O   UNL     1     -23.625 -39.182  26.408  1.00  0.00    -0.497 OA
ATOM     19  C   UNL     1     -23.861 -38.593  27.681  1.00  0.00     0.278 C 
ENDBRANCH  13  18
BRANCH  17  20
ATOM     20  O   UNL     1     -21.934 -44.428  26.000  1.00  0.00    -0.496 OA
ATOM     21  C   UNL     1     -21.292 -44.809  27.219  1.00  0.00     0.278 C 
ENDBRANCH  17  20
ENDBRANCH   8  12
BRANCH  10  22
ATOM     22  C   UNL     1     -21.681 -40.337  20.748  1.00  0.00     0.004 A 
ATOM     23  C   UNL     1     -21.285 -39.003  20.625  1.00  0.00     0.049 A 
ATOM     24  C   UNL     1     -22.451 -40.926  19.737  1.00  0.00     0.049 A 
ATOM     25  C   UNL     1     -21.662 -38.278  19.497  1.00  0.00     0.126 A 
ATOM     26  C   UNL     1     -22.811 -40.177  18.620  1.00  0.00     0.126 A 
ATOM     27  C   UNL     1     -22.423 -38.853  18.488  1.00  0.00     0.078 A 
ATOM     28  F   UNL     1     -21.279 -37.000  19.383  1.00  0.00    -0.207 F 
ATOM     29  F   UNL     1     -23.545 -40.746  17.656  1.00  0.00    -0.207 F 
ENDBRANCH  10  22
ENDBRANCH   1   7
BRANCH   4  30
ATOM     30  S   UNL     1     -15.090 -43.174  26.519  1.00  0.00     0.238 S 
ATOM     31  O   UNL     1     -14.635 -44.478  26.099  1.00  0.00    -0.207 OA
ATOM     32  O   UNL     1     -14.235 -42.009  26.506  1.00  0.00    -0.207 OA
BRANCH  30  33
ATOM     33  N   UNL     1     -15.648 -43.306  28.104  1.00  0.00    -0.225 NA
ATOM     34  H   UNL     1     -16.670 -43.311  28.090  1.00  0.00     0.137 HD
ATOM     35  H   UNL     1     -15.271 -44.119  28.592  1.00  0.00     0.137 HD
ENDBRANCH  30  33
ENDBRANCH   4  30
TORSDOF 7
ENDMDL
MODEL 7
REMARK VINA RESULT:    -8.406      4.383      7.676
REMARK INTER + INTRA:         -13.003
REMARK INTER:                 -11.514
REMARK INTRA:                  -1.489
REMARK UNBOUND:                -1.403
REMARK SMILES COc1ccc(OC)c([C@H]2CC(c3cc(F)cc(F)c3)=NN2c2ccc(S(N)(=O)=O)cc2)c1
REMARK SMILES IDX 23 1 24 2 25 3 26 4 31 5 32 6 22 7 10 8 11 9 12 10 21 11
REMARK SMILES IDX 9 12 3 13 4 14 33 15 5 16 6 17 2 18 1 19 7 20 8 21 13 22
REMARK SMILES IDX 14 23 20 24 15 25 18 26 17 27 16 28 19 29 27 30 29 31 30 32
REMARK SMILES IDX 28 33
REMARK H PARENT 28 34 28 35
ROOT
ATOM      1  C   UNL     1     -18.878 -42.152  24.077  1.00  0.00     0.060 A 
ATOM      2  C   UNL     1     -17.819 -42.481  23.207  1.00  0.00     0.029 A 
ATOM      3  C   UNL     1     -16.540 -42.804  23.675  1.00  0.00     0.024 A 
ATOM      4  C   UNL     1     -16.296 -42.792  25.045  1.00  0.00     0.082 A 
ATOM      5  C   UNL     1     -17.319 -42.486  25.939  1.00  0.00     0.024 A 
ATOM      6  C   UNL     1     -18.593 -42.168  25.451  1.00  0.00     0.029 A 
ENDROOT
BRANCH   1   7
ATOM      7  N   UNL     1     -20.135 -41.828  23.568  1.00  0.00    -0.257 N 
ATOM      8  C   UNL     1     -21.310 -42.709  23.523  1.00  0.00     0.148 C 
ATOM      9  C   UNL     1     -22.211 -42.038  22.484  1.00  0.00     0.091 C 
ATOM     10  C   UNL     1     -21.461 -40.756  22.260  1.00  0.00     0.071 C 
ATOM     11  N   UNL     1     -20.299 -40.686  22.834  1.00  0.00    -0.176 NA
BRANCH   8  12
ATOM     12  C   UNL     1     -21.987 -42.881  24.875  1.00  0.00     0.023 A 
ATOM     13  C   UNL     1     -23.474 -41.933  26.584  1.00  0.00     0.119 A 
ATOM     14  C   UNL     1     -23.287 -43.060  27.380  1.00  0.00     0.050 A 
ATOM     15  C   UNL     1     -22.821 -41.849  25.350  1.00  0.00     0.056 A 
ATOM     16  C   UNL     1     -22.454 -44.090  26.940  1.00  0.00     0.050 A 
ATOM     17  C   UNL     1     -21.823 -44.008  25.694  1.00  0.00     0.124 A 
BRANCH  13  18
ATOM     18  O   UNL     1     -24.252 -40.851  26.890  1.00  0.00    -0.497 OA
ATOM     19  C   UNL     1     -23.950 -40.162  28.098  1.00  0.00     0.278 C 
ENDBRANCH  13  18
BRANCH  17  20
ATOM     20  O   UNL     1     -20.961 -45.007  25.329  1.00  0.00    -0.496 OA
ATOM     21  C   UNL     1     -21.677 -46.195  24.985  1.00  0.00     0.278 C 
ENDBRANCH  17  20
ENDBRANCH   8  12
BRANCH  10  22
ATOM     22  C   UNL     1     -22.004 -39.668  21.416  1.00  0.00     0.004 A 
ATOM     23  C   UNL     1     -23.332 -39.249  21.529  1.00  0.00     0.049 A 
ATOM     24  C   UNL     1     -21.161 -39.049  20.484  1.00  0.00     0.049 A 
ATOM     25  C   UNL     1     -23.797 -38.219  20.715  1.00  0.00     0.126 A 
ATOM     26  C   UNL     1     -21.654 -38.022  19.684  1.00  0.00     0.126 A 
ATOM     27  C   UNL     1     -22.970 -37.598  19.790  1.00  0.00     0.078 A 
ATOM     28  F   UNL     1     -25.071 -37.821  20.828  1.00  0.00    -0.207 F 
ATOM     29  F   UNL     1     -20.843 -37.433  18.798  1.00  0.00    -0.207 F 
ENDBRANCH  10  22
ENDBRANCH   1   7
BRANCH   4  30
ATOM     30  S   UNL     1     -14.685 -43.188  25.663  1.00  0.00     0.238 S 
ATOM     31  O   UNL     1     -14.341 -42.239  26.695  1.00  0.00    -0.207 OA
ATOM     32  O   UNL     1     -14.603 -44.618  25.861  1.00  0.00    -0.207 OA
BRANCH  30  33
ATOM     33  N   UNL     1     -13.722 -42.863  24.318  1.00  0.00    -0.225 NA
ATOM     34  H   UNL     1     -12.797 -42.575  24.642  1.00  0.00     0.137 HD
ATOM     35  H   UNL     1     -13.670 -43.647  23.667  1.00  0.00     0.137 HD
ENDBRANCH  30  33
ENDBRANCH   4  30
TORSDOF 7
ENDMDL
MODEL 8
REMARK VINA RESULT:    -8.164      4.505      7.893
REMARK INTER + INTRA:         -12.669
REMARK INTER:                 -11.827
REMARK INTRA:                  -0.842
REMARK UNBOUND:                -1.403
REMARK SMILES COc1ccc(OC)c([C@H]2CC(c3cc(F)cc(F)c3)=NN2c2ccc(S(N)(=O)=O)cc2)c1
REMARK SMILES IDX 23 1 24 2 25 3 26 4 31 5 32 6 22 7 10 8 11 9 12 10 21 11
REMARK SMILES IDX 9 12 3 13 4 14 33 15 5 16 6 17 2 18 1 19 7 20 8 21 13 22
REMARK SMILES IDX 14 23 20 24 15 25 18 26 17 27 16 28 19 29 27 30 29 31 30 32
REMARK SMILES IDX 28 33
REMARK H PARENT 28 34 28 35
ROOT
ATOM      1  C   UNL     1     -19.085 -42.006  26.047  1.00  0.00     0.060 A 
ATOM      2  C   UNL     1     -18.499 -42.106  27.325  1.00  0.00     0.029 A 
ATOM      3  C   UNL     1     -17.177 -42.526  27.510  1.00  0.00     0.024 A 
ATOM      4  C   UNL     1     -16.412 -42.870  26.400  1.00  0.00     0.082 A 
ATOM      5  C   UNL     1     -16.949 -42.773  25.118  1.00  0.00     0.024 A 
ATOM      6  C   UNL     1     -18.274 -42.346  24.953  1.00  0.00     0.029 A 
ENDROOT
BRANCH   1   7
ATOM      7  N   UNL     1     -20.408 -41.590  25.908  1.00  0.00    -0.257 N 
ATOM      8  C   UNL     1     -20.964 -40.809  24.794  1.00  0.00     0.148 C 
ATOM      9  C   UNL     1     -22.271 -40.260  25.369  1.00  0.00     0.091 C 
ATOM     10  C   UNL     1     -22.329 -41.005  26.672  1.00  0.00     0.071 C 
ATOM     11  N   UNL     1     -21.270 -41.695  26.965  1.00  0.00    -0.176 NA
BRANCH   8  12
ATOM     12  C   UNL     1     -21.169 -41.626  23.527  1.00  0.00     0.023 A 
ATOM     13  C   UNL     1     -20.898 -41.774  21.090  1.00  0.00     0.119 A 
ATOM     14  C   UNL     1     -21.510 -43.024  21.092  1.00  0.00     0.050 A 
ATOM     15  C   UNL     1     -20.740 -41.085  22.298  1.00  0.00     0.056 A 
ATOM     16  C   UNL     1     -21.957 -43.576  22.295  1.00  0.00     0.050 A 
ATOM     17  C   UNL     1     -21.774 -42.891  23.500  1.00  0.00     0.124 A 
BRANCH  13  18
ATOM     18  O   UNL     1     -20.421 -41.112  19.992  1.00  0.00    -0.497 OA
ATOM     19  C   UNL     1     -19.593 -39.981  20.232  1.00  0.00     0.278 C 
ENDBRANCH  13  18
BRANCH  17  20
ATOM     20  O   UNL     1     -22.288 -43.434  24.647  1.00  0.00    -0.496 OA
ATOM     21  C   UNL     1     -21.780 -44.754  24.855  1.00  0.00     0.278 C 
ENDBRANCH  17  20
ENDBRANCH   8  12
BRANCH  10  22
ATOM     22  C   UNL     1     -23.505 -40.924  27.569  1.00  0.00     0.004 A 
ATOM     23  C   UNL     1     -24.256 -42.057  27.893  1.00  0.00     0.049 A 
ATOM     24  C   UNL     1     -23.867 -39.680  28.101  1.00  0.00     0.049 A 
ATOM     25  C   UNL     1     -25.352 -41.932  28.743  1.00  0.00     0.126 A 
ATOM     26  C   UNL     1     -24.967 -39.586  28.948  1.00  0.00     0.126 A 
ATOM     27  C   UNL     1     -25.717 -40.704  29.277  1.00  0.00     0.078 A 
ATOM     28  F   UNL     1     -26.068 -43.022  29.051  1.00  0.00    -0.207 F 
ATOM     29  F   UNL     1     -25.306 -38.395  29.455  1.00  0.00    -0.207 F 
ENDBRANCH  10  22
ENDBRANCH   1   7
BRANCH   4  30
ATOM     30  S   UNL     1     -14.740 -43.414  26.607  1.00  0.00     0.238 S 
ATOM     31  O   UNL     1     -13.877 -42.257  26.617  1.00  0.00    -0.207 OA
ATOM     32  O   UNL     1     -14.705 -44.421  27.643  1.00  0.00    -0.207 OA
BRANCH  30  33
ATOM     33  N   UNL     1     -14.478 -44.243  25.163  1.00  0.00    -0.225 NA
ATOM     34  H   UNL     1     -13.489 -44.168  24.919  1.00  0.00     0.137 HD
ATOM     35  H   UNL     1     -14.787 -45.215  25.200  1.00  0.00     0.137 HD
ENDBRANCH  30  33
ENDBRANCH   4  30
TORSDOF 7
ENDMDL
MODEL 9
REMARK VINA RESULT:    -8.126      4.660      7.049
REMARK INTER + INTRA:         -12.616
REMARK INTER:                 -11.633
REMARK INTRA:                  -0.983
REMARK UNBOUND:                -1.403
REMARK SMILES COc1ccc(OC)c([C@H]2CC(c3cc(F)cc(F)c3)=NN2c2ccc(S(N)(=O)=O)cc2)c1
REMARK SMILES IDX 23 1 24 2 25 3 26 4 31 5 32 6 22 7 10 8 11 9 12 10 21 11
REMARK SMILES IDX 9 12 3 13 4 14 33 15 5 16 6 17 2 18 1 19 7 20 8 21 13 22
REMARK SMILES IDX 14 23 20 24 15 25 18 26 17 27 16 28 19 29 27 30 29 31 30 32
REMARK SMILES IDX 28 33
REMARK H PARENT 28 34 28 35
ROOT
ATOM      1  C   UNL     1     -19.642 -42.041  25.178  1.00  0.00     0.060 A 
ATOM      2  C   UNL     1     -19.106 -42.018  23.875  1.00  0.00     0.029 A 
ATOM      3  C   UNL     1     -17.744 -42.216  23.624  1.00  0.00     0.024 A 
ATOM      4  C   UNL     1     -16.881 -42.435  24.694  1.00  0.00     0.082 A 
ATOM      5  C   UNL     1     -17.373 -42.480  25.996  1.00  0.00     0.024 A 
ATOM      6  C   UNL     1     -18.741 -42.282  26.227  1.00  0.00     0.029 A 
ENDROOT
BRANCH   1   7
ATOM      7  N   UNL     1     -21.005 -41.831  25.384  1.00  0.00    -0.257 N 
ATOM      8  C   UNL     1     -22.098 -42.272  24.507  1.00  0.00     0.148 C 
ATOM      9  C   UNL     1     -23.275 -41.399  24.947  1.00  0.00     0.091 C 
ATOM     10  C   UNL     1     -22.686 -40.739  26.161  1.00  0.00     0.071 C 
ATOM     11  N   UNL     1     -21.421 -40.959  26.353  1.00  0.00    -0.176 NA
BRANCH   8  12
ATOM     12  C   UNL     1     -22.391 -43.761  24.609  1.00  0.00     0.023 A 
ATOM     13  C   UNL     1     -22.864 -45.866  23.434  1.00  0.00     0.119 A 
ATOM     14  C   UNL     1     -22.968 -46.530  24.653  1.00  0.00     0.050 A 
ATOM     15  C   UNL     1     -22.586 -44.494  23.421  1.00  0.00     0.056 A 
ATOM     16  C   UNL     1     -22.793 -45.823  25.845  1.00  0.00     0.050 A 
ATOM     17  C   UNL     1     -22.493 -44.457  25.822  1.00  0.00     0.124 A 
BRANCH  13  18
ATOM     18  O   UNL     1     -23.017 -46.426  22.196  1.00  0.00    -0.497 OA
ATOM     19  C   UNL     1     -22.830 -47.833  22.098  1.00  0.00     0.278 C 
ENDBRANCH  13  18
BRANCH  17  20
ATOM     20  O   UNL     1     -22.397 -43.787  27.012  1.00  0.00    -0.496 OA
ATOM     21  C   UNL     1     -21.459 -44.427  27.880  1.00  0.00     0.278 C 
ENDBRANCH  17  20
ENDBRANCH   8  12
BRANCH  10  22
ATOM     22  C   UNL     1     -23.493 -39.874  27.051  1.00  0.00     0.004 A 
ATOM     23  C   UNL     1     -23.998 -40.345  28.266  1.00  0.00     0.049 A 
ATOM     24  C   UNL     1     -23.751 -38.554  26.661  1.00  0.00     0.049 A 
ATOM     25  C   UNL     1     -24.749 -39.493  29.071  1.00  0.00     0.126 A 
ATOM     26  C   UNL     1     -24.504 -37.725  27.487  1.00  0.00     0.126 A 
ATOM     27  C   UNL     1     -25.009 -38.183  28.694  1.00  0.00     0.078 A 
ATOM     28  F   UNL     1     -25.231 -39.950  30.235  1.00  0.00    -0.207 F 
ATOM     29  F   UNL     1     -24.745 -36.464  27.109  1.00  0.00    -0.207 F 
ENDBRANCH  10  22
ENDBRANCH   1   7
BRANCH   4  30
ATOM     30  S   UNL     1     -15.152 -42.680  24.404  1.00  0.00     0.238 S 
ATOM     31  O   UNL     1     -14.441 -42.444  25.638  1.00  0.00    -0.207 OA
ATOM     32  O   UNL     1     -14.978 -43.884  23.623  1.00  0.00    -0.207 OA
BRANCH  30  33
ATOM     33  N   UNL     1     -14.806 -41.407  23.355  1.00  0.00    -0.225 NA
ATOM     34  H   UNL     1     -14.436 -40.626  23.900  1.00  0.00     0.137 HD
ATOM     35  H   UNL     1     -14.174 -41.675  22.599  1.00  0.00     0.137 HD
ENDBRANCH  30  33
ENDBRANCH   4  30
TORSDOF 7
ENDMDL
