MODEL 1
REMARK VINA RESULT:   -12.754      0.000      0.000
REMARK INTER + INTRA:         -19.320
REMARK INTER:                 -18.346
REMARK INTRA:                  -0.974
REMARK UNBOUND:                -0.974
REMARK SMILES Cc1cc(O)nc2c1C(=O)C(NCCCCN=c1c3c([nH]c4cc(Cl)ccc14)CCCC3)=CC2=O
REMARK SMILES IDX 14 1 15 2 16 3 17 4 18 5 21 6 20 7 22 8 19 9 29 10 23 11
REMARK SMILES IDX 28 12 32 13 30 14 24 15 27 16 31 17 26 18 25 20 13 21 12 22
REMARK SMILES IDX 11 24 33 25 9 26 34 27 8 28 7 29 2 30 6 31 3 32 4 33 10 34
REMARK SMILES IDX 35 35 1 36 5 37
REMARK H PARENT 21 19 12 23 5 38
ROOT
ATOM      1  C   UNL     1     -13.488 -45.007  27.745  1.00  0.00     0.023 C 
ENDROOT
BRANCH   1   2
ATOM      2  C   UNL     1     -12.674 -46.288  27.526  1.00  0.00     0.025 C 
BRANCH   2   3
ATOM      3  C   UNL     1     -11.499 -46.405  28.501  1.00  0.00     0.143 C 
BRANCH   3   4
ATOM      4  N   UNL     1     -11.981 -46.142  29.840  1.00  0.00    -0.284 NA
BRANCH   4   5
ATOM      5  C   UNL     1     -11.375 -45.436  30.727  1.00  0.00     0.072 A 
ATOM      6  N   UNL     1     -10.279 -43.328  32.277  1.00  0.00    -0.358 N 
ATOM      7  C   UNL     1      -9.454 -44.330  31.807  1.00  0.00     0.021 A 
ATOM      8  C   UNL     1     -11.670 -43.483  32.272  1.00  0.00     0.049 A 
ATOM      9  C   UNL     1      -9.898 -45.382  31.081  1.00  0.00    -0.003 A 
ATOM     10  C   UNL     1      -7.995 -44.185  32.197  1.00  0.00     0.054 C 
ATOM     11  C   UNL     1     -12.490 -42.571  32.947  1.00  0.00     0.047 A 
ATOM     12  C   UNL     1     -12.258 -44.510  31.522  1.00  0.00     0.024 A 
ATOM     13  C   UNL     1      -8.992 -46.523  30.700  1.00  0.00     0.039 C 
ATOM     14  C   UNL     1      -7.052 -45.156  31.492  1.00  0.00     0.007 C 
ATOM     15  C   UNL     1     -13.877 -42.712  32.905  1.00  0.00     0.043 A 
ATOM     16  C   UNL     1     -13.655 -44.642  31.481  1.00  0.00     0.014 A 
ATOM     17  C   UNL     1      -7.662 -46.547  31.456  1.00  0.00     0.005 C 
ATOM     18  C   UNL     1     -14.464 -43.745  32.180  1.00  0.00     0.021 A 
ATOM     19  H   UNL     1      -9.888 -42.706  32.977  1.00  0.00     0.166 HD
ATOM     20  Cl  UNL     1     -14.873 -41.594  33.754  1.00  0.00    -0.084 Cl
ENDBRANCH   4   5
ENDBRANCH   3   4
ENDBRANCH   2   3
ENDBRANCH   1   2
BRANCH   1  21
ATOM     21  C   UNL     1     -12.946 -43.829  26.936  1.00  0.00     0.113 C 
BRANCH  21  22
ATOM     22  N   UNL     1     -13.895 -42.726  26.939  1.00  0.00    -0.382 N 
ATOM     23  H   UNL     1     -13.494 -41.822  27.213  1.00  0.00     0.160 HD
BRANCH  22  24
ATOM     24  C   UNL     1     -14.928 -42.538  26.029  1.00  0.00     0.087 C 
ATOM     25  C   UNL     1     -14.787 -42.375  24.710  1.00  0.00     0.084 C 
ATOM     26  C   UNL     1     -16.311 -42.523  26.630  1.00  0.00     0.211 C 
ATOM     27  C   UNL     1     -15.924 -42.189  23.798  1.00  0.00     0.207 C 
ATOM     28  C   UNL     1     -17.487 -42.420  25.736  1.00  0.00     0.057 A 
ATOM     29  C   UNL     1     -17.290 -42.250  24.370  1.00  0.00     0.126 A 
ATOM     30  C   UNL     1     -18.817 -42.474  26.206  1.00  0.00    -0.032 A 
ATOM     31  N   UNL     1     -18.296 -42.128  23.460  1.00  0.00    -0.209 NA
ATOM     32  C   UNL     1     -19.859 -42.350  25.275  1.00  0.00     0.072 A 
ATOM     33  C   UNL     1     -19.536 -42.182  23.947  1.00  0.00     0.211 A 
ATOM     34  O   UNL     1     -16.426 -42.586  27.851  1.00  0.00    -0.287 OA
ATOM     35  O   UNL     1     -15.710 -41.999  22.605  1.00  0.00    -0.287 OA
ATOM     36  C   UNL     1     -19.177 -42.658  27.655  1.00  0.00     0.045 C 
BRANCH  33  37
ATOM     37  O   UNL     1     -20.506 -42.057  23.012  1.00  0.00    -0.493 OA
ATOM     38  H   UNL     1     -21.037 -41.336  23.401  1.00  0.00     0.295 HD
ENDBRANCH  33  37
ENDBRANCH  22  24
ENDBRANCH  21  22
ENDBRANCH   1  21
TORSDOF 8
ENDMDL
MODEL 2
REMARK VINA RESULT:   -12.329      1.408      2.359
REMARK INTER + INTRA:         -18.708
REMARK INTER:                 -17.892
REMARK INTRA:                  -0.816
REMARK UNBOUND:                -0.974
REMARK SMILES Cc1cc(O)nc2c1C(=O)C(NCCCCN=c1c3c([nH]c4cc(Cl)ccc14)CCCC3)=CC2=O
REMARK SMILES IDX 14 1 15 2 16 3 17 4 18 5 21 6 20 7 22 8 19 9 29 10 23 11
REMARK SMILES IDX 28 12 32 13 30 14 24 15 27 16 31 17 26 18 25 20 13 21 12 22
REMARK SMILES IDX 11 24 33 25 9 26 34 27 8 28 7 29 2 30 6 31 3 32 4 33 10 34
REMARK SMILES IDX 35 35 1 36 5 37
REMARK H PARENT 21 19 12 23 5 38
ROOT
ATOM      1  C   UNL     1     -13.789 -44.971  26.890  1.00  0.00     0.023 C 
ENDROOT
BRANCH   1   2
ATOM      2  C   UNL     1     -13.585 -45.039  28.409  1.00  0.00     0.025 C 
BRANCH   2   3
ATOM      3  C   UNL     1     -12.390 -45.913  28.798  1.00  0.00     0.143 C 
BRANCH   3   4
ATOM      4  N   UNL     1     -12.363 -46.048  30.239  1.00  0.00    -0.284 NA
BRANCH   4   5
ATOM      5  C   UNL     1     -11.655 -45.338  31.043  1.00  0.00     0.072 A 
ATOM      6  N   UNL     1     -10.360 -43.227  32.426  1.00  0.00    -0.358 N 
ATOM      7  C   UNL     1      -9.609 -44.258  31.896  1.00  0.00     0.021 A 
ATOM      8  C   UNL     1     -11.747 -43.350  32.567  1.00  0.00     0.049 A 
ATOM      9  C   UNL     1     -10.148 -45.313  31.242  1.00  0.00    -0.003 A 
ATOM     10  C   UNL     1      -8.115 -44.139  32.131  1.00  0.00     0.054 C 
ATOM     11  C   UNL     1     -12.473 -42.406  33.303  1.00  0.00     0.047 A 
ATOM     12  C   UNL     1     -12.431 -44.377  31.904  1.00  0.00     0.024 A 
ATOM     13  C   UNL     1      -9.311 -46.482  30.794  1.00  0.00     0.039 C 
ATOM     14  C   UNL     1      -7.271 -45.145  31.354  1.00  0.00     0.007 C 
ATOM     15  C   UNL     1     -13.860 -42.515  33.407  1.00  0.00     0.043 A 
ATOM     16  C   UNL     1     -13.827 -44.477  32.010  1.00  0.00     0.014 A 
ATOM     17  C   UNL     1      -7.911 -46.522  31.411  1.00  0.00     0.005 C 
ATOM     18  C   UNL     1     -14.540 -43.548  32.768  1.00  0.00     0.021 A 
ATOM     19  H   UNL     1      -9.886 -42.602  33.069  1.00  0.00     0.166 HD
ATOM     20  Cl  UNL     1     -14.739 -41.358  34.330  1.00  0.00    -0.084 Cl
ENDBRANCH   4   5
ENDBRANCH   3   4
ENDBRANCH   2   3
ENDBRANCH   1   2
BRANCH   1  21
ATOM     21  C   UNL     1     -13.590 -43.559  26.340  1.00  0.00     0.113 C 
BRANCH  21  22
ATOM     22  N   UNL     1     -14.765 -43.130  25.597  1.00  0.00    -0.382 N 
ATOM     23  H   UNL     1     -14.878 -43.583  24.683  1.00  0.00     0.160 HD
BRANCH  22  24
ATOM     24  C   UNL     1     -16.008 -42.828  26.141  1.00  0.00     0.087 C 
ATOM     25  C   UNL     1     -16.306 -42.811  27.443  1.00  0.00     0.084 C 
ATOM     26  C   UNL     1     -17.081 -42.501  25.134  1.00  0.00     0.211 C 
ATOM     27  C   UNL     1     -17.642 -42.474  27.957  1.00  0.00     0.207 C 
ATOM     28  C   UNL     1     -18.417 -42.078  25.613  1.00  0.00     0.057 A 
ATOM     29  C   UNL     1     -18.681 -42.076  26.978  1.00  0.00     0.126 A 
ATOM     30  C   UNL     1     -19.455 -41.682  24.742  1.00  0.00    -0.032 A 
ATOM     31  N   UNL     1     -19.876 -41.721  27.527  1.00  0.00    -0.209 NA
ATOM     32  C   UNL     1     -20.689 -41.314  25.299  1.00  0.00     0.072 A 
ATOM     33  C   UNL     1     -20.829 -41.357  26.669  1.00  0.00     0.211 A 
ATOM     34  O   UNL     1     -16.822 -42.606  23.938  1.00  0.00    -0.287 OA
ATOM     35  O   UNL     1     -17.850 -42.524  29.164  1.00  0.00    -0.287 OA
ATOM     36  C   UNL     1     -19.309 -41.632  23.246  1.00  0.00     0.045 C 
BRANCH  33  37
ATOM     37  O   UNL     1     -22.001 -41.012  27.253  1.00  0.00    -0.493 OA
ATOM     38  H   UNL     1     -21.702 -40.845  28.167  1.00  0.00     0.295 HD
ENDBRANCH  33  37
ENDBRANCH  22  24
ENDBRANCH  21  22
ENDBRANCH   1  21
TORSDOF 8
ENDMDL
MODEL 3
REMARK VINA RESULT:   -11.525      1.923      3.934
REMARK INTER + INTRA:         -17.552
REMARK INTER:                 -17.269
REMARK INTRA:                  -0.283
REMARK UNBOUND:                -0.974
REMARK SMILES Cc1cc(O)nc2c1C(=O)C(NCCCCN=c1c3c([nH]c4cc(Cl)ccc14)CCCC3)=CC2=O
REMARK SMILES IDX 14 1 15 2 16 3 17 4 18 5 21 6 20 7 22 8 19 9 29 10 23 11
REMARK SMILES IDX 28 12 32 13 30 14 24 15 27 16 31 17 26 18 25 20 13 21 12 22
REMARK SMILES IDX 11 24 33 25 9 26 34 27 8 28 7 29 2 30 6 31 3 32 4 33 10 34
REMARK SMILES IDX 35 35 1 36 5 37
REMARK H PARENT 21 19 12 23 5 38
ROOT
ATOM      1  C   UNL     1     -13.810 -45.078  28.640  1.00  0.00     0.023 C 
ENDROOT
BRANCH   1   2
ATOM      2  C   UNL     1     -12.866 -46.001  29.421  1.00  0.00     0.025 C 
BRANCH   2   3
ATOM      3  C   UNL     1     -12.746 -45.600  30.894  1.00  0.00     0.143 C 
BRANCH   3   4
ATOM      4  N   UNL     1     -13.211 -44.237  31.042  1.00  0.00    -0.284 NA
BRANCH   4   5
ATOM      5  C   UNL     1     -12.847 -43.419  31.964  1.00  0.00     0.072 A 
ATOM      6  N   UNL     1     -11.777 -42.216  34.300  1.00  0.00    -0.358 N 
ATOM      7  C   UNL     1     -13.111 -42.038  33.990  1.00  0.00     0.021 A 
ATOM      8  C   UNL     1     -10.879 -42.709  33.346  1.00  0.00     0.049 A 
ATOM      9  C   UNL     1     -13.696 -42.558  32.886  1.00  0.00    -0.003 A 
ATOM     10  C   UNL     1     -13.881 -41.178  34.975  1.00  0.00     0.054 C 
ATOM     11  C   UNL     1      -9.500 -42.677  33.585  1.00  0.00     0.047 A 
ATOM     12  C   UNL     1     -11.360 -43.310  32.176  1.00  0.00     0.024 A 
ATOM     13  C   UNL     1     -15.118 -42.233  32.513  1.00  0.00     0.039 C 
ATOM     14  C   UNL     1     -15.392 -41.171  34.762  1.00  0.00     0.007 C 
ATOM     15  C   UNL     1      -8.615 -43.205  32.645  1.00  0.00     0.043 A 
ATOM     16  C   UNL     1     -10.463 -43.843  31.238  1.00  0.00     0.014 A 
ATOM     17  C   UNL     1     -15.713 -41.052  33.282  1.00  0.00     0.005 C 
ATOM     18  C   UNL     1      -9.088 -43.783  31.470  1.00  0.00     0.021 A 
ATOM     19  H   UNL     1     -11.395 -41.621  35.027  1.00  0.00     0.166 HD
ATOM     20  Cl  UNL     1      -6.920 -43.144  32.943  1.00  0.00    -0.084 Cl
ENDBRANCH   4   5
ENDBRANCH   3   4
ENDBRANCH   2   3
ENDBRANCH   1   2
BRANCH   1  21
ATOM     21  C   UNL     1     -13.204 -44.612  27.317  1.00  0.00     0.113 C 
BRANCH  21  22
ATOM     22  N   UNL     1     -13.637 -43.260  27.004  1.00  0.00    -0.382 N 
ATOM     23  H   UNL     1     -12.875 -42.577  26.923  1.00  0.00     0.160 HD
BRANCH  22  24
ATOM     24  C   UNL     1     -14.682 -42.915  26.155  1.00  0.00     0.087 C 
ATOM     25  C   UNL     1     -14.585 -42.720  24.837  1.00  0.00     0.084 C 
ATOM     26  C   UNL     1     -16.023 -42.758  26.826  1.00  0.00     0.211 C 
ATOM     27  C   UNL     1     -15.733 -42.365  23.990  1.00  0.00     0.207 C 
ATOM     28  C   UNL     1     -17.219 -42.481  25.998  1.00  0.00     0.057 A 
ATOM     29  C   UNL     1     -17.068 -42.284  24.630  1.00  0.00     0.126 A 
ATOM     30  C   UNL     1     -18.521 -42.393  26.535  1.00  0.00    -0.032 A 
ATOM     31  N   UNL     1     -18.094 -42.009  23.777  1.00  0.00    -0.209 NA
ATOM     32  C   UNL     1     -19.584 -42.110  25.664  1.00  0.00     0.072 A 
ATOM     33  C   UNL     1     -19.306 -41.932  24.326  1.00  0.00     0.211 A 
ATOM     34  O   UNL     1     -16.087 -42.852  28.050  1.00  0.00    -0.287 OA
ATOM     35  O   UNL     1     -15.555 -42.157  22.795  1.00  0.00    -0.287 OA
ATOM     36  C   UNL     1     -18.832 -42.588  27.993  1.00  0.00     0.045 C 
BRANCH  33  37
ATOM     37  O   UNL     1     -20.298 -41.657  23.447  1.00  0.00    -0.493 OA
ATOM     38  H   UNL     1     -20.321 -40.683  23.504  1.00  0.00     0.295 HD
ENDBRANCH  33  37
ENDBRANCH  22  24
ENDBRANCH  21  22
ENDBRANCH   1  21
TORSDOF 8
ENDMDL
MODEL 4
REMARK VINA RESULT:   -11.378      1.614      2.065
REMARK INTER + INTRA:         -17.340
REMARK INTER:                 -16.544
REMARK INTRA:                  -0.796
REMARK UNBOUND:                -0.974
REMARK SMILES Cc1cc(O)nc2c1C(=O)C(NCCCCN=c1c3c([nH]c4cc(Cl)ccc14)CCCC3)=CC2=O
REMARK SMILES IDX 14 1 15 2 16 3 17 4 18 5 21 6 20 7 22 8 19 9 29 10 23 11
REMARK SMILES IDX 28 12 32 13 30 14 24 15 27 16 31 17 26 18 25 20 13 21 12 22
REMARK SMILES IDX 11 24 33 25 9 26 34 27 8 28 7 29 2 30 6 31 3 32 4 33 10 34
REMARK SMILES IDX 35 35 1 36 5 37
REMARK H PARENT 21 19 12 23 5 38
ROOT
ATOM      1  C   UNL     1     -14.432 -43.827  27.249  1.00  0.00     0.023 C 
ENDROOT
BRANCH   1   2
ATOM      2  C   UNL     1     -12.959 -43.843  27.675  1.00  0.00     0.025 C 
BRANCH   2   3
ATOM      3  C   UNL     1     -12.481 -45.242  28.070  1.00  0.00     0.143 C 
BRANCH   3   4
ATOM      4  N   UNL     1     -12.785 -45.457  29.469  1.00  0.00    -0.284 NA
BRANCH   4   5
ATOM      5  C   UNL     1     -12.085 -45.032  30.460  1.00  0.00     0.072 A 
ATOM      6  N   UNL     1     -10.678 -43.450  32.347  1.00  0.00    -0.358 N 
ATOM      7  C   UNL     1     -10.024 -44.476  31.695  1.00  0.00     0.021 A 
ATOM      8  C   UNL     1     -12.075 -43.366  32.333  1.00  0.00     0.049 A 
ATOM      9  C   UNL     1     -10.626 -45.291  30.797  1.00  0.00    -0.003 A 
ATOM     10  C   UNL     1      -8.568 -44.650  32.085  1.00  0.00     0.054 C 
ATOM     11  C   UNL     1     -12.741 -42.465  33.172  1.00  0.00     0.047 A 
ATOM     12  C   UNL     1     -12.813 -44.129  31.419  1.00  0.00     0.024 A 
ATOM     13  C   UNL     1      -9.917 -46.482  30.206  1.00  0.00     0.039 C 
ATOM     14  C   UNL     1      -7.789 -45.623  31.205  1.00  0.00     0.007 C 
ATOM     15  C   UNL     1     -14.132 -42.361  33.124  1.00  0.00     0.043 A 
ATOM     16  C   UNL     1     -14.212 -44.015  31.375  1.00  0.00     0.014 A 
ATOM     17  C   UNL     1      -8.623 -46.863  30.928  1.00  0.00     0.005 C 
ATOM     18  C   UNL     1     -14.871 -43.135  32.233  1.00  0.00     0.021 A 
ATOM     19  H   UNL     1     -10.200 -43.038  33.142  1.00  0.00     0.166 HD
ATOM     20  Cl  UNL     1     -14.941 -41.262  34.173  1.00  0.00    -0.084 Cl
ENDBRANCH   4   5
ENDBRANCH   3   4
ENDBRANCH   2   3
ENDBRANCH   1   2
BRANCH   1  21
ATOM     21  C   UNL     1     -14.607 -43.471  25.773  1.00  0.00     0.113 C 
BRANCH  21  22
ATOM     22  N   UNL     1     -16.014 -43.290  25.454  1.00  0.00    -0.382 N 
ATOM     23  H   UNL     1     -16.632 -43.236  26.272  1.00  0.00     0.160 HD
BRANCH  22  24
ATOM     24  C   UNL     1     -16.522 -42.515  24.418  1.00  0.00     0.087 C 
ATOM     25  C   UNL     1     -15.834 -42.085  23.356  1.00  0.00     0.084 C 
ATOM     26  C   UNL     1     -17.979 -42.151  24.549  1.00  0.00     0.211 C 
ATOM     27  C   UNL     1     -16.433 -41.274  22.286  1.00  0.00     0.207 C 
ATOM     28  C   UNL     1     -18.640 -41.404  23.455  1.00  0.00     0.057 A 
ATOM     29  C   UNL     1     -17.882 -40.977  22.369  1.00  0.00     0.126 A 
ATOM     30  C   UNL     1     -20.015 -41.089  23.460  1.00  0.00    -0.032 A 
ATOM     31  N   UNL     1     -18.382 -40.272  21.316  1.00  0.00    -0.209 NA
ATOM     32  C   UNL     1     -20.538 -40.363  22.380  1.00  0.00     0.072 A 
ATOM     33  C   UNL     1     -19.685 -39.993  21.364  1.00  0.00     0.211 A 
ATOM     34  O   UNL     1     -18.580 -42.475  25.570  1.00  0.00    -0.287 OA
ATOM     35  O   UNL     1     -15.725 -40.879  21.366  1.00  0.00    -0.287 OA
ATOM     36  C   UNL     1     -20.953 -41.491  24.566  1.00  0.00     0.045 C 
BRANCH  33  37
ATOM     37  O   UNL     1     -20.142 -39.291  20.301  1.00  0.00    -0.493 OA
ATOM     38  H   UNL     1     -19.418 -38.647  20.187  1.00  0.00     0.295 HD
ENDBRANCH  33  37
ENDBRANCH  22  24
ENDBRANCH  21  22
ENDBRANCH   1  21
TORSDOF 8
ENDMDL
MODEL 5
REMARK VINA RESULT:   -11.321      3.604     10.682
REMARK INTER + INTRA:         -17.258
REMARK INTER:                 -16.612
REMARK INTRA:                  -0.645
REMARK UNBOUND:                -0.974
REMARK SMILES Cc1cc(O)nc2c1C(=O)C(NCCCCN=c1c3c([nH]c4cc(Cl)ccc14)CCCC3)=CC2=O
REMARK SMILES IDX 14 1 15 2 16 3 17 4 18 5 21 6 20 7 22 8 19 9 29 10 23 11
REMARK SMILES IDX 28 12 32 13 30 14 24 15 27 16 31 17 26 18 25 20 13 21 12 22
REMARK SMILES IDX 11 24 33 25 9 26 34 27 8 28 7 29 2 30 6 31 3 32 4 33 10 34
REMARK SMILES IDX 35 35 1 36 5 37
REMARK H PARENT 21 19 12 23 5 38
ROOT
ATOM      1  C   UNL     1     -14.470 -43.750  25.390  1.00  0.00     0.023 C 
ENDROOT
BRANCH   1   2
ATOM      2  C   UNL     1     -15.067 -42.441  24.857  1.00  0.00     0.025 C 
BRANCH   2   3
ATOM      3  C   UNL     1     -16.105 -42.679  23.758  1.00  0.00     0.143 C 
BRANCH   3   4
ATOM      4  N   UNL     1     -17.118 -41.649  23.847  1.00  0.00    -0.284 NA
BRANCH   4   5
ATOM      5  C   UNL     1     -18.379 -41.823  23.672  1.00  0.00     0.072 A 
ATOM      6  N   UNL     1     -20.987 -42.904  23.385  1.00  0.00    -0.358 N 
ATOM      7  C   UNL     1     -20.463 -42.109  22.385  1.00  0.00     0.021 A 
ATOM      8  C   UNL     1     -20.399 -42.938  24.655  1.00  0.00     0.049 A 
ATOM      9  C   UNL     1     -19.238 -41.537  22.451  1.00  0.00    -0.003 A 
ATOM     10  C   UNL     1     -21.385 -41.892  21.199  1.00  0.00     0.054 C 
ATOM     11  C   UNL     1     -21.053 -43.562  25.724  1.00  0.00     0.047 A 
ATOM     12  C   UNL     1     -19.113 -42.416  24.846  1.00  0.00     0.024 A 
ATOM     13  C   UNL     1     -18.755 -40.571  21.402  1.00  0.00     0.039 C 
ATOM     14  C   UNL     1     -20.727 -41.213  20.002  1.00  0.00     0.007 C 
ATOM     15  C   UNL     1     -20.443 -43.624  26.977  1.00  0.00     0.043 A 
ATOM     16  C   UNL     1     -18.505 -42.487  26.109  1.00  0.00     0.014 A 
ATOM     17  C   UNL     1     -19.853 -40.060  20.467  1.00  0.00     0.005 C 
ATOM     18  C   UNL     1     -19.175 -43.086  27.177  1.00  0.00     0.021 A 
ATOM     19  H   UNL     1     -21.979 -43.109  23.332  1.00  0.00     0.166 HD
ATOM     20  Cl  UNL     1     -21.265 -44.379  28.288  1.00  0.00    -0.084 Cl
ENDBRANCH   4   5
ENDBRANCH   3   4
ENDBRANCH   2   3
ENDBRANCH   1   2
BRANCH   1  21
ATOM     21  C   UNL     1     -14.465 -43.806  26.917  1.00  0.00     0.113 C 
BRANCH  21  22
ATOM     22  N   UNL     1     -13.362 -44.624  27.395  1.00  0.00    -0.382 N 
ATOM     23  H   UNL     1     -13.199 -45.479  26.850  1.00  0.00     0.160 HD
BRANCH  22  24
ATOM     24  C   UNL     1     -12.163 -44.151  27.916  1.00  0.00     0.087 C 
ATOM     25  C   UNL     1     -11.535 -43.034  27.539  1.00  0.00     0.084 C 
ATOM     26  C   UNL     1     -11.556 -45.009  28.996  1.00  0.00     0.211 C 
ATOM     27  C   UNL     1     -10.270 -42.582  28.137  1.00  0.00     0.207 C 
ATOM     28  C   UNL     1     -10.326 -44.549  29.680  1.00  0.00     0.057 A 
ATOM     29  C   UNL     1      -9.707 -43.379  29.252  1.00  0.00     0.126 A 
ATOM     30  C   UNL     1      -9.733 -45.251  30.752  1.00  0.00    -0.032 A 
ATOM     31  N   UNL     1      -8.567 -42.872  29.797  1.00  0.00    -0.209 NA
ATOM     32  C   UNL     1      -8.558 -44.735  31.319  1.00  0.00     0.072 A 
ATOM     33  C   UNL     1      -8.039 -43.568  30.804  1.00  0.00     0.211 A 
ATOM     34  O   UNL     1     -12.092 -46.079  29.275  1.00  0.00    -0.287 OA
ATOM     35  O   UNL     1      -9.732 -41.569  27.705  1.00  0.00    -0.287 OA
ATOM     36  C   UNL     1     -10.295 -46.525  31.319  1.00  0.00     0.045 C 
BRANCH  33  37
ATOM     37  O   UNL     1      -6.907 -43.032  31.317  1.00  0.00    -0.493 OA
ATOM     38  H   UNL     1      -6.901 -43.441  32.203  1.00  0.00     0.295 HD
ENDBRANCH  33  37
ENDBRANCH  22  24
ENDBRANCH  21  22
ENDBRANCH   1  21
TORSDOF 8
ENDMDL
MODEL 6
REMARK VINA RESULT:   -10.969      2.469      3.453
REMARK INTER + INTRA:         -16.752
REMARK INTER:                 -15.815
REMARK INTRA:                  -0.937
REMARK UNBOUND:                -0.974
REMARK SMILES Cc1cc(O)nc2c1C(=O)C(NCCCCN=c1c3c([nH]c4cc(Cl)ccc14)CCCC3)=CC2=O
REMARK SMILES IDX 14 1 15 2 16 3 17 4 18 5 21 6 20 7 22 8 19 9 29 10 23 11
REMARK SMILES IDX 28 12 32 13 30 14 24 15 27 16 31 17 26 18 25 20 13 21 12 22
REMARK SMILES IDX 11 24 33 25 9 26 34 27 8 28 7 29 2 30 6 31 3 32 4 33 10 34
REMARK SMILES IDX 35 35 1 36 5 37
REMARK H PARENT 21 19 12 23 5 38
ROOT
ATOM      1  C   UNL     1     -14.292 -44.675  29.134  1.00  0.00     0.023 C 
ENDROOT
BRANCH   1   2
ATOM      2  C   UNL     1     -13.352 -45.524  29.998  1.00  0.00     0.025 C 
BRANCH   2   3
ATOM      3  C   UNL     1     -13.030 -44.856  31.338  1.00  0.00     0.143 C 
BRANCH   3   4
ATOM      4  N   UNL     1     -12.487 -43.539  31.079  1.00  0.00    -0.284 NA
BRANCH   4   5
ATOM      5  C   UNL     1     -11.266 -43.184  31.267  1.00  0.00     0.072 A 
ATOM      6  N   UNL     1      -8.435 -43.026  31.344  1.00  0.00    -0.358 N 
ATOM      7  C   UNL     1      -9.156 -42.927  32.517  1.00  0.00     0.021 A 
ATOM      8  C   UNL     1      -9.065 -42.894  30.101  1.00  0.00     0.049 A 
ATOM      9  C   UNL     1     -10.508 -42.971  32.567  1.00  0.00    -0.003 A 
ATOM     10  C   UNL     1      -8.314 -42.730  33.764  1.00  0.00     0.054 C 
ATOM     11  C   UNL     1      -8.309 -42.770  28.930  1.00  0.00     0.047 A 
ATOM     12  C   UNL     1     -10.462 -42.964  30.014  1.00  0.00     0.024 A 
ATOM     13  C   UNL     1     -11.263 -42.727  33.847  1.00  0.00     0.039 C 
ATOM     14  C   UNL     1      -9.086 -42.853  35.075  1.00  0.00     0.007 C 
ATOM     15  C   UNL     1      -8.946 -42.677  27.692  1.00  0.00     0.043 A 
ATOM     16  C   UNL     1     -11.094 -42.875  28.764  1.00  0.00     0.014 A 
ATOM     17  C   UNL     1     -10.416 -42.125  34.970  1.00  0.00     0.005 C 
ATOM     18  C   UNL     1     -10.334 -42.723  27.603  1.00  0.00     0.021 A 
ATOM     19  H   UNL     1      -7.453 -42.775  31.390  1.00  0.00     0.166 HD
ATOM     20  Cl  UNL     1      -8.005 -42.507  26.261  1.00  0.00    -0.084 Cl
ENDBRANCH   4   5
ENDBRANCH   3   4
ENDBRANCH   2   3
ENDBRANCH   1   2
BRANCH   1  21
ATOM     21  C   UNL     1     -13.864 -44.645  27.667  1.00  0.00     0.113 C 
BRANCH  21  22
ATOM     22  N   UNL     1     -14.075 -43.322  27.100  1.00  0.00    -0.382 N 
ATOM     23  H   UNL     1     -13.214 -42.787  26.938  1.00  0.00     0.160 HD
BRANCH  22  24
ATOM     24  C   UNL     1     -15.035 -42.984  26.154  1.00  0.00     0.087 C 
ATOM     25  C   UNL     1     -14.840 -42.915  24.834  1.00  0.00     0.084 C 
ATOM     26  C   UNL     1     -16.400 -42.677  26.714  1.00  0.00     0.211 C 
ATOM     27  C   UNL     1     -15.902 -42.560  23.882  1.00  0.00     0.207 C 
ATOM     28  C   UNL     1     -17.517 -42.394  25.784  1.00  0.00     0.057 A 
ATOM     29  C   UNL     1     -17.265 -42.332  24.418  1.00  0.00     0.126 A 
ATOM     30  C   UNL     1     -18.842 -42.170  26.218  1.00  0.00    -0.032 A 
ATOM     31  N   UNL     1     -18.211 -42.064  23.475  1.00  0.00    -0.209 NA
ATOM     32  C   UNL     1     -19.822 -41.895  25.254  1.00  0.00     0.072 A 
ATOM     33  C   UNL     1     -19.448 -41.857  23.929  1.00  0.00     0.211 A 
ATOM     34  O   UNL     1     -16.550 -42.656  27.934  1.00  0.00    -0.287 OA
ATOM     35  O   UNL     1     -15.633 -42.473  22.689  1.00  0.00    -0.287 OA
ATOM     36  C   UNL     1     -19.258 -42.211  27.663  1.00  0.00     0.045 C 
BRANCH  33  37
ATOM     37  O   UNL     1     -20.358 -41.594  22.962  1.00  0.00    -0.493 OA
ATOM     38  H   UNL     1     -19.808 -41.092  22.331  1.00  0.00     0.295 HD
ENDBRANCH  33  37
ENDBRANCH  22  24
ENDBRANCH  21  22
ENDBRANCH   1  21
TORSDOF 8
ENDMDL
MODEL 7
REMARK VINA RESULT:   -10.080      3.301     10.638
REMARK INTER + INTRA:         -15.474
REMARK INTER:                 -14.796
REMARK INTRA:                  -0.678
REMARK UNBOUND:                -0.974
REMARK SMILES Cc1cc(O)nc2c1C(=O)C(NCCCCN=c1c3c([nH]c4cc(Cl)ccc14)CCCC3)=CC2=O
REMARK SMILES IDX 14 1 15 2 16 3 17 4 18 5 21 6 20 7 22 8 19 9 29 10 23 11
REMARK SMILES IDX 28 12 32 13 30 14 24 15 27 16 31 17 26 18 25 20 13 21 12 22
REMARK SMILES IDX 11 24 33 25 9 26 34 27 8 28 7 29 2 30 6 31 3 32 4 33 10 34
REMARK SMILES IDX 35 35 1 36 5 37
REMARK H PARENT 21 19 12 23 5 38
ROOT
ATOM      1  C   UNL     1     -14.730 -42.288  25.554  1.00  0.00     0.023 C 
ENDROOT
BRANCH   1   2
ATOM      2  C   UNL     1     -15.143 -42.793  24.166  1.00  0.00     0.025 C 
BRANCH   2   3
ATOM      3  C   UNL     1     -16.608 -43.233  24.118  1.00  0.00     0.143 C 
BRANCH   3   4
ATOM      4  N   UNL     1     -17.447 -42.069  24.308  1.00  0.00    -0.284 NA
BRANCH   4   5
ATOM      5  C   UNL     1     -18.694 -41.989  24.005  1.00  0.00     0.072 A 
ATOM      6  N   UNL     1     -21.412 -42.531  23.403  1.00  0.00    -0.358 N 
ATOM      7  C   UNL     1     -20.647 -41.807  22.511  1.00  0.00     0.021 A 
ATOM      8  C   UNL     1     -20.978 -42.737  24.717  1.00  0.00     0.049 A 
ATOM      9  C   UNL     1     -19.351 -41.486  22.729  1.00  0.00    -0.003 A 
ATOM     10  C   UNL     1     -21.383 -41.361  21.261  1.00  0.00     0.054 C 
ATOM     11  C   UNL     1     -21.846 -43.273  25.677  1.00  0.00     0.047 A 
ATOM     12  C   UNL     1     -19.645 -42.482  25.063  1.00  0.00     0.024 A 
ATOM     13  C   UNL     1     -18.587 -40.583  21.796  1.00  0.00     0.039 C 
ATOM     14  C   UNL     1     -20.487 -40.766  20.178  1.00  0.00     0.007 C 
ATOM     15  C   UNL     1     -21.393 -43.509  26.975  1.00  0.00     0.043 A 
ATOM     16  C   UNL     1     -19.197 -42.728  26.370  1.00  0.00     0.014 A 
ATOM     17  C   UNL     1     -19.467 -39.827  20.798  1.00  0.00     0.005 C 
ATOM     18  C   UNL     1     -20.075 -43.236  27.328  1.00  0.00     0.021 A 
ATOM     19  H   UNL     1     -22.414 -42.538  23.243  1.00  0.00     0.166 HD
ATOM     20  Cl  UNL     1     -22.475 -44.151  28.150  1.00  0.00    -0.084 Cl
ENDBRANCH   4   5
ENDBRANCH   3   4
ENDBRANCH   2   3
ENDBRANCH   1   2
BRANCH   1  21
ATOM     21  C   UNL     1     -15.000 -43.318  26.651  1.00  0.00     0.113 C 
BRANCH  21  22
ATOM     22  N   UNL     1     -13.950 -44.324  26.678  1.00  0.00    -0.382 N 
ATOM     23  H   UNL     1     -13.427 -44.416  25.799  1.00  0.00     0.160 HD
BRANCH  22  24
ATOM     24  C   UNL     1     -13.127 -44.613  27.760  1.00  0.00     0.087 C 
ATOM     25  C   UNL     1     -13.375 -45.520  28.709  1.00  0.00     0.084 C 
ATOM     26  C   UNL     1     -11.855 -43.806  27.826  1.00  0.00     0.211 C 
ATOM     27  C   UNL     1     -12.457 -45.786  29.826  1.00  0.00     0.207 C 
ATOM     28  C   UNL     1     -10.867 -44.099  28.888  1.00  0.00     0.057 A 
ATOM     29  C   UNL     1     -11.170 -45.052  29.855  1.00  0.00     0.126 A 
ATOM     30  C   UNL     1      -9.619 -43.445  28.979  1.00  0.00    -0.032 A 
ATOM     31  N   UNL     1     -10.343 -45.389  30.884  1.00  0.00    -0.209 NA
ATOM     32  C   UNL     1      -8.762 -43.786  30.036  1.00  0.00     0.072 A 
ATOM     33  C   UNL     1      -9.177 -44.745  30.934  1.00  0.00     0.211 A 
ATOM     34  O   UNL     1     -11.677 -42.913  27.000  1.00  0.00    -0.287 OA
ATOM     35  O   UNL     1     -12.776 -46.602  30.683  1.00  0.00    -0.287 OA
ATOM     36  C   UNL     1      -9.159 -42.398  28.002  1.00  0.00     0.045 C 
BRANCH  33  37
ATOM     37  O   UNL     1      -8.386 -45.108  31.970  1.00  0.00    -0.493 OA
ATOM     38  H   UNL     1      -8.281 -44.250  32.423  1.00  0.00     0.295 HD
ENDBRANCH  33  37
ENDBRANCH  22  24
ENDBRANCH  21  22
ENDBRANCH   1  21
TORSDOF 8
ENDMDL
MODEL 8
REMARK VINA RESULT:    -9.881      6.402      9.887
REMARK INTER + INTRA:         -15.188
REMARK INTER:                 -13.833
REMARK INTRA:                  -1.355
REMARK UNBOUND:                -0.974
REMARK SMILES Cc1cc(O)nc2c1C(=O)C(NCCCCN=c1c3c([nH]c4cc(Cl)ccc14)CCCC3)=CC2=O
REMARK SMILES IDX 14 1 15 2 16 3 17 4 18 5 21 6 20 7 22 8 19 9 29 10 23 11
REMARK SMILES IDX 28 12 32 13 30 14 24 15 27 16 31 17 26 18 25 20 13 21 12 22
REMARK SMILES IDX 11 24 33 25 9 26 34 27 8 28 7 29 2 30 6 31 3 32 4 33 10 34
REMARK SMILES IDX 35 35 1 36 5 37
REMARK H PARENT 21 19 12 23 5 38
ROOT
ATOM      1  C   UNL     1     -22.003 -44.675  27.811  1.00  0.00     0.023 C 
ENDROOT
BRANCH   1   2
ATOM      2  C   UNL     1     -20.790 -43.813  27.443  1.00  0.00     0.025 C 
BRANCH   2   3
ATOM      3  C   UNL     1     -20.680 -43.575  25.935  1.00  0.00     0.143 C 
BRANCH   3   4
ATOM      4  N   UNL     1     -20.052 -42.290  25.714  1.00  0.00    -0.284 NA
BRANCH   4   5
ATOM      5  C   UNL     1     -19.004 -42.083  24.999  1.00  0.00     0.072 A 
ATOM      6  N   UNL     1     -17.045 -42.045  22.947  1.00  0.00    -0.358 N 
ATOM      7  C   UNL     1     -16.694 -42.453  24.218  1.00  0.00     0.021 A 
ATOM      8  C   UNL     1     -18.248 -41.366  22.718  1.00  0.00     0.049 A 
ATOM      9  C   UNL     1     -17.560 -42.481  25.258  1.00  0.00    -0.003 A 
ATOM     10  C   UNL     1     -15.237 -42.845  24.379  1.00  0.00     0.054 C 
ATOM     11  C   UNL     1     -18.497 -40.760  21.481  1.00  0.00     0.047 A 
ATOM     12  C   UNL     1     -19.245 -41.356  23.703  1.00  0.00     0.024 A 
ATOM     13  C   UNL     1     -17.110 -42.804  26.659  1.00  0.00     0.039 C 
ATOM     14  C   UNL     1     -14.904 -43.510  25.711  1.00  0.00     0.007 C 
ATOM     15  C   UNL     1     -19.714 -40.117  21.250  1.00  0.00     0.043 A 
ATOM     16  C   UNL     1     -20.467 -40.711  23.459  1.00  0.00     0.014 A 
ATOM     17  C   UNL     1     -15.592 -42.777  26.850  1.00  0.00     0.005 C 
ATOM     18  C   UNL     1     -20.698 -40.085  22.234  1.00  0.00     0.021 A 
ATOM     19  H   UNL     1     -16.285 -41.865  22.300  1.00  0.00     0.166 HD
ATOM     20  Cl  UNL     1     -20.002 -39.360  19.731  1.00  0.00    -0.084 Cl
ENDBRANCH   4   5
ENDBRANCH   3   4
ENDBRANCH   2   3
ENDBRANCH   1   2
BRANCH   1  21
ATOM     21  C   UNL     1     -23.229 -44.348  26.959  1.00  0.00     0.113 C 
BRANCH  21  22
ATOM     22  N   UNL     1     -23.984 -43.254  27.548  1.00  0.00    -0.382 N 
ATOM     23  H   UNL     1     -24.133 -43.336  28.561  1.00  0.00     0.160 HD
BRANCH  22  24
ATOM     24  C   UNL     1     -23.898 -41.915  27.183  1.00  0.00     0.087 C 
ATOM     25  C   UNL     1     -23.618 -41.456  25.960  1.00  0.00     0.084 C 
ATOM     26  C   UNL     1     -24.149 -40.933  28.299  1.00  0.00     0.211 C 
ATOM     27  C   UNL     1     -23.551 -40.024  25.634  1.00  0.00     0.207 C 
ATOM     28  C   UNL     1     -24.171 -39.484  27.996  1.00  0.00     0.057 A 
ATOM     29  C   UNL     1     -23.873 -39.054  26.707  1.00  0.00     0.126 A 
ATOM     30  C   UNL     1     -24.472 -38.501  28.963  1.00  0.00    -0.032 A 
ATOM     31  N   UNL     1     -23.848 -37.748  26.322  1.00  0.00    -0.209 NA
ATOM     32  C   UNL     1     -24.449 -37.153  28.575  1.00  0.00     0.072 A 
ATOM     33  C   UNL     1     -24.135 -36.853  27.268  1.00  0.00     0.211 A 
ATOM     34  O   UNL     1     -24.318 -41.362  29.438  1.00  0.00    -0.287 OA
ATOM     35  O   UNL     1     -23.243 -39.682  24.498  1.00  0.00    -0.287 OA
ATOM     36  C   UNL     1     -24.817 -38.822  30.392  1.00  0.00     0.045 C 
BRANCH  33  37
ATOM     37  O   UNL     1     -24.099 -35.567  26.845  1.00  0.00    -0.493 OA
ATOM     38  H   UNL     1     -24.961 -35.248  27.173  1.00  0.00     0.295 HD
ENDBRANCH  33  37
ENDBRANCH  22  24
ENDBRANCH  21  22
ENDBRANCH   1  21
TORSDOF 8
ENDMDL
MODEL 9
REMARK VINA RESULT:    -9.792      3.963     11.075
REMARK INTER + INTRA:         -15.059
REMARK INTER:                 -14.514
REMARK INTRA:                  -0.545
REMARK UNBOUND:                -0.974
REMARK SMILES Cc1cc(O)nc2c1C(=O)C(NCCCCN=c1c3c([nH]c4cc(Cl)ccc14)CCCC3)=CC2=O
REMARK SMILES IDX 14 1 15 2 16 3 17 4 18 5 21 6 20 7 22 8 19 9 29 10 23 11
REMARK SMILES IDX 28 12 32 13 30 14 24 15 27 16 31 17 26 18 25 20 13 21 12 22
REMARK SMILES IDX 11 24 33 25 9 26 34 27 8 28 7 29 2 30 6 31 3 32 4 33 10 34
REMARK SMILES IDX 35 35 1 36 5 37
REMARK H PARENT 21 19 12 23 5 38
ROOT
ATOM      1  C   UNL     1     -14.914 -42.567  25.565  1.00  0.00     0.023 C 
ENDROOT
BRANCH   1   2
ATOM      2  C   UNL     1     -16.148 -42.772  24.677  1.00  0.00     0.025 C 
BRANCH   2   3
ATOM      3  C   UNL     1     -17.431 -42.947  25.494  1.00  0.00     0.143 C 
BRANCH   3   4
ATOM      4  N   UNL     1     -18.293 -41.810  25.252  1.00  0.00    -0.284 NA
BRANCH   4   5
ATOM      5  C   UNL     1     -19.514 -41.869  24.853  1.00  0.00     0.072 A 
ATOM      6  N   UNL     1     -22.152 -41.279  23.992  1.00  0.00    -0.358 N 
ATOM      7  C   UNL     1     -21.958 -42.097  25.088  1.00  0.00     0.021 A 
ATOM      8  C   UNL     1     -21.097 -40.988  23.120  1.00  0.00     0.049 A 
ATOM      9  C   UNL     1     -20.735 -42.446  25.551  1.00  0.00    -0.003 A 
ATOM     10  C   UNL     1     -23.234 -42.612  25.728  1.00  0.00     0.054 C 
ATOM     11  C   UNL     1     -21.341 -40.350  21.898  1.00  0.00     0.047 A 
ATOM     12  C   UNL     1     -19.777 -41.262  23.500  1.00  0.00     0.024 A 
ATOM     13  C   UNL     1     -20.562 -43.445  26.665  1.00  0.00     0.039 C 
ATOM     14  C   UNL     1     -23.030 -43.320  27.065  1.00  0.00     0.007 C 
ATOM     15  C   UNL     1     -20.279 -40.029  21.051  1.00  0.00     0.043 A 
ATOM     16  C   UNL     1     -18.714 -40.932  22.645  1.00  0.00     0.014 A 
ATOM     17  C   UNL     1     -21.826 -44.244  26.991  1.00  0.00     0.005 C 
ATOM     18  C   UNL     1     -18.968 -40.321  21.416  1.00  0.00     0.021 A 
ATOM     19  H   UNL     1     -23.090 -41.249  23.606  1.00  0.00     0.166 HD
ATOM     20  Cl  UNL     1     -20.594 -39.261  19.544  1.00  0.00    -0.084 Cl
ENDBRANCH   4   5
ENDBRANCH   3   4
ENDBRANCH   2   3
ENDBRANCH   1   2
BRANCH   1  21
ATOM     21  C   UNL     1     -15.035 -43.294  26.904  1.00  0.00     0.113 C 
BRANCH  21  22
ATOM     22  N   UNL     1     -14.068 -44.377  26.987  1.00  0.00    -0.382 N 
ATOM     23  H   UNL     1     -13.595 -44.593  26.102  1.00  0.00     0.160 HD
BRANCH  22  24
ATOM     24  C   UNL     1     -13.221 -44.633  28.059  1.00  0.00     0.087 C 
ATOM     25  C   UNL     1     -13.455 -45.498  29.050  1.00  0.00     0.084 C 
ATOM     26  C   UNL     1     -11.940 -43.839  28.062  1.00  0.00     0.211 C 
ATOM     27  C   UNL     1     -12.513 -45.731  30.153  1.00  0.00     0.207 C 
ATOM     28  C   UNL     1     -10.928 -44.101  29.111  1.00  0.00     0.057 A 
ATOM     29  C   UNL     1     -11.217 -45.012  30.122  1.00  0.00     0.126 A 
ATOM     30  C   UNL     1      -9.672 -43.459  29.145  1.00  0.00    -0.032 A 
ATOM     31  N   UNL     1     -10.369 -45.317  31.143  1.00  0.00    -0.209 NA
ATOM     32  C   UNL     1      -8.792 -43.769  30.193  1.00  0.00     0.072 A 
ATOM     33  C   UNL     1      -9.195 -44.686  31.138  1.00  0.00     0.211 A 
ATOM     34  O   UNL     1     -11.772 -42.982  27.197  1.00  0.00    -0.287 OA
ATOM     35  O   UNL     1     -12.820 -46.508  31.050  1.00  0.00    -0.287 OA
ATOM     36  C   UNL     1      -9.224 -42.457  28.115  1.00  0.00     0.045 C 
BRANCH  33  37
ATOM     37  O   UNL     1      -8.382 -45.017  32.168  1.00  0.00    -0.493 OA
ATOM     38  H   UNL     1      -8.257 -44.143  32.584  1.00  0.00     0.295 HD
ENDBRANCH  33  37
ENDBRANCH  22  24
ENDBRANCH  21  22
ENDBRANCH   1  21
TORSDOF 8
ENDMDL
