MODEL 1
REMARK VINA RESULT:    -9.515      0.000      0.000
REMARK INTER + INTRA:         -14.207
REMARK INTER:                 -13.130
REMARK INTRA:                  -1.077
REMARK UNBOUND:                -1.077
REMARK SMILES COc1ccc([C@H]2CC(c3cc(F)ccc3F)=NN2c2ccc(S(N)(=O)=O)cc2)c(OC)c1
REMARK SMILES IDX 20 1 21 2 22 3 23 4 28 5 29 6 19 7 7 8 8 9 9 10 18 11 6 12
REMARK SMILES IDX 3 13 4 14 33 15 5 16 30 17 2 18 1 19 31 20 32 21 10 22 11 23
REMARK SMILES IDX 16 24 12 25 15 26 14 27 17 28 13 29 24 30 26 31 27 32 25 33
REMARK H PARENT 25 34 25 35
ROOT
ATOM      1  C   UNL     1     -20.096 -40.818  23.459  1.00  0.00     0.060 A 
ATOM      2  C   UNL     1     -19.447 -40.483  22.256  1.00  0.00     0.029 A 
ATOM      3  C   UNL     1     -20.109 -39.827  21.213  1.00  0.00     0.024 A 
ATOM      4  C   UNL     1     -21.453 -39.502  21.360  1.00  0.00     0.082 A 
ATOM      5  C   UNL     1     -22.128 -39.803  22.542  1.00  0.00     0.024 A 
ATOM      6  C   UNL     1     -21.449 -40.458  23.577  1.00  0.00     0.029 A 
ENDROOT
BRANCH   1   7
ATOM      7  N   UNL     1     -19.409 -41.480  24.476  1.00  0.00    -0.257 N 
ATOM      8  C   UNL     1     -19.874 -41.658  25.855  1.00  0.00     0.148 C 
ATOM      9  C   UNL     1     -18.593 -42.074  26.580  1.00  0.00     0.091 C 
ATOM     10  C   UNL     1     -17.709 -42.400  25.403  1.00  0.00     0.074 C 
ATOM     11  N   UNL     1     -18.175 -42.019  24.254  1.00  0.00    -0.176 NA
BRANCH   8  12
ATOM     12  C   UNL     1     -20.952 -42.727  26.009  1.00  0.00     0.019 A 
ATOM     13  C   UNL     1     -22.942 -44.699  26.346  1.00  0.00     0.122 A 
ATOM     14  C   UNL     1     -21.795 -44.974  25.604  1.00  0.00     0.047 A 
ATOM     15  C   UNL     1     -23.093 -43.441  26.932  1.00  0.00     0.093 A 
ATOM     16  C   UNL     1     -20.808 -44.004  25.439  1.00  0.00     0.013 A 
ATOM     17  C   UNL     1     -22.106 -42.456  26.773  1.00  0.00     0.127 A 
BRANCH  13  18
ATOM     18  O   UNL     1     -23.827 -45.739  26.426  1.00  0.00    -0.497 OA
ATOM     19  C   UNL     1     -24.377 -46.028  27.705  1.00  0.00     0.278 C 
ENDBRANCH  13  18
BRANCH  17  20
ATOM     20  O   UNL     1     -22.162 -41.205  27.335  1.00  0.00    -0.496 OA
ATOM     21  C   UNL     1     -23.244 -40.361  26.963  1.00  0.00     0.278 C 
ENDBRANCH  17  20
ENDBRANCH   8  12
BRANCH  10  22
ATOM     22  C   UNL     1     -16.399 -43.064  25.580  1.00  0.00     0.037 A 
ATOM     23  C   UNL     1     -15.876 -43.270  26.863  1.00  0.00     0.052 A 
ATOM     24  C   UNL     1     -15.663 -43.496  24.470  1.00  0.00     0.132 A 
ATOM     25  C   UNL     1     -14.640 -43.895  27.010  1.00  0.00     0.124 A 
ATOM     26  C   UNL     1     -14.424 -44.121  24.630  1.00  0.00     0.043 A 
ATOM     27  C   UNL     1     -13.908 -44.321  25.908  1.00  0.00     0.042 A 
ATOM     28  F   UNL     1     -16.122 -43.343  23.221  1.00  0.00    -0.206 F 
ATOM     29  F   UNL     1     -14.145 -44.085  28.240  1.00  0.00    -0.207 F 
ENDBRANCH  10  22
ENDBRANCH   1   7
BRANCH   4  30
ATOM     30  S   UNL     1     -22.316 -38.685  20.047  1.00  0.00     0.238 S 
ATOM     31  O   UNL     1     -23.409 -39.527  19.615  1.00  0.00    -0.207 OA
ATOM     32  O   UNL     1     -21.347 -38.139  19.127  1.00  0.00    -0.207 OA
BRANCH  30  33
ATOM     33  N   UNL     1     -23.032 -37.399  20.869  1.00  0.00    -0.225 NA
ATOM     34  H   UNL     1     -23.925 -37.183  20.423  1.00  0.00     0.137 HD
ATOM     35  H   UNL     1     -23.141 -37.578  21.867  1.00  0.00     0.137 HD
ENDBRANCH  30  33
ENDBRANCH   4  30
TORSDOF 7
ENDMDL
MODEL 2
REMARK VINA RESULT:    -9.387      3.950      7.343
REMARK INTER + INTRA:         -14.032
REMARK INTER:                 -12.524
REMARK INTRA:                  -1.507
REMARK UNBOUND:                -1.077
REMARK SMILES COc1ccc([C@H]2CC(c3cc(F)ccc3F)=NN2c2ccc(S(N)(=O)=O)cc2)c(OC)c1
REMARK SMILES IDX 20 1 21 2 22 3 23 4 28 5 29 6 19 7 7 8 8 9 9 10 18 11 6 12
REMARK SMILES IDX 3 13 4 14 33 15 5 16 30 17 2 18 1 19 31 20 32 21 10 22 11 23
REMARK SMILES IDX 16 24 12 25 15 26 14 27 17 28 13 29 24 30 26 31 27 32 25 33
REMARK H PARENT 25 34 25 35
ROOT
ATOM      1  C   UNL     1     -18.162 -42.401  24.335  1.00  0.00     0.060 A 
ATOM      2  C   UNL     1     -18.104 -42.342  25.740  1.00  0.00     0.029 A 
ATOM      3  C   UNL     1     -16.955 -42.702  26.452  1.00  0.00     0.024 A 
ATOM      4  C   UNL     1     -15.834 -43.142  25.754  1.00  0.00     0.082 A 
ATOM      5  C   UNL     1     -15.847 -43.201  24.362  1.00  0.00     0.024 A 
ATOM      6  C   UNL     1     -17.005 -42.835  23.665  1.00  0.00     0.029 A 
ENDROOT
BRANCH   1   7
ATOM      7  N   UNL     1     -19.326 -42.043  23.657  1.00  0.00    -0.257 N 
ATOM      8  C   UNL     1     -20.574 -42.814  23.620  1.00  0.00     0.148 C 
ATOM      9  C   UNL     1     -21.319 -42.170  22.450  1.00  0.00     0.091 C 
ATOM     10  C   UNL     1     -20.505 -40.915  22.266  1.00  0.00     0.074 C 
ATOM     11  N   UNL     1     -19.384 -40.896  22.919  1.00  0.00    -0.176 NA
BRANCH   8  12
ATOM     12  C   UNL     1     -21.395 -42.718  24.902  1.00  0.00     0.019 A 
ATOM     13  C   UNL     1     -22.945 -42.582  27.256  1.00  0.00     0.122 A 
ATOM     14  C   UNL     1     -22.802 -41.461  26.441  1.00  0.00     0.047 A 
ATOM     15  C   UNL     1     -22.324 -43.779  26.892  1.00  0.00     0.093 A 
ATOM     16  C   UNL     1     -22.040 -41.526  25.274  1.00  0.00     0.013 A 
ATOM     17  C   UNL     1     -21.556 -43.856  25.720  1.00  0.00     0.127 A 
BRANCH  13  18
ATOM     18  O   UNL     1     -23.717 -42.379  28.367  1.00  0.00    -0.497 OA
ATOM     19  C   UNL     1     -24.634 -41.293  28.331  1.00  0.00     0.278 C 
ENDBRANCH  13  18
BRANCH  17  20
ATOM     20  O   UNL     1     -20.934 -44.996  25.274  1.00  0.00    -0.496 OA
ATOM     21  C   UNL     1     -21.752 -46.118  24.968  1.00  0.00     0.278 C 
ENDBRANCH  17  20
ENDBRANCH   8  12
BRANCH  10  22
ATOM     22  C   UNL     1     -20.954 -39.826  21.371  1.00  0.00     0.037 A 
ATOM     23  C   UNL     1     -22.134 -39.123  21.645  1.00  0.00     0.052 A 
ATOM     24  C   UNL     1     -20.209 -39.483  20.236  1.00  0.00     0.132 A 
ATOM     25  C   UNL     1     -22.543 -38.104  20.789  1.00  0.00     0.124 A 
ATOM     26  C   UNL     1     -20.628 -38.459  19.385  1.00  0.00     0.043 A 
ATOM     27  C   UNL     1     -21.804 -37.765  19.662  1.00  0.00     0.042 A 
ATOM     28  F   UNL     1     -19.062 -40.107  19.934  1.00  0.00    -0.206 F 
ATOM     29  F   UNL     1     -23.674 -37.439  21.057  1.00  0.00    -0.207 F 
ENDBRANCH  10  22
ENDBRANCH   1   7
BRANCH   4  30
ATOM     30  S   UNL     1     -14.374 -43.618  26.635  1.00  0.00     0.238 S 
ATOM     31  O   UNL     1     -13.473 -42.489  26.685  1.00  0.00    -0.207 OA
ATOM     32  O   UNL     1     -13.960 -44.921  26.173  1.00  0.00    -0.207 OA
BRANCH  30  33
ATOM     33  N   UNL     1     -14.972 -43.790  28.202  1.00  0.00    -0.225 NA
ATOM     34  H   UNL     1     -15.892 -43.349  28.250  1.00  0.00     0.137 HD
ATOM     35  H   UNL     1     -15.002 -44.761  28.510  1.00  0.00     0.137 HD
ENDBRANCH  30  33
ENDBRANCH   4  30
TORSDOF 7
ENDMDL
MODEL 3
REMARK VINA RESULT:    -9.117      3.071      5.939
REMARK INTER + INTRA:         -13.659
REMARK INTER:                 -12.541
REMARK INTRA:                  -1.117
REMARK UNBOUND:                -1.077
REMARK SMILES COc1ccc([C@H]2CC(c3cc(F)ccc3F)=NN2c2ccc(S(N)(=O)=O)cc2)c(OC)c1
REMARK SMILES IDX 20 1 21 2 22 3 23 4 28 5 29 6 19 7 7 8 8 9 9 10 18 11 6 12
REMARK SMILES IDX 3 13 4 14 33 15 5 16 30 17 2 18 1 19 31 20 32 21 10 22 11 23
REMARK SMILES IDX 16 24 12 25 15 26 14 27 17 28 13 29 24 30 26 31 27 32 25 33
REMARK H PARENT 25 34 25 35
ROOT
ATOM      1  C   UNL     1     -22.260 -40.531  25.822  1.00  0.00     0.060 A 
ATOM      2  C   UNL     1     -22.420 -40.534  27.220  1.00  0.00     0.029 A 
ATOM      3  C   UNL     1     -23.477 -39.867  27.848  1.00  0.00     0.024 A 
ATOM      4  C   UNL     1     -24.397 -39.169  27.071  1.00  0.00     0.082 A 
ATOM      5  C   UNL     1     -24.282 -39.155  25.683  1.00  0.00     0.024 A 
ATOM      6  C   UNL     1     -23.219 -39.831  25.070  1.00  0.00     0.029 A 
ENDROOT
BRANCH   1   7
ATOM      7  N   UNL     1     -21.191 -41.200  25.229  1.00  0.00    -0.257 N 
ATOM      8  C   UNL     1     -21.209 -41.867  23.922  1.00  0.00     0.148 C 
ATOM      9  C   UNL     1     -19.948 -42.731  23.980  1.00  0.00     0.091 C 
ATOM     10  C   UNL     1     -19.256 -42.122  25.173  1.00  0.00     0.074 C 
ATOM     11  N   UNL     1     -19.989 -41.307  25.867  1.00  0.00    -0.176 NA
BRANCH   8  12
ATOM     12  C   UNL     1     -21.151 -40.906  22.739  1.00  0.00     0.019 A 
ATOM     13  C   UNL     1     -21.034 -39.170  20.517  1.00  0.00     0.122 A 
ATOM     14  C   UNL     1     -20.199 -38.968  21.614  1.00  0.00     0.047 A 
ATOM     15  C   UNL     1     -21.922 -40.248  20.521  1.00  0.00     0.093 A 
ATOM     16  C   UNL     1     -20.251 -39.826  22.712  1.00  0.00     0.013 A 
ATOM     17  C   UNL     1     -21.983 -41.118  21.620  1.00  0.00     0.127 A 
BRANCH  13  18
ATOM     18  O   UNL     1     -20.879 -38.255  19.513  1.00  0.00    -0.497 OA
ATOM     19  C   UNL     1     -22.028 -37.938  18.738  1.00  0.00     0.278 C 
ENDBRANCH  13  18
BRANCH  17  20
ATOM     20  O   UNL     1     -22.806 -42.215  21.695  1.00  0.00    -0.496 OA
ATOM     21  C   UNL     1     -24.209 -41.987  21.731  1.00  0.00     0.278 C 
ENDBRANCH  17  20
ENDBRANCH   8  12
BRANCH  10  22
ATOM     22  C   UNL     1     -17.863 -42.477  25.522  1.00  0.00     0.037 A 
ATOM     23  C   UNL     1     -16.951 -42.843  24.523  1.00  0.00     0.052 A 
ATOM     24  C   UNL     1     -17.435 -42.456  26.855  1.00  0.00     0.132 A 
ATOM     25  C   UNL     1     -15.645 -43.177  24.872  1.00  0.00     0.124 A 
ATOM     26  C   UNL     1     -16.123 -42.793  27.194  1.00  0.00     0.043 A 
ATOM     27  C   UNL     1     -15.222 -43.158  26.196  1.00  0.00     0.042 A 
ATOM     28  F   UNL     1     -18.257 -42.095  27.851  1.00  0.00    -0.206 F 
ATOM     29  F   UNL     1     -14.781 -43.528  23.912  1.00  0.00    -0.207 F 
ENDBRANCH  10  22
ENDBRANCH   1   7
BRANCH   4  30
ATOM     30  S   UNL     1     -25.734 -38.304  27.845  1.00  0.00     0.238 S 
ATOM     31  O   UNL     1     -25.854 -38.762  29.211  1.00  0.00    -0.207 OA
ATOM     32  O   UNL     1     -26.853 -38.274  26.935  1.00  0.00    -0.207 OA
BRANCH  30  33
ATOM     33  N   UNL     1     -25.105 -36.743  27.944  1.00  0.00    -0.225 NA
ATOM     34  H   UNL     1     -25.235 -36.281  27.042  1.00  0.00     0.137 HD
ATOM     35  H   UNL     1     -25.509 -36.201  28.708  1.00  0.00     0.137 HD
ENDBRANCH  30  33
ENDBRANCH   4  30
TORSDOF 7
ENDMDL
MODEL 4
REMARK VINA RESULT:    -8.855      3.060      5.971
REMARK INTER + INTRA:         -13.297
REMARK INTER:                 -11.953
REMARK INTRA:                  -1.344
REMARK UNBOUND:                -1.077
REMARK SMILES COc1ccc([C@H]2CC(c3cc(F)ccc3F)=NN2c2ccc(S(N)(=O)=O)cc2)c(OC)c1
REMARK SMILES IDX 20 1 21 2 22 3 23 4 28 5 29 6 19 7 7 8 8 9 9 10 18 11 6 12
REMARK SMILES IDX 3 13 4 14 33 15 5 16 30 17 2 18 1 19 31 20 32 21 10 22 11 23
REMARK SMILES IDX 16 24 12 25 15 26 14 27 17 28 13 29 24 30 26 31 27 32 25 33
REMARK H PARENT 25 34 25 35
ROOT
ATOM      1  C   UNL     1     -22.088 -40.539  25.176  1.00  0.00     0.060 A 
ATOM      2  C   UNL     1     -22.109 -40.577  26.583  1.00  0.00     0.029 A 
ATOM      3  C   UNL     1     -23.144 -39.999  27.326  1.00  0.00     0.024 A 
ATOM      4  C   UNL     1     -24.182 -39.357  26.659  1.00  0.00     0.082 A 
ATOM      5  C   UNL     1     -24.205 -39.311  25.266  1.00  0.00     0.024 A 
ATOM      6  C   UNL     1     -23.162 -39.897  24.538  1.00  0.00     0.029 A 
ENDROOT
BRANCH   1   7
ATOM      7  N   UNL     1     -21.037 -41.118  24.466  1.00  0.00    -0.257 N 
ATOM      8  C   UNL     1     -21.126 -41.712  23.127  1.00  0.00     0.148 C 
ATOM      9  C   UNL     1     -19.826 -42.513  23.040  1.00  0.00     0.091 C 
ATOM     10  C   UNL     1     -19.072 -41.936  24.211  1.00  0.00     0.074 C 
ATOM     11  N   UNL     1     -19.786 -41.199  25.005  1.00  0.00    -0.176 NA
BRANCH   8  12
ATOM     12  C   UNL     1     -21.205 -40.685  22.002  1.00  0.00     0.019 A 
ATOM     13  C   UNL     1     -21.342 -38.825  19.884  1.00  0.00     0.122 A 
ATOM     14  C   UNL     1     -20.424 -38.650  20.918  1.00  0.00     0.047 A 
ATOM     15  C   UNL     1     -22.186 -39.937  19.898  1.00  0.00     0.093 A 
ATOM     16  C   UNL     1     -20.350 -39.570  21.964  1.00  0.00     0.013 A 
ATOM     17  C   UNL     1     -22.121 -40.869  20.946  1.00  0.00     0.127 A 
BRANCH  13  18
ATOM     18  O   UNL     1     -21.307 -37.850  18.926  1.00  0.00    -0.497 OA
ATOM     19  C   UNL     1     -22.348 -37.852  17.957  1.00  0.00     0.278 C 
ENDBRANCH  13  18
BRANCH  17  20
ATOM     20  O   UNL     1     -22.893 -42.001  21.025  1.00  0.00    -0.496 OA
ATOM     21  C   UNL     1     -23.949 -42.149  20.083  1.00  0.00     0.278 C 
ENDBRANCH  17  20
ENDBRANCH   8  12
BRANCH  10  22
ATOM     22  C   UNL     1     -17.641 -42.238  24.434  1.00  0.00     0.037 A 
ATOM     23  C   UNL     1     -17.213 -42.790  25.649  1.00  0.00     0.052 A 
ATOM     24  C   UNL     1     -16.694 -41.977  23.437  1.00  0.00     0.132 A 
ATOM     25  C   UNL     1     -15.861 -43.064  25.842  1.00  0.00     0.124 A 
ATOM     26  C   UNL     1     -15.341 -42.257  23.641  1.00  0.00     0.043 A 
ATOM     27  C   UNL     1     -14.921 -42.803  24.852  1.00  0.00     0.042 A 
ATOM     28  F   UNL     1     -17.047 -41.469  22.249  1.00  0.00    -0.206 F 
ATOM     29  F   UNL     1     -15.460 -43.588  27.007  1.00  0.00    -0.207 F 
ENDBRANCH  10  22
ENDBRANCH   1   7
BRANCH   4  30
ATOM     30  S   UNL     1     -25.494 -38.604  27.579  1.00  0.00     0.238 S 
ATOM     31  O   UNL     1     -25.196 -37.201  27.750  1.00  0.00    -0.207 OA
ATOM     32  O   UNL     1     -25.836 -39.465  28.686  1.00  0.00    -0.207 OA
BRANCH  30  33
ATOM     33  N   UNL     1     -26.759 -38.666  26.465  1.00  0.00    -0.225 NA
ATOM     34  H   UNL     1     -27.491 -39.273  26.838  1.00  0.00     0.137 HD
ATOM     35  H   UNL     1     -27.118 -37.744  26.222  1.00  0.00     0.137 HD
ENDBRANCH  30  33
ENDBRANCH   4  30
TORSDOF 7
ENDMDL
MODEL 5
REMARK VINA RESULT:    -8.831      4.506      7.644
REMARK INTER + INTRA:         -13.263
REMARK INTER:                 -11.694
REMARK INTRA:                  -1.570
REMARK UNBOUND:                -1.077
REMARK SMILES COc1ccc([C@H]2CC(c3cc(F)ccc3F)=NN2c2ccc(S(N)(=O)=O)cc2)c(OC)c1
REMARK SMILES IDX 20 1 21 2 22 3 23 4 28 5 29 6 19 7 7 8 8 9 9 10 18 11 6 12
REMARK SMILES IDX 3 13 4 14 33 15 5 16 30 17 2 18 1 19 31 20 32 21 10 22 11 23
REMARK SMILES IDX 16 24 12 25 15 26 14 27 17 28 13 29 24 30 26 31 27 32 25 33
REMARK H PARENT 25 34 25 35
ROOT
ATOM      1  C   UNL     1     -19.317 -41.994  26.300  1.00  0.00     0.060 A 
ATOM      2  C   UNL     1     -18.570 -42.266  25.138  1.00  0.00     0.029 A 
ATOM      3  C   UNL     1     -17.226 -42.651  25.192  1.00  0.00     0.024 A 
ATOM      4  C   UNL     1     -16.600 -42.760  26.429  1.00  0.00     0.082 A 
ATOM      5  C   UNL     1     -17.309 -42.513  27.603  1.00  0.00     0.024 A 
ATOM      6  C   UNL     1     -18.654 -42.131  27.532  1.00  0.00     0.029 A 
ENDROOT
BRANCH   1   7
ATOM      7  N   UNL     1     -20.652 -41.605  26.210  1.00  0.00    -0.257 N 
ATOM      8  C   UNL     1     -21.499 -41.701  25.017  1.00  0.00     0.148 C 
ATOM      9  C   UNL     1     -22.676 -40.792  25.379  1.00  0.00     0.091 C 
ATOM     10  C   UNL     1     -22.448 -40.630  26.860  1.00  0.00     0.074 C 
ATOM     11  N   UNL     1     -21.297 -41.055  27.281  1.00  0.00    -0.176 NA
BRANCH   8  12
ATOM     12  C   UNL     1     -21.982 -43.116  24.716  1.00  0.00     0.019 A 
ATOM     13  C   UNL     1     -22.910 -45.714  24.123  1.00  0.00     0.122 A 
ATOM     14  C   UNL     1     -22.946 -45.234  25.431  1.00  0.00     0.047 A 
ATOM     15  C   UNL     1     -22.422 -44.893  23.104  1.00  0.00     0.093 A 
ATOM     16  C   UNL     1     -22.492 -43.949  25.727  1.00  0.00     0.013 A 
ATOM     17  C   UNL     1     -21.963 -43.598  23.391  1.00  0.00     0.127 A 
BRANCH  13  18
ATOM     18  O   UNL     1     -23.384 -46.989  23.975  1.00  0.00    -0.497 OA
ATOM     19  C   UNL     1     -22.457 -47.984  23.560  1.00  0.00     0.278 C 
ENDBRANCH  13  18
BRANCH  17  20
ATOM     20  O   UNL     1     -21.493 -42.717  22.448  1.00  0.00    -0.496 OA
ATOM     21  C   UNL     1     -21.967 -42.860  21.115  1.00  0.00     0.278 C 
ENDBRANCH  17  20
ENDBRANCH   8  12
BRANCH  10  22
ATOM     22  C   UNL     1     -23.459 -39.994  27.732  1.00  0.00     0.037 A 
ATOM     23  C   UNL     1     -23.517 -38.600  27.854  1.00  0.00     0.052 A 
ATOM     24  C   UNL     1     -24.372 -40.775  28.452  1.00  0.00     0.132 A 
ATOM     25  C   UNL     1     -24.473 -38.020  28.683  1.00  0.00     0.124 A 
ATOM     26  C   UNL     1     -25.328 -40.183  29.280  1.00  0.00     0.043 A 
ATOM     27  C   UNL     1     -25.378 -38.796  29.398  1.00  0.00     0.042 A 
ATOM     28  F   UNL     1     -24.378 -42.112  28.360  1.00  0.00    -0.206 F 
ATOM     29  F   UNL     1     -24.519 -36.686  28.795  1.00  0.00    -0.207 F 
ENDBRANCH  10  22
ENDBRANCH   1   7
BRANCH   4  30
ATOM     30  S   UNL     1     -14.896 -43.230  26.521  1.00  0.00     0.238 S 
ATOM     31  O   UNL     1     -14.088 -42.035  26.599  1.00  0.00    -0.207 OA
ATOM     32  O   UNL     1     -14.650 -44.270  25.551  1.00  0.00    -0.207 OA
BRANCH  30  33
ATOM     33  N   UNL     1     -14.825 -43.926  28.055  1.00  0.00    -0.225 NA
ATOM     34  H   UNL     1     -14.921 -44.938  27.959  1.00  0.00     0.137 HD
ATOM     35  H   UNL     1     -13.981 -43.672  28.567  1.00  0.00     0.137 HD
ENDBRANCH  30  33
ENDBRANCH   4  30
TORSDOF 7
ENDMDL
MODEL 6
REMARK VINA RESULT:    -8.736      4.101      7.919
REMARK INTER + INTRA:         -13.133
REMARK INTER:                 -11.541
REMARK INTRA:                  -1.592
REMARK UNBOUND:                -1.077
REMARK SMILES COc1ccc([C@H]2CC(c3cc(F)ccc3F)=NN2c2ccc(S(N)(=O)=O)cc2)c(OC)c1
REMARK SMILES IDX 20 1 21 2 22 3 23 4 28 5 29 6 19 7 7 8 8 9 9 10 18 11 6 12
REMARK SMILES IDX 3 13 4 14 33 15 5 16 30 17 2 18 1 19 31 20 32 21 10 22 11 23
REMARK SMILES IDX 16 24 12 25 15 26 14 27 17 28 13 29 24 30 26 31 27 32 25 33
REMARK H PARENT 25 34 25 35
ROOT
ATOM      1  C   UNL     1     -21.893 -43.760  22.994  1.00  0.00     0.060 A 
ATOM      2  C   UNL     1     -21.728 -44.464  24.201  1.00  0.00     0.029 A 
ATOM      3  C   UNL     1     -22.101 -45.806  24.335  1.00  0.00     0.024 A 
ATOM      4  C   UNL     1     -22.663 -46.467  23.247  1.00  0.00     0.082 A 
ATOM      5  C   UNL     1     -22.829 -45.808  22.030  1.00  0.00     0.024 A 
ATOM      6  C   UNL     1     -22.447 -44.466  21.912  1.00  0.00     0.029 A 
ENDROOT
BRANCH   1   7
ATOM      7  N   UNL     1     -21.518 -42.421  22.896  1.00  0.00    -0.257 N 
ATOM      8  C   UNL     1     -20.735 -41.672  23.885  1.00  0.00     0.148 C 
ATOM      9  C   UNL     1     -20.975 -40.222  23.460  1.00  0.00     0.091 C 
ATOM     10  C   UNL     1     -21.564 -40.436  22.088  1.00  0.00     0.074 C 
ATOM     11  N   UNL     1     -21.891 -41.663  21.824  1.00  0.00    -0.176 NA
BRANCH   8  12
ATOM     12  C   UNL     1     -19.246 -42.000  23.870  1.00  0.00     0.019 A 
ATOM     13  C   UNL     1     -16.483 -42.575  23.883  1.00  0.00     0.122 A 
ATOM     14  C   UNL     1     -17.089 -42.055  22.741  1.00  0.00     0.047 A 
ATOM     15  C   UNL     1     -17.252 -42.797  25.026  1.00  0.00     0.093 A 
ATOM     16  C   UNL     1     -18.453 -41.765  22.732  1.00  0.00     0.013 A 
ATOM     17  C   UNL     1     -18.626 -42.510  25.029  1.00  0.00     0.127 A 
BRANCH  13  18
ATOM     18  O   UNL     1     -15.142 -42.812  23.752  1.00  0.00    -0.497 OA
ATOM     19  C   UNL     1     -14.588 -43.863  24.534  1.00  0.00     0.278 C 
ENDBRANCH  13  18
BRANCH  17  20
ATOM     20  O   UNL     1     -19.450 -42.674  26.115  1.00  0.00    -0.496 OA
ATOM     21  C   UNL     1     -19.034 -42.106  27.351  1.00  0.00     0.278 C 
ENDBRANCH  17  20
ENDBRANCH   8  12
BRANCH  10  22
ATOM     22  C   UNL     1     -21.778 -39.308  21.155  1.00  0.00     0.037 A 
ATOM     23  C   UNL     1     -22.983 -38.594  21.169  1.00  0.00     0.052 A 
ATOM     24  C   UNL     1     -20.782 -38.939  20.243  1.00  0.00     0.132 A 
ATOM     25  C   UNL     1     -23.167 -37.537  20.280  1.00  0.00     0.124 A 
ATOM     26  C   UNL     1     -20.978 -37.878  19.356  1.00  0.00     0.043 A 
ATOM     27  C   UNL     1     -22.178 -37.173  19.374  1.00  0.00     0.042 A 
ATOM     28  F   UNL     1     -19.602 -39.573  20.197  1.00  0.00    -0.206 F 
ATOM     29  F   UNL     1     -24.323 -36.862  20.298  1.00  0.00    -0.207 F 
ENDBRANCH  10  22
ENDBRANCH   1   7
BRANCH   4  30
ATOM     30  S   UNL     1     -23.157 -48.160  23.398  1.00  0.00     0.238 S 
ATOM     31  O   UNL     1     -24.194 -48.429  22.427  1.00  0.00    -0.207 OA
ATOM     32  O   UNL     1     -23.304 -48.475  24.798  1.00  0.00    -0.207 OA
BRANCH  30  33
ATOM     33  N   UNL     1     -21.785 -48.958  22.829  1.00  0.00    -0.225 NA
ATOM     34  H   UNL     1     -20.967 -48.377  23.018  1.00  0.00     0.137 HD
ATOM     35  H   UNL     1     -21.682 -49.895  23.218  1.00  0.00     0.137 HD
ENDBRANCH  30  33
ENDBRANCH   4  30
TORSDOF 7
ENDMDL
MODEL 7
REMARK VINA RESULT:    -8.393      4.190      7.709
REMARK INTER + INTRA:         -12.660
REMARK INTER:                 -11.161
REMARK INTRA:                  -1.499
REMARK UNBOUND:                -1.077
REMARK SMILES COc1ccc([C@H]2CC(c3cc(F)ccc3F)=NN2c2ccc(S(N)(=O)=O)cc2)c(OC)c1
REMARK SMILES IDX 20 1 21 2 22 3 23 4 28 5 29 6 19 7 7 8 8 9 9 10 18 11 6 12
REMARK SMILES IDX 3 13 4 14 33 15 5 16 30 17 2 18 1 19 31 20 32 21 10 22 11 23
REMARK SMILES IDX 16 24 12 25 15 26 14 27 17 28 13 29 24 30 26 31 27 32 25 33
REMARK H PARENT 25 34 25 35
ROOT
ATOM      1  C   UNL     1     -19.279 -41.726  23.040  1.00  0.00     0.060 A 
ATOM      2  C   UNL     1     -19.110 -42.535  24.180  1.00  0.00     0.029 A 
ATOM      3  C   UNL     1     -17.846 -42.944  24.619  1.00  0.00     0.024 A 
ATOM      4  C   UNL     1     -16.719 -42.550  23.906  1.00  0.00     0.082 A 
ATOM      5  C   UNL     1     -16.843 -41.737  22.781  1.00  0.00     0.024 A 
ATOM      6  C   UNL     1     -18.116 -41.335  22.356  1.00  0.00     0.029 A 
ENDROOT
BRANCH   1   7
ATOM      7  N   UNL     1     -20.553 -41.343  22.625  1.00  0.00    -0.257 N 
ATOM      8  C   UNL     1     -21.811 -42.010  22.977  1.00  0.00     0.148 C 
ATOM      9  C   UNL     1     -22.787 -41.426  21.954  1.00  0.00     0.091 C 
ATOM     10  C   UNL     1     -21.975 -40.265  21.438  1.00  0.00     0.074 C 
ATOM     11  N   UNL     1     -20.729 -40.272  21.797  1.00  0.00    -0.176 NA
BRANCH   8  12
ATOM     12  C   UNL     1     -22.284 -41.724  24.399  1.00  0.00     0.019 A 
ATOM     13  C   UNL     1     -23.203 -41.221  27.019  1.00  0.00     0.122 A 
ATOM     14  C   UNL     1     -22.824 -40.167  26.190  1.00  0.00     0.047 A 
ATOM     15  C   UNL     1     -23.137 -42.530  26.536  1.00  0.00     0.093 A 
ATOM     16  C   UNL     1     -22.373 -40.411  24.893  1.00  0.00     0.013 A 
ATOM     17  C   UNL     1     -22.685 -42.787  25.233  1.00  0.00     0.127 A 
BRANCH  13  18
ATOM     18  O   UNL     1     -23.624 -40.839  28.263  1.00  0.00    -0.497 OA
ATOM     19  C   UNL     1     -24.257 -39.570  28.374  1.00  0.00     0.278 C 
ENDBRANCH  13  18
BRANCH  17  20
ATOM     20  O   UNL     1     -22.612 -44.038  24.672  1.00  0.00    -0.496 OA
ATOM     21  C   UNL     1     -21.699 -44.967  25.242  1.00  0.00     0.278 C 
ENDBRANCH  17  20
ENDBRANCH   8  12
BRANCH  10  22
ATOM     22  C   UNL     1     -22.572 -39.236  20.558  1.00  0.00     0.037 A 
ATOM     23  C   UNL     1     -22.565 -39.400  19.167  1.00  0.00     0.052 A 
ATOM     24  C   UNL     1     -23.151 -38.082  21.102  1.00  0.00     0.132 A 
ATOM     25  C   UNL     1     -23.129 -38.418  18.355  1.00  0.00     0.124 A 
ATOM     26  C   UNL     1     -23.713 -37.104  20.278  1.00  0.00     0.043 A 
ATOM     27  C   UNL     1     -23.701 -37.272  18.895  1.00  0.00     0.042 A 
ATOM     28  F   UNL     1     -23.204 -37.880  22.425  1.00  0.00    -0.206 F 
ATOM     29  F   UNL     1     -23.115 -38.581  17.026  1.00  0.00    -0.207 F 
ENDBRANCH  10  22
ENDBRANCH   1   7
BRANCH   4  30
ATOM     30  S   UNL     1     -15.111 -43.069  24.434  1.00  0.00     0.238 S 
ATOM     31  O   UNL     1     -14.732 -44.245  23.684  1.00  0.00    -0.207 OA
ATOM     32  O   UNL     1     -15.059 -43.018  25.875  1.00  0.00    -0.207 OA
BRANCH  30  33
ATOM     33  N   UNL     1     -14.146 -41.821  23.838  1.00  0.00    -0.225 NA
ATOM     34  H   UNL     1     -13.215 -42.193  23.644  1.00  0.00     0.137 HD
ATOM     35  H   UNL     1     -14.549 -41.365  23.020  1.00  0.00     0.137 HD
ENDBRANCH  30  33
ENDBRANCH   4  30
TORSDOF 7
ENDMDL
MODEL 8
REMARK VINA RESULT:    -8.187      4.245      8.168
REMARK INTER + INTRA:         -12.375
REMARK INTER:                 -10.811
REMARK INTRA:                  -1.564
REMARK UNBOUND:                -1.077
REMARK SMILES COc1ccc([C@H]2CC(c3cc(F)ccc3F)=NN2c2ccc(S(N)(=O)=O)cc2)c(OC)c1
REMARK SMILES IDX 20 1 21 2 22 3 23 4 28 5 29 6 19 7 7 8 8 9 9 10 18 11 6 12
REMARK SMILES IDX 3 13 4 14 33 15 5 16 30 17 2 18 1 19 31 20 32 21 10 22 11 23
REMARK SMILES IDX 16 24 12 25 15 26 14 27 17 28 13 29 24 30 26 31 27 32 25 33
REMARK H PARENT 25 34 25 35
ROOT
ATOM      1  C   UNL     1     -22.311 -44.344  25.009  1.00  0.00     0.060 A 
ATOM      2  C   UNL     1     -23.333 -44.561  24.065  1.00  0.00     0.029 A 
ATOM      3  C   UNL     1     -23.554 -45.814  23.484  1.00  0.00     0.024 A 
ATOM      4  C   UNL     1     -22.735 -46.881  23.840  1.00  0.00     0.082 A 
ATOM      5  C   UNL     1     -21.722 -46.711  24.782  1.00  0.00     0.024 A 
ATOM      6  C   UNL     1     -21.516 -45.450  25.355  1.00  0.00     0.029 A 
ENDROOT
BRANCH   1   7
ATOM      7  N   UNL     1     -22.113 -43.080  25.562  1.00  0.00    -0.257 N 
ATOM      8  C   UNL     1     -20.821 -42.408  25.733  1.00  0.00     0.148 C 
ATOM      9  C   UNL     1     -21.164 -41.287  26.716  1.00  0.00     0.091 C 
ATOM     10  C   UNL     1     -22.670 -41.316  26.645  1.00  0.00     0.074 C 
ATOM     11  N   UNL     1     -23.164 -42.347  26.032  1.00  0.00    -0.176 NA
BRANCH   8  12
ATOM     12  C   UNL     1     -20.248 -41.835  24.440  1.00  0.00     0.019 A 
ATOM     13  C   UNL     1     -19.152 -40.751  22.077  1.00  0.00     0.122 A 
ATOM     14  C   UNL     1     -20.489 -40.528  22.400  1.00  0.00     0.047 A 
ATOM     15  C   UNL     1     -18.354 -41.505  22.940  1.00  0.00     0.093 A 
ATOM     16  C   UNL     1     -21.033 -41.059  23.570  1.00  0.00     0.013 A 
ATOM     17  C   UNL     1     -18.891 -42.044  24.119  1.00  0.00     0.127 A 
BRANCH  13  18
ATOM     18  O   UNL     1     -18.751 -40.173  20.903  1.00  0.00    -0.497 OA
ATOM     19  C   UNL     1     -19.763 -39.626  20.068  1.00  0.00     0.278 C 
ENDBRANCH  13  18
BRANCH  17  20
ATOM     20  O   UNL     1     -18.174 -42.774  25.034  1.00  0.00    -0.496 OA
ATOM     21  C   UNL     1     -16.759 -42.806  24.891  1.00  0.00     0.278 C 
ENDBRANCH  17  20
ENDBRANCH   8  12
BRANCH  10  22
ATOM     22  C   UNL     1     -23.493 -40.258  27.270  1.00  0.00     0.037 A 
ATOM     23  C   UNL     1     -23.515 -38.965  26.733  1.00  0.00     0.052 A 
ATOM     24  C   UNL     1     -24.261 -40.532  28.409  1.00  0.00     0.132 A 
ATOM     25  C   UNL     1     -24.294 -37.981  27.338  1.00  0.00     0.124 A 
ATOM     26  C   UNL     1     -25.038 -39.538  29.007  1.00  0.00     0.043 A 
ATOM     27  C   UNL     1     -25.054 -38.253  28.470  1.00  0.00     0.042 A 
ATOM     28  F   UNL     1     -24.294 -41.755  28.956  1.00  0.00    -0.206 F 
ATOM     29  F   UNL     1     -24.307 -36.746  26.820  1.00  0.00    -0.207 F 
ENDBRANCH  10  22
ENDBRANCH   1   7
BRANCH   4  30
ATOM     30  S   UNL     1     -22.986 -48.473  23.106  1.00  0.00     0.238 S 
ATOM     31  O   UNL     1     -22.050 -48.635  22.017  1.00  0.00    -0.207 OA
ATOM     32  O   UNL     1     -24.404 -48.691  22.949  1.00  0.00    -0.207 OA
BRANCH  30  33
ATOM     33  N   UNL     1     -22.437 -49.493  24.330  1.00  0.00    -0.225 NA
ATOM     34  H   UNL     1     -23.022 -50.331  24.343  1.00  0.00     0.137 HD
ATOM     35  H   UNL     1     -21.448 -49.723  24.241  1.00  0.00     0.137 HD
ENDBRANCH  30  33
ENDBRANCH   4  30
TORSDOF 7
ENDMDL
MODEL 9
REMARK VINA RESULT:    -7.919      3.270      5.541
REMARK INTER + INTRA:         -12.006
REMARK INTER:                 -10.431
REMARK INTRA:                  -1.574
REMARK UNBOUND:                -1.077
REMARK SMILES COc1ccc([C@H]2CC(c3cc(F)ccc3F)=NN2c2ccc(S(N)(=O)=O)cc2)c(OC)c1
REMARK SMILES IDX 20 1 21 2 22 3 23 4 28 5 29 6 19 7 7 8 8 9 9 10 18 11 6 12
REMARK SMILES IDX 3 13 4 14 33 15 5 16 30 17 2 18 1 19 31 20 32 21 10 22 11 23
REMARK SMILES IDX 16 24 12 25 15 26 14 27 17 28 13 29 24 30 26 31 27 32 25 33
REMARK H PARENT 25 34 25 35
ROOT
ATOM      1  C   UNL     1     -22.114 -44.218  24.225  1.00  0.00     0.060 A 
ATOM      2  C   UNL     1     -22.488 -44.555  22.910  1.00  0.00     0.029 A 
ATOM      3  C   UNL     1     -23.501 -45.481  22.641  1.00  0.00     0.024 A 
ATOM      4  C   UNL     1     -24.157 -46.098  23.702  1.00  0.00     0.082 A 
ATOM      5  C   UNL     1     -23.825 -45.780  25.018  1.00  0.00     0.024 A 
ATOM      6  C   UNL     1     -22.810 -44.849  25.269  1.00  0.00     0.029 A 
ENDROOT
BRANCH   1   7
ATOM      7  N   UNL     1     -21.094 -43.296  24.458  1.00  0.00    -0.257 N 
ATOM      8  C   UNL     1     -21.123 -41.872  24.109  1.00  0.00     0.148 C 
ATOM      9  C   UNL     1     -19.650 -41.478  24.223  1.00  0.00     0.091 C 
ATOM     10  C   UNL     1     -19.106 -42.673  24.964  1.00  0.00     0.074 C 
ATOM     11  N   UNL     1     -19.920 -43.680  25.040  1.00  0.00    -0.176 NA
BRANCH   8  12
ATOM     12  C   UNL     1     -21.982 -41.026  25.043  1.00  0.00     0.019 A 
ATOM     13  C   UNL     1     -23.558 -39.417  26.744  1.00  0.00     0.122 A 
ATOM     14  C   UNL     1     -22.532 -40.201  27.267  1.00  0.00     0.047 A 
ATOM     15  C   UNL     1     -23.793 -39.425  25.367  1.00  0.00     0.093 A 
ATOM     16  C   UNL     1     -21.748 -40.994  26.429  1.00  0.00     0.013 A 
ATOM     17  C   UNL     1     -23.010 -40.219  24.515  1.00  0.00     0.127 A 
BRANCH  13  18
ATOM     18  O   UNL     1     -24.246 -38.691  27.677  1.00  0.00    -0.497 OA
ATOM     19  C   UNL     1     -24.119 -37.275  27.622  1.00  0.00     0.278 C 
ENDBRANCH  13  18
BRANCH  17  20
ATOM     20  O   UNL     1     -23.156 -40.266  23.150  1.00  0.00    -0.496 OA
ATOM     21  C   UNL     1     -22.740 -39.131  22.402  1.00  0.00     0.278 C 
ENDBRANCH  17  20
ENDBRANCH   8  12
BRANCH  10  22
ATOM     22  C   UNL     1     -17.733 -42.683  25.513  1.00  0.00     0.037 A 
ATOM     23  C   UNL     1     -16.630 -42.859  24.667  1.00  0.00     0.052 A 
ATOM     24  C   UNL     1     -17.513 -42.518  26.886  1.00  0.00     0.132 A 
ATOM     25  C   UNL     1     -15.345 -42.869  25.203  1.00  0.00     0.124 A 
ATOM     26  C   UNL     1     -16.220 -42.529  27.413  1.00  0.00     0.043 A 
ATOM     27  C   UNL     1     -15.128 -42.707  26.566  1.00  0.00     0.042 A 
ATOM     28  F   UNL     1     -18.526 -42.326  27.741  1.00  0.00    -0.206 F 
ATOM     29  F   UNL     1     -14.297 -43.041  24.387  1.00  0.00    -0.207 F 
ENDBRANCH  10  22
ENDBRANCH   1   7
BRANCH   4  30
ATOM     30  S   UNL     1     -25.431 -47.285  23.386  1.00  0.00     0.238 S 
ATOM     31  O   UNL     1     -25.068 -48.535  24.013  1.00  0.00    -0.207 OA
ATOM     32  O   UNL     1     -25.811 -47.196  21.996  1.00  0.00    -0.207 OA
BRANCH  30  33
ATOM     33  N   UNL     1     -26.698 -46.666  24.310  1.00  0.00    -0.225 NA
ATOM     34  H   UNL     1     -26.325 -45.954  24.940  1.00  0.00     0.137 HD
ATOM     35  H   UNL     1     -27.464 -46.305  23.741  1.00  0.00     0.137 HD
ENDBRANCH  30  33
ENDBRANCH   4  30
TORSDOF 7
ENDMDL
