MODEL 1
REMARK VINA RESULT:    -9.705      0.000      0.000
REMARK INTER + INTRA:          -9.988
REMARK INTER:                  -9.988
REMARK INTRA:                   0.000
REMARK UNBOUND:                 0.000
REMARK SMILES CC1=C[C@@H]2Cc3[nH]c4cc(Cl)ccc4c(=N)c3[C@H](C1)C2
REMARK SMILES IDX 7 1 6 2 17 3 15 4 14 5 13 6 12 7 10 8 11 9 9 10 8 11 18 12
REMARK SMILES IDX 19 13 2 14 1 15 3 16 4 17 5 18 20 19 16 21
REMARK H PARENT 7 20 16 22
ROOT
ATOM      1  N   UNL     1     -13.456 -45.055  26.831  1.00  0.00    -0.358 N 
ATOM      2  C   UNL     1     -13.115 -45.335  28.136  1.00  0.00     0.021 A 
ATOM      3  C   UNL     1     -13.814 -44.872  29.193  1.00  0.00     0.000 A 
ATOM      4  C   UNL     1     -15.011 -44.000  28.944  1.00  0.00     0.068 A 
ATOM      5  C   UNL     1     -15.315 -43.637  27.522  1.00  0.00     0.023 A 
ATOM      6  C   UNL     1     -16.370 -42.779  27.179  1.00  0.00     0.014 A 
ATOM      7  C   UNL     1     -16.621 -42.474  25.837  1.00  0.00     0.021 A 
ATOM      8  C   UNL     1     -15.823 -43.028  24.840  1.00  0.00     0.043 A 
ATOM      9  Cl  UNL     1     -16.141 -42.660  23.190  1.00  0.00    -0.084 Cl
ATOM     10  C   UNL     1     -14.768 -43.877  25.169  1.00  0.00     0.047 A 
ATOM     11  C   UNL     1     -14.497 -44.175  26.510  1.00  0.00     0.049 A 
ATOM     12  C   UNL     1     -13.462 -45.205  30.635  1.00  0.00     0.028 C 
ATOM     13  C   UNL     1     -12.647 -44.061  31.282  1.00  0.00     0.039 C 
ATOM     14  C   UNL     1     -11.178 -44.060  30.894  1.00  0.00    -0.076 C 
ATOM     15  C   UNL     1     -10.389 -42.854  31.311  1.00  0.00     0.039 C 
ATOM     16  C   UNL     1     -10.630 -45.078  30.204  1.00  0.00    -0.024 C 
ATOM     17  C   UNL     1     -11.411 -46.312  29.798  1.00  0.00     0.018 C 
ATOM     18  C   UNL     1     -11.879 -46.204  28.333  1.00  0.00     0.062 C 
ATOM     19  C   UNL     1     -12.635 -46.498  30.698  1.00  0.00     0.017 C 
ATOM     20  H   UNL     1     -12.793 -45.304  26.107  1.00  0.00     0.166 HD
ENDROOT
BRANCH   4  21
ATOM     21  N   UNL     1     -15.719 -43.600  29.957  1.00  0.00    -0.300 NA
ATOM     22  H   UNL     1     -15.161 -43.180  30.697  1.00  0.00     0.188 HD
ENDBRANCH   4  21
TORSDOF 1
ENDMDL
MODEL 2
REMARK VINA RESULT:    -9.500      2.046      3.149
REMARK INTER + INTRA:          -9.777
REMARK INTER:                  -9.777
REMARK INTRA:                   0.000
REMARK UNBOUND:                 0.000
REMARK SMILES CC1=C[C@@H]2Cc3[nH]c4cc(Cl)ccc4c(=N)c3[C@H](C1)C2
REMARK SMILES IDX 7 1 6 2 17 3 15 4 14 5 13 6 12 7 10 8 11 9 9 10 8 11 18 12
REMARK SMILES IDX 19 13 2 14 1 15 3 16 4 17 5 18 20 19 16 21
REMARK H PARENT 7 20 16 22
ROOT
ATOM      1  N   UNL     1     -10.756 -43.226  27.858  1.00  0.00    -0.358 N 
ATOM      2  C   UNL     1     -10.131 -43.858  28.910  1.00  0.00     0.021 A 
ATOM      3  C   UNL     1     -10.729 -44.812  29.653  1.00  0.00     0.000 A 
ATOM      4  C   UNL     1     -12.144 -45.198  29.333  1.00  0.00     0.068 A 
ATOM      5  C   UNL     1     -12.836 -44.439  28.241  1.00  0.00     0.023 A 
ATOM      6  C   UNL     1     -14.176 -44.673  27.900  1.00  0.00     0.014 A 
ATOM      7  C   UNL     1     -14.777 -43.946  26.868  1.00  0.00     0.021 A 
ATOM      8  C   UNL     1     -14.040 -42.990  26.175  1.00  0.00     0.043 A 
ATOM      9  Cl  UNL     1     -14.779 -42.104  24.898  1.00  0.00    -0.084 Cl
ATOM     10  C   UNL     1     -12.709 -42.745  26.507  1.00  0.00     0.047 A 
ATOM     11  C   UNL     1     -12.102 -43.455  27.551  1.00  0.00     0.049 A 
ATOM     12  C   UNL     1     -10.033 -45.537  30.796  1.00  0.00     0.028 C 
ATOM     13  C   UNL     1     -10.414 -44.913  32.158  1.00  0.00     0.039 C 
ATOM     14  C   UNL     1      -9.662 -43.631  32.476  1.00  0.00    -0.076 C 
ATOM     15  C   UNL     1     -10.143 -42.866  33.673  1.00  0.00     0.039 C 
ATOM     16  C   UNL     1      -8.635 -43.209  31.713  1.00  0.00    -0.024 C 
ATOM     17  C   UNL     1      -8.124 -43.984  30.516  1.00  0.00     0.018 C 
ATOM     18  C   UNL     1      -8.705 -43.412  29.207  1.00  0.00     0.062 C 
ATOM     19  C   UNL     1      -8.509 -45.462  30.625  1.00  0.00     0.017 C 
ATOM     20  H   UNL     1     -10.299 -42.415  27.457  1.00  0.00     0.166 HD
ENDROOT
BRANCH   4  21
ATOM     21  N   UNL     1     -12.704 -46.156  30.009  1.00  0.00    -0.300 NA
ATOM     22  H   UNL     1     -12.604 -46.048  31.016  1.00  0.00     0.188 HD
ENDBRANCH   4  21
TORSDOF 1
ENDMDL
MODEL 3
REMARK VINA RESULT:    -8.927      1.841      2.758
REMARK INTER + INTRA:          -9.188
REMARK INTER:                  -9.188
REMARK INTRA:                   0.000
REMARK UNBOUND:                 0.000
REMARK SMILES CC1=C[C@@H]2Cc3[nH]c4cc(Cl)ccc4c(=N)c3[C@H](C1)C2
REMARK SMILES IDX 7 1 6 2 17 3 15 4 14 5 13 6 12 7 10 8 11 9 9 10 8 11 18 12
REMARK SMILES IDX 19 13 2 14 1 15 3 16 4 17 5 18 20 19 16 21
REMARK H PARENT 7 20 16 22
ROOT
ATOM      1  N   UNL     1     -12.304 -42.763  27.624  1.00  0.00    -0.358 N 
ATOM      2  C   UNL     1     -11.812 -43.614  28.589  1.00  0.00     0.021 A 
ATOM      3  C   UNL     1     -12.031 -44.945  28.575  1.00  0.00     0.000 A 
ATOM      4  C   UNL     1     -12.859 -45.531  27.468  1.00  0.00     0.068 A 
ATOM      5  C   UNL     1     -13.458 -44.579  26.477  1.00  0.00     0.023 A 
ATOM      6  C   UNL     1     -14.298 -45.010  25.440  1.00  0.00     0.014 A 
ATOM      7  C   UNL     1     -14.827 -44.086  24.534  1.00  0.00     0.021 A 
ATOM      8  C   UNL     1     -14.514 -42.735  24.660  1.00  0.00     0.043 A 
ATOM      9  Cl  UNL     1     -15.157 -41.602  23.536  1.00  0.00    -0.084 Cl
ATOM     10  C   UNL     1     -13.684 -42.294  25.688  1.00  0.00     0.047 A 
ATOM     11  C   UNL     1     -13.163 -43.208  26.612  1.00  0.00     0.049 A 
ATOM     12  C   UNL     1     -11.462 -45.894  29.619  1.00  0.00     0.028 C 
ATOM     13  C   UNL     1     -12.515 -46.216  30.704  1.00  0.00     0.039 C 
ATOM     14  C   UNL     1     -12.676 -45.121  31.745  1.00  0.00    -0.076 C 
ATOM     15  C   UNL     1     -13.831 -45.278  32.691  1.00  0.00     0.039 C 
ATOM     16  C   UNL     1     -11.836 -44.071  31.799  1.00  0.00    -0.024 C 
ATOM     17  C   UNL     1     -10.652 -43.914  30.867  1.00  0.00     0.018 C 
ATOM     18  C   UNL     1     -10.998 -42.965  29.701  1.00  0.00     0.062 C 
ATOM     19  C   UNL     1     -10.232 -45.270  30.294  1.00  0.00     0.017 C 
ATOM     20  H   UNL     1     -12.232 -41.766  27.793  1.00  0.00     0.166 HD
ENDROOT
BRANCH   4  21
ATOM     21  N   UNL     1     -13.024 -46.819  27.420  1.00  0.00    -0.300 NA
ATOM     22  H   UNL     1     -12.311 -47.334  27.930  1.00  0.00     0.188 HD
ENDBRANCH   4  21
TORSDOF 1
ENDMDL
MODEL 4
REMARK VINA RESULT:    -8.752      4.078      7.120
REMARK INTER + INTRA:          -9.008
REMARK INTER:                  -9.008
REMARK INTRA:                   0.000
REMARK UNBOUND:                 0.000
REMARK SMILES CC1=C[C@@H]2Cc3[nH]c4cc(Cl)ccc4c(=N)c3[C@H](C1)C2
REMARK SMILES IDX 7 1 6 2 17 3 15 4 14 5 13 6 12 7 10 8 11 9 9 10 8 11 18 12
REMARK SMILES IDX 19 13 2 14 1 15 3 16 4 17 5 18 20 19 16 21
REMARK H PARENT 7 20 16 22
ROOT
ATOM      1  N   UNL     1     -11.909 -43.751  32.444  1.00  0.00    -0.358 N 
ATOM      2  C   UNL     1     -12.226 -44.483  31.321  1.00  0.00     0.021 A 
ATOM      3  C   UNL     1     -11.293 -45.043  30.523  1.00  0.00     0.000 A 
ATOM      4  C   UNL     1      -9.842 -44.852  30.860  1.00  0.00     0.068 A 
ATOM      5  C   UNL     1      -9.517 -43.982  32.036  1.00  0.00     0.023 A 
ATOM      6  C   UNL     1      -8.196 -43.685  32.403  1.00  0.00     0.014 A 
ATOM      7  C   UNL     1      -7.940 -42.874  33.514  1.00  0.00     0.021 A 
ATOM      8  C   UNL     1      -9.001 -42.365  34.258  1.00  0.00     0.043 A 
ATOM      9  Cl  UNL     1      -8.682 -41.377  35.630  1.00  0.00    -0.084 Cl
ATOM     10  C   UNL     1     -10.317 -42.648  33.900  1.00  0.00     0.047 A 
ATOM     11  C   UNL     1     -10.585 -43.444  32.779  1.00  0.00     0.049 A 
ATOM     12  C   UNL     1     -11.637 -45.880  29.300  1.00  0.00     0.028 C 
ATOM     13  C   UNL     1     -11.544 -45.034  28.008  1.00  0.00     0.039 C 
ATOM     14  C   UNL     1     -12.751 -44.142  27.773  1.00  0.00    -0.076 C 
ATOM     15  C   UNL     1     -12.622 -43.142  26.661  1.00  0.00     0.039 C 
ATOM     16  C   UNL     1     -13.860 -44.241  28.531  1.00  0.00    -0.024 C 
ATOM     17  C   UNL     1     -14.011 -45.262  29.639  1.00  0.00     0.018 C 
ATOM     18  C   UNL     1     -13.711 -44.626  31.012  1.00  0.00     0.062 C 
ATOM     19  C   UNL     1     -13.061 -46.442  29.421  1.00  0.00     0.017 C 
ATOM     20  H   UNL     1     -12.655 -43.234  32.895  1.00  0.00     0.166 HD
ENDROOT
BRANCH   4  21
ATOM     21  N   UNL     1      -8.944 -45.437  30.126  1.00  0.00    -0.300 NA
ATOM     22  H   UNL     1      -8.290 -44.786  29.697  1.00  0.00     0.188 HD
ENDBRANCH   4  21
TORSDOF 1
ENDMDL
MODEL 5
REMARK VINA RESULT:    -8.433      5.995     10.681
REMARK INTER + INTRA:          -8.680
REMARK INTER:                  -8.680
REMARK INTRA:                   0.000
REMARK UNBOUND:                 0.000
REMARK SMILES CC1=C[C@@H]2Cc3[nH]c4cc(Cl)ccc4c(=N)c3[C@H](C1)C2
REMARK SMILES IDX 7 1 6 2 17 3 15 4 14 5 13 6 12 7 10 8 11 9 9 10 8 11 18 12
REMARK SMILES IDX 19 13 2 14 1 15 3 16 4 17 5 18 20 19 16 21
REMARK H PARENT 7 20 16 22
ROOT
ATOM      1  N   UNL     1     -17.988 -40.895  21.783  1.00  0.00    -0.358 N 
ATOM      2  C   UNL     1     -19.243 -40.384  21.536  1.00  0.00     0.021 A 
ATOM      3  C   UNL     1     -20.240 -40.414  22.445  1.00  0.00     0.000 A 
ATOM      4  C   UNL     1     -19.981 -41.044  23.783  1.00  0.00     0.068 A 
ATOM      5  C   UNL     1     -18.636 -41.671  24.001  1.00  0.00     0.023 A 
ATOM      6  C   UNL     1     -18.308 -42.340  25.189  1.00  0.00     0.014 A 
ATOM      7  C   UNL     1     -17.038 -42.903  25.351  1.00  0.00     0.021 A 
ATOM      8  C   UNL     1     -16.097 -42.793  24.331  1.00  0.00     0.043 A 
ATOM      9  Cl  UNL     1     -14.532 -43.477  24.538  1.00  0.00    -0.084 Cl
ATOM     10  C   UNL     1     -16.413 -42.135  23.144  1.00  0.00     0.047 A 
ATOM     11  C   UNL     1     -17.688 -41.583  22.964  1.00  0.00     0.049 A 
ATOM     12  C   UNL     1     -21.618 -39.822  22.190  1.00  0.00     0.028 C 
ATOM     13  C   UNL     1     -22.620 -40.920  21.763  1.00  0.00     0.039 C 
ATOM     14  C   UNL     1     -22.495 -41.329  20.306  1.00  0.00    -0.076 C 
ATOM     15  C   UNL     1     -23.285 -42.537  19.892  1.00  0.00     0.039 C 
ATOM     16  C   UNL     1     -21.709 -40.652  19.447  1.00  0.00    -0.024 C 
ATOM     17  C   UNL     1     -20.926 -39.417  19.846  1.00  0.00     0.018 C 
ATOM     18  C   UNL     1     -19.459 -39.778  20.155  1.00  0.00     0.062 C 
ATOM     19  C   UNL     1     -21.546 -38.761  21.083  1.00  0.00     0.017 C 
ATOM     20  H   UNL     1     -17.350 -40.978  20.999  1.00  0.00     0.166 HD
ENDROOT
BRANCH   4  21
ATOM     21  N   UNL     1     -20.920 -41.023  24.680  1.00  0.00    -0.300 NA
ATOM     22  H   UNL     1     -21.610 -40.293  24.523  1.00  0.00     0.188 HD
ENDBRANCH   4  21
TORSDOF 1
ENDMDL
MODEL 6
REMARK VINA RESULT:    -8.387      4.549      8.994
REMARK INTER + INTRA:          -8.632
REMARK INTER:                  -8.632
REMARK INTRA:                   0.000
REMARK UNBOUND:                 0.000
REMARK SMILES CC1=C[C@@H]2Cc3[nH]c4cc(Cl)ccc4c(=N)c3[C@H](C1)C2
REMARK SMILES IDX 7 1 6 2 17 3 15 4 14 5 13 6 12 7 10 8 11 9 9 10 8 11 18 12
REMARK SMILES IDX 19 13 2 14 1 15 3 16 4 17 5 18 20 19 16 21
REMARK H PARENT 7 20 16 22
ROOT
ATOM      1  N   UNL     1     -17.920 -42.226  23.934  1.00  0.00    -0.358 N 
ATOM      2  C   UNL     1     -19.213 -41.764  23.826  1.00  0.00     0.021 A 
ATOM      3  C   UNL     1     -19.972 -41.451  24.897  1.00  0.00     0.000 A 
ATOM      4  C   UNL     1     -19.393 -41.626  26.271  1.00  0.00     0.068 A 
ATOM      5  C   UNL     1     -18.016 -42.211  26.370  1.00  0.00     0.023 A 
ATOM      6  C   UNL     1     -17.403 -42.475  27.603  1.00  0.00     0.014 A 
ATOM      7  C   UNL     1     -16.114 -43.014  27.646  1.00  0.00     0.021 A 
ATOM      8  C   UNL     1     -15.436 -43.285  26.461  1.00  0.00     0.043 A 
ATOM      9  Cl  UNL     1     -13.845 -43.938  26.517  1.00  0.00    -0.084 Cl
ATOM     10  C   UNL     1     -16.037 -43.031  25.229  1.00  0.00     0.047 A 
ATOM     11  C   UNL     1     -17.335 -42.508  25.174  1.00  0.00     0.049 A 
ATOM     12  C   UNL     1     -21.389 -40.909  24.783  1.00  0.00     0.028 C 
ATOM     13  C   UNL     1     -22.429 -42.037  24.977  1.00  0.00     0.039 C 
ATOM     14  C   UNL     1     -22.630 -42.902  23.744  1.00  0.00    -0.076 C 
ATOM     15  C   UNL     1     -23.457 -44.139  23.937  1.00  0.00     0.039 C 
ATOM     16  C   UNL     1     -22.084 -42.576  22.557  1.00  0.00    -0.024 C 
ATOM     17  C   UNL     1     -21.268 -41.317  22.344  1.00  0.00     0.018 C 
ATOM     18  C   UNL     1     -19.759 -41.628  22.411  1.00  0.00     0.062 C 
ATOM     19  C   UNL     1     -21.606 -40.267  23.406  1.00  0.00     0.017 C 
ATOM     20  H   UNL     1     -17.477 -42.587  23.097  1.00  0.00     0.166 HD
ENDROOT
BRANCH   4  21
ATOM     21  N   UNL     1     -20.101 -41.272  27.302  1.00  0.00    -0.300 NA
ATOM     22  H   UNL     1     -20.558 -42.056  27.763  1.00  0.00     0.188 HD
ENDBRANCH   4  21
TORSDOF 1
ENDMDL
MODEL 7
REMARK VINA RESULT:    -8.295      4.958      9.615
REMARK INTER + INTRA:          -8.537
REMARK INTER:                  -8.537
REMARK INTRA:                   0.000
REMARK UNBOUND:                 0.000
REMARK SMILES CC1=C[C@@H]2Cc3[nH]c4cc(Cl)ccc4c(=N)c3[C@H](C1)C2
REMARK SMILES IDX 7 1 6 2 17 3 15 4 14 5 13 6 12 7 10 8 11 9 9 10 8 11 18 12
REMARK SMILES IDX 19 13 2 14 1 15 3 16 4 17 5 18 20 19 16 21
REMARK H PARENT 7 20 16 22
ROOT
ATOM      1  N   UNL     1     -20.234 -42.172  25.867  1.00  0.00    -0.358 N 
ATOM      2  C   UNL     1     -20.637 -42.138  24.550  1.00  0.00     0.021 A 
ATOM      3  C   UNL     1     -19.797 -42.364  23.518  1.00  0.00     0.000 A 
ATOM      4  C   UNL     1     -18.353 -42.652  23.811  1.00  0.00     0.068 A 
ATOM      5  C   UNL     1     -17.916 -42.599  25.244  1.00  0.00     0.023 A 
ATOM      6  C   UNL     1     -16.580 -42.790  25.625  1.00  0.00     0.014 A 
ATOM      7  C   UNL     1     -16.220 -42.740  26.975  1.00  0.00     0.021 A 
ATOM      8  C   UNL     1     -17.192 -42.504  27.943  1.00  0.00     0.043 A 
ATOM      9  Cl  UNL     1     -16.748 -42.454  29.604  1.00  0.00    -0.084 Cl
ATOM     10  C   UNL     1     -18.522 -42.308  27.576  1.00  0.00     0.047 A 
ATOM     11  C   UNL     1     -18.891 -42.338  26.225  1.00  0.00     0.049 A 
ATOM     12  C   UNL     1     -20.244 -42.361  22.064  1.00  0.00     0.028 C 
ATOM     13  C   UNL     1     -19.934 -41.001  21.395  1.00  0.00     0.039 C 
ATOM     14  C   UNL     1     -20.935 -39.910  21.735  1.00  0.00    -0.076 C 
ATOM     15  C   UNL     1     -20.568 -38.522  21.296  1.00  0.00     0.039 C 
ATOM     16  C   UNL     1     -22.073 -40.179  22.402  1.00  0.00    -0.024 C 
ATOM     17  C   UNL     1     -22.466 -41.579  22.828  1.00  0.00     0.018 C 
ATOM     18  C   UNL     1     -22.107 -41.819  24.309  1.00  0.00     0.062 C 
ATOM     19  C   UNL     1     -21.753 -42.626  21.969  1.00  0.00     0.017 C 
ATOM     20  H   UNL     1     -20.884 -41.836  26.567  1.00  0.00     0.166 HD
ENDROOT
BRANCH   4  21
ATOM     21  N   UNL     1     -17.554 -42.925  22.823  1.00  0.00    -0.300 NA
ATOM     22  H   UNL     1     -16.581 -43.015  23.107  1.00  0.00     0.188 HD
ENDBRANCH   4  21
TORSDOF 1
ENDMDL
MODEL 8
REMARK VINA RESULT:    -8.261      4.684      5.756
REMARK INTER + INTRA:          -8.503
REMARK INTER:                  -8.503
REMARK INTRA:                   0.000
REMARK UNBOUND:                 0.000
REMARK SMILES CC1=C[C@@H]2Cc3[nH]c4cc(Cl)ccc4c(=N)c3[C@H](C1)C2
REMARK SMILES IDX 7 1 6 2 17 3 15 4 14 5 13 6 12 7 10 8 11 9 9 10 8 11 18 12
REMARK SMILES IDX 19 13 2 14 1 15 3 16 4 17 5 18 20 19 16 21
REMARK H PARENT 7 20 16 22
ROOT
ATOM      1  N   UNL     1     -11.977 -42.417  31.393  1.00  0.00    -0.358 N 
ATOM      2  C   UNL     1     -11.318 -43.330  30.601  1.00  0.00     0.021 A 
ATOM      3  C   UNL     1     -11.621 -44.645  30.588  1.00  0.00     0.000 A 
ATOM      4  C   UNL     1     -12.716 -45.144  31.485  1.00  0.00     0.068 A 
ATOM      5  C   UNL     1     -13.362 -44.150  32.403  1.00  0.00     0.023 A 
ATOM      6  C   UNL     1     -14.351 -44.519  33.327  1.00  0.00     0.014 A 
ATOM      7  C   UNL     1     -14.932 -43.555  34.157  1.00  0.00     0.021 A 
ATOM      8  C   UNL     1     -14.529 -42.226  34.062  1.00  0.00     0.043 A 
ATOM      9  Cl  UNL     1     -15.254 -41.041  35.078  1.00  0.00    -0.084 Cl
ATOM     10  C   UNL     1     -13.544 -41.848  33.152  1.00  0.00     0.047 A 
ATOM     11  C   UNL     1     -12.943 -42.808  32.328  1.00  0.00     0.049 A 
ATOM     12  C   UNL     1     -10.919 -45.653  29.690  1.00  0.00     0.028 C 
ATOM     13  C   UNL     1      -9.813 -46.406  30.465  1.00  0.00     0.039 C 
ATOM     14  C   UNL     1      -8.529 -45.610  30.625  1.00  0.00    -0.076 C 
ATOM     15  C   UNL     1      -7.504 -46.196  31.551  1.00  0.00     0.039 C 
ATOM     16  C   UNL     1      -8.336 -44.444  29.980  1.00  0.00    -0.024 C 
ATOM     17  C   UNL     1      -9.353 -43.854  29.024  1.00  0.00     0.018 C 
ATOM     18  C   UNL     1     -10.201 -42.774  29.727  1.00  0.00     0.062 C 
ATOM     19  C   UNL     1     -10.284 -44.943  28.485  1.00  0.00     0.017 C 
ATOM     20  H   UNL     1     -11.586 -41.485  31.464  1.00  0.00     0.166 HD
ENDROOT
BRANCH   4  21
ATOM     21  N   UNL     1     -13.049 -46.399  31.434  1.00  0.00    -0.300 NA
ATOM     22  H   UNL     1     -14.048 -46.545  31.313  1.00  0.00     0.188 HD
ENDBRANCH   4  21
TORSDOF 1
ENDMDL
MODEL 9
REMARK VINA RESULT:    -8.027      7.542      9.603
REMARK INTER + INTRA:          -8.262
REMARK INTER:                  -8.262
REMARK INTRA:                   0.000
REMARK UNBOUND:                 0.000
REMARK SMILES CC1=C[C@@H]2Cc3[nH]c4cc(Cl)ccc4c(=N)c3[C@H](C1)C2
REMARK SMILES IDX 7 1 6 2 17 3 15 4 14 5 13 6 12 7 10 8 11 9 9 10 8 11 18 12
REMARK SMILES IDX 19 13 2 14 1 15 3 16 4 17 5 18 20 19 16 21
REMARK H PARENT 7 20 16 22
ROOT
ATOM      1  N   UNL     1     -21.658 -39.841  23.453  1.00  0.00    -0.358 N 
ATOM      2  C   UNL     1     -21.040 -40.625  24.402  1.00  0.00     0.021 A 
ATOM      3  C   UNL     1     -19.864 -41.250  24.184  1.00  0.00     0.000 A 
ATOM      4  C   UNL     1     -19.201 -41.101  22.846  1.00  0.00     0.068 A 
ATOM      5  C   UNL     1     -19.931 -40.314  21.799  1.00  0.00     0.023 A 
ATOM      6  C   UNL     1     -19.434 -40.163  20.496  1.00  0.00     0.014 A 
ATOM      7  C   UNL     1     -20.146 -39.413  19.555  1.00  0.00     0.021 A 
ATOM      8  C   UNL     1     -21.349 -38.813  19.914  1.00  0.00     0.043 A 
ATOM      9  Cl  UNL     1     -22.218 -37.882  18.757  1.00  0.00    -0.084 Cl
ATOM     10  C   UNL     1     -21.856 -38.960  21.204  1.00  0.00     0.047 A 
ATOM     11  C   UNL     1     -21.160 -39.723  22.150  1.00  0.00     0.049 A 
ATOM     12  C   UNL     1     -19.160 -42.091  25.239  1.00  0.00     0.028 C 
ATOM     13  C   UNL     1     -19.451 -43.595  25.030  1.00  0.00     0.039 C 
ATOM     14  C   UNL     1     -20.811 -44.033  25.548  1.00  0.00    -0.076 C 
ATOM     15  C   UNL     1     -21.238 -45.424  25.179  1.00  0.00     0.039 C 
ATOM     16  C   UNL     1     -21.585 -43.211  26.281  1.00  0.00    -0.024 C 
ATOM     17  C   UNL     1     -21.154 -41.814  26.681  1.00  0.00     0.018 C 
ATOM     18  C   UNL     1     -21.767 -40.762  25.733  1.00  0.00     0.062 C 
ATOM     19  C   UNL     1     -19.629 -41.687  26.644  1.00  0.00     0.017 C 
ATOM     20  H   UNL     1     -22.608 -39.540  23.637  1.00  0.00     0.166 HD
ENDROOT
BRANCH   4  21
ATOM     21  N   UNL     1     -18.041 -41.655  22.652  1.00  0.00    -0.300 NA
ATOM     22  H   UNL     1     -18.102 -42.572  22.217  1.00  0.00     0.188 HD
ENDBRANCH   4  21
TORSDOF 1
ENDMDL
