MODEL 1
REMARK VINA RESULT:   -10.570      0.000      0.000
REMARK INTER + INTRA:         -10.879
REMARK INTER:                 -10.879
REMARK INTRA:                   0.000
REMARK UNBOUND:                 0.000
REMARK SMILES CC1=C[C@@H]2Cc3nc4cc(Cl)ccc4c(N)c3[C@H](C1)C2
REMARK SMILES IDX 1 1 2 2 3 3 4 4 5 5 6 6 7 7 8 8 9 9 10 10 11 11 12 12 13 13
REMARK SMILES IDX 14 14 15 15 17 16 18 17 19 18 20 19 16 20
REMARK H PARENT 16 21 16 22
ROOT
ATOM      1  C   UNL     1      -9.659 -43.085  29.173  1.00  0.00     0.039 C 
ATOM      2  C   UNL     1     -10.560 -44.206  28.761  1.00  0.00    -0.076 C 
ATOM      3  C   UNL     1     -11.597 -43.967  27.982  1.00  0.00    -0.024 C 
ATOM      4  C   UNL     1     -13.244 -46.340  28.043  1.00  0.00     0.018 C 
ATOM      5  C   UNL     1     -13.242 -44.916  28.503  1.00  0.00     0.064 C 
ATOM      6  C   UNL     1     -12.096 -44.825  29.444  1.00  0.00     0.047 A 
ATOM      7  N   UNL     1     -12.191 -43.934  30.448  1.00  0.00    -0.252 NA
ATOM      8  C   UNL     1     -11.220 -43.754  31.367  1.00  0.00     0.074 A 
ATOM      9  C   UNL     1     -11.340 -42.848  32.372  1.00  0.00     0.049 A 
ATOM     10  C   UNL     1     -10.334 -42.668  33.318  1.00  0.00     0.043 A 
ATOM     11  Cl  UNL     1     -10.544 -41.491  34.581  1.00  0.00    -0.084 Cl
ATOM     12  C   UNL     1      -9.183 -43.417  33.252  1.00  0.00     0.021 A 
ATOM     13  C   UNL     1      -9.075 -44.336  32.225  1.00  0.00     0.014 A 
ATOM     14  C   UNL     1     -10.060 -44.527  31.280  1.00  0.00     0.024 A 
ATOM     15  C   UNL     1      -9.917 -45.467  30.253  1.00  0.00     0.046 A 
ATOM     16  C   UNL     1     -10.961 -45.594  29.342  1.00  0.00     0.001 A 
ATOM     17  C   UNL     1     -10.779 -46.604  28.259  1.00  0.00     0.028 C 
ATOM     18  C   UNL     1     -10.270 -45.594  29.241  1.00  0.00     0.039 C 
ATOM     19  C   UNL     1     -11.957 -46.659  27.310  1.00  0.00     0.017 C 
ENDROOT
BRANCH  15  20
ATOM     20  N   UNL     1      -8.735 -46.244  30.175  1.00  0.00    -0.398 N 
ATOM     21  H   UNL     1      -8.646 -47.217  30.548  1.00  0.00     0.156 HD
ATOM     22  H   UNL     1      -7.848 -45.874  29.721  1.00  0.00     0.156 HD
ENDBRANCH  15  20
TORSDOF 1
ENDMDL
MODEL 2
REMARK VINA RESULT:    -9.959      2.452      4.851
REMARK INTER + INTRA:         -10.250
REMARK INTER:                 -10.250
REMARK INTRA:                   0.000
REMARK UNBOUND:                 0.000
REMARK SMILES CC1=C[C@@H]2Cc3nc4cc(Cl)ccc4c(N)c3[C@H](C1)C2
REMARK SMILES IDX 1 1 2 2 3 3 4 4 5 5 6 6 7 7 8 8 9 9 10 10 11 11 12 12 13 13
REMARK SMILES IDX 14 14 15 15 17 16 18 17 19 18 20 19 16 20
REMARK H PARENT 16 21 16 22
ROOT
ATOM      1  C   UNL     1     -11.786 -46.175  31.229  1.00  0.00     0.039 C 
ATOM      2  C   UNL     1     -10.442 -45.534  31.378  1.00  0.00    -0.076 C 
ATOM      3  C   UNL     1     -10.263 -44.571  32.261  1.00  0.00    -0.024 C 
ATOM      4  C   UNL     1      -7.709 -43.360  31.664  1.00  0.00     0.018 C 
ATOM      5  C   UNL     1      -9.175 -43.064  31.614  1.00  0.00     0.064 C 
ATOM      6  C   UNL     1      -9.729 -44.057  30.658  1.00  0.00     0.047 A 
ATOM      7  N   UNL     1     -10.811 -43.693  29.947  1.00  0.00    -0.252 NA
ATOM      8  C   UNL     1     -11.409 -44.502  29.048  1.00  0.00     0.074 A 
ATOM      9  C   UNL     1     -12.501 -44.110  28.341  1.00  0.00     0.049 A 
ATOM     10  C   UNL     1     -13.112 -44.950  27.415  1.00  0.00     0.043 A 
ATOM     11  Cl  UNL     1     -14.509 -44.393  26.541  1.00  0.00    -0.084 Cl
ATOM     12  C   UNL     1     -12.614 -46.212  27.194  1.00  0.00     0.021 A 
ATOM     13  C   UNL     1     -11.502 -46.598  27.919  1.00  0.00     0.014 A 
ATOM     14  C   UNL     1     -10.884 -45.779  28.840  1.00  0.00     0.024 A 
ATOM     15  C   UNL     1      -9.759 -46.202  29.557  1.00  0.00     0.046 A 
ATOM     16  C   UNL     1      -9.199 -45.311  30.467  1.00  0.00     0.001 A 
ATOM     17  C   UNL     1      -8.001 -45.790  31.215  1.00  0.00     0.028 C 
ATOM     18  C   UNL     1      -9.309 -45.998  30.517  1.00  0.00     0.039 C 
ATOM     19  C   UNL     1      -7.472 -44.760  32.191  1.00  0.00     0.017 C 
ENDROOT
BRANCH  15  20
ATOM     20  N   UNL     1      -9.236 -47.501  29.338  1.00  0.00    -0.398 N 
ATOM     21  H   UNL     1      -8.599 -47.997  30.002  1.00  0.00     0.156 HD
ATOM     22  H   UNL     1      -9.469 -48.060  28.464  1.00  0.00     0.156 HD
ENDBRANCH  15  20
TORSDOF 1
ENDMDL
MODEL 3
REMARK VINA RESULT:    -8.877      8.535     10.920
REMARK INTER + INTRA:          -9.136
REMARK INTER:                  -9.136
REMARK INTRA:                   0.000
REMARK UNBOUND:                 0.000
REMARK SMILES CC1=C[C@@H]2Cc3nc4cc(Cl)ccc4c(N)c3[C@H](C1)C2
REMARK SMILES IDX 1 1 2 2 3 3 4 4 5 5 6 6 7 7 8 8 9 9 10 10 11 11 12 12 13 13
REMARK SMILES IDX 14 14 15 15 17 16 18 17 19 18 20 19 16 20
REMARK H PARENT 16 21 16 22
ROOT
ATOM      1  C   UNL     1     -20.078 -43.911  25.117  1.00  0.00     0.039 C 
ATOM      2  C   UNL     1     -20.608 -42.656  24.498  1.00  0.00    -0.076 C 
ATOM      3  C   UNL     1     -20.942 -42.639  23.222  1.00  0.00    -0.024 C 
ATOM      4  C   UNL     1     -21.300 -39.865  22.496  1.00  0.00     0.018 C 
ATOM      5  C   UNL     1     -20.378 -41.020  22.255  1.00  0.00     0.064 C 
ATOM      6  C   UNL     1     -19.809 -41.334  23.590  1.00  0.00     0.047 A 
ATOM      7  N   UNL     1     -18.567 -41.849  23.627  1.00  0.00    -0.252 NA
ATOM      8  C   UNL     1     -17.938 -42.177  24.774  1.00  0.00     0.074 A 
ATOM      9  C   UNL     1     -16.683 -42.695  24.784  1.00  0.00     0.049 A 
ATOM     10  C   UNL     1     -16.040 -43.031  25.972  1.00  0.00     0.043 A 
ATOM     11  Cl  UNL     1     -14.432 -43.692  25.922  1.00  0.00    -0.084 Cl
ATOM     12  C   UNL     1     -16.674 -42.842  27.177  1.00  0.00     0.021 A 
ATOM     13  C   UNL     1     -17.952 -42.314  27.153  1.00  0.00     0.014 A 
ATOM     14  C   UNL     1     -18.603 -41.975  25.986  1.00  0.00     0.024 A 
ATOM     15  C   UNL     1     -19.897 -41.442  25.998  1.00  0.00     0.046 A 
ATOM     16  C   UNL     1     -20.479 -41.129  24.773  1.00  0.00     0.001 A 
ATOM     17  C   UNL     1     -21.858 -40.562  24.819  1.00  0.00     0.028 C 
ATOM     18  C   UNL     1     -20.753 -41.428  25.341  1.00  0.00     0.039 C 
ATOM     19  C   UNL     1     -22.413 -40.268  23.441  1.00  0.00     0.017 C 
ENDROOT
BRANCH  15  20
ATOM     20  N   UNL     1     -20.561 -41.243  27.234  1.00  0.00    -0.398 N 
ATOM     21  H   UNL     1     -21.522 -41.596  27.448  1.00  0.00     0.156 HD
ATOM     22  H   UNL     1     -20.108 -40.711  28.035  1.00  0.00     0.156 HD
ENDBRANCH  15  20
TORSDOF 1
ENDMDL
MODEL 4
REMARK VINA RESULT:    -8.811      2.497      3.734
REMARK INTER + INTRA:          -9.068
REMARK INTER:                  -9.068
REMARK INTRA:                   0.000
REMARK UNBOUND:                 0.000
REMARK SMILES CC1=C[C@@H]2Cc3nc4cc(Cl)ccc4c(N)c3[C@H](C1)C2
REMARK SMILES IDX 1 1 2 2 3 3 4 4 5 5 6 6 7 7 8 8 9 9 10 10 11 11 12 12 13 13
REMARK SMILES IDX 14 14 15 15 17 16 18 17 19 18 20 19 16 20
REMARK H PARENT 16 21 16 22
ROOT
ATOM      1  C   UNL     1     -10.513 -42.430  30.502  1.00  0.00     0.039 C 
ATOM      2  C   UNL     1      -9.737 -43.681  30.765  1.00  0.00    -0.076 C 
ATOM      3  C   UNL     1      -9.618 -44.595  29.821  1.00  0.00    -0.024 C 
ATOM      4  C   UNL     1      -8.567 -46.968  31.093  1.00  0.00     0.018 C 
ATOM      5  C   UNL     1      -9.817 -46.449  30.454  1.00  0.00     0.064 C 
ATOM      6  C   UNL     1     -10.237 -45.312  31.313  1.00  0.00     0.047 A 
ATOM      7  N   UNL     1     -11.554 -45.052  31.394  1.00  0.00    -0.252 NA
ATOM      8  C   UNL     1     -12.063 -44.048  32.138  1.00  0.00     0.074 A 
ATOM      9  C   UNL     1     -13.398 -43.807  32.203  1.00  0.00     0.049 A 
ATOM     10  C   UNL     1     -13.916 -42.769  32.974  1.00  0.00     0.043 A 
ATOM     11  Cl  UNL     1     -15.635 -42.508  33.018  1.00  0.00    -0.084 Cl
ATOM     12  C   UNL     1     -13.073 -41.958  33.695  1.00  0.00     0.021 A 
ATOM     13  C   UNL     1     -11.717 -42.215  33.620  1.00  0.00     0.014 A 
ATOM     14  C   UNL     1     -11.186 -43.238  32.862  1.00  0.00     0.024 A 
ATOM     15  C   UNL     1      -9.807 -43.470  32.809  1.00  0.00     0.046 A 
ATOM     16  C   UNL     1      -9.359 -44.524  32.018  1.00  0.00     0.001 A 
ATOM     17  C   UNL     1      -7.884 -44.747  31.982  1.00  0.00     0.028 C 
ATOM     18  C   UNL     1      -9.100 -43.881  32.104  1.00  0.00     0.039 C 
ATOM     19  C   UNL     1      -7.491 -45.902  31.086  1.00  0.00     0.017 C 
ENDROOT
BRANCH  15  20
ATOM     20  N   UNL     1      -8.928 -42.640  33.548  1.00  0.00    -0.398 N 
ATOM     21  H   UNL     1      -7.892 -42.606  33.404  1.00  0.00     0.156 HD
ATOM     22  H   UNL     1      -9.279 -41.987  34.309  1.00  0.00     0.156 HD
ENDBRANCH  15  20
TORSDOF 1
ENDMDL
MODEL 5
REMARK VINA RESULT:    -8.580      2.431      3.258
REMARK INTER + INTRA:          -8.831
REMARK INTER:                  -8.831
REMARK INTRA:                   0.000
REMARK UNBOUND:                 0.000
REMARK SMILES CC1=C[C@@H]2Cc3nc4cc(Cl)ccc4c(N)c3[C@H](C1)C2
REMARK SMILES IDX 1 1 2 2 3 3 4 4 5 5 6 6 7 7 8 8 9 9 10 10 11 11 12 12 13 13
REMARK SMILES IDX 14 14 15 15 17 16 18 17 19 18 20 19 16 20
REMARK H PARENT 16 21 16 22
ROOT
ATOM      1  C   UNL     1      -9.873 -43.551  29.858  1.00  0.00     0.039 C 
ATOM      2  C   UNL     1     -11.146 -43.826  30.595  1.00  0.00    -0.076 C 
ATOM      3  C   UNL     1     -12.039 -42.868  30.751  1.00  0.00    -0.024 C 
ATOM      4  C   UNL     1     -13.933 -43.812  32.718  1.00  0.00     0.018 C 
ATOM      5  C   UNL     1     -12.849 -42.794  32.544  1.00  0.00     0.064 C 
ATOM      6  C   UNL     1     -11.618 -43.591  32.307  1.00  0.00     0.047 A 
ATOM      7  N   UNL     1     -10.452 -43.062  32.719  1.00  0.00    -0.252 NA
ATOM      8  C   UNL     1      -9.265 -43.683  32.562  1.00  0.00     0.074 A 
ATOM      9  C   UNL     1      -8.100 -43.128  32.987  1.00  0.00     0.049 A 
ATOM     10  C   UNL     1      -6.879 -43.776  32.823  1.00  0.00     0.043 A 
ATOM     11  Cl  UNL     1      -5.420 -43.014  33.387  1.00  0.00    -0.084 Cl
ATOM     12  C   UNL     1      -6.827 -45.009  32.218  1.00  0.00     0.021 A 
ATOM     13  C   UNL     1      -8.020 -45.563  31.790  1.00  0.00     0.014 A 
ATOM     14  C   UNL     1      -9.238 -44.936  31.945  1.00  0.00     0.024 A 
ATOM     15  C   UNL     1     -10.427 -45.526  31.500  1.00  0.00     0.046 A 
ATOM     16  C   UNL     1     -11.611 -44.823  31.697  1.00  0.00     0.001 A 
ATOM     17  C   UNL     1     -12.861 -45.477  31.212  1.00  0.00     0.028 C 
ATOM     18  C   UNL     1     -11.392 -45.194  31.148  1.00  0.00     0.039 C 
ATOM     19  C   UNL     1     -14.093 -44.633  31.455  1.00  0.00     0.017 C 
ENDROOT
BRANCH  15  20
ATOM     20  N   UNL     1     -10.386 -46.797  30.875  1.00  0.00    -0.398 N 
ATOM     21  H   UNL     1     -10.241 -47.698  31.386  1.00  0.00     0.156 HD
ATOM     22  H   UNL     1     -10.504 -46.911  29.825  1.00  0.00     0.156 HD
ENDBRANCH  15  20
TORSDOF 1
ENDMDL
MODEL 6
REMARK VINA RESULT:    -8.566     10.420     12.853
REMARK INTER + INTRA:          -8.816
REMARK INTER:                  -8.816
REMARK INTRA:                   0.000
REMARK UNBOUND:                 0.000
REMARK SMILES CC1=C[C@@H]2Cc3nc4cc(Cl)ccc4c(N)c3[C@H](C1)C2
REMARK SMILES IDX 1 1 2 2 3 3 4 4 5 5 6 6 7 7 8 8 9 9 10 10 11 11 12 12 13 13
REMARK SMILES IDX 14 14 15 15 17 16 18 17 19 18 20 19 16 20
REMARK H PARENT 16 21 16 22
ROOT
ATOM      1  C   UNL     1     -20.902 -42.654  22.136  1.00  0.00     0.039 C 
ATOM      2  C   UNL     1     -20.380 -42.455  23.524  1.00  0.00    -0.076 C 
ATOM      3  C   UNL     1     -21.171 -42.648  24.562  1.00  0.00    -0.024 C 
ATOM      4  C   UNL     1     -19.810 -41.545  26.859  1.00  0.00     0.018 C 
ATOM      5  C   UNL     1     -20.997 -41.296  25.981  1.00  0.00     0.064 C 
ATOM      6  C   UNL     1     -20.424 -41.049  24.633  1.00  0.00     0.047 A 
ATOM      7  N   UNL     1     -21.104 -40.226  23.815  1.00  0.00    -0.252 NA
ATOM      8  C   UNL     1     -20.691 -39.921  22.567  1.00  0.00     0.074 A 
ATOM      9  C   UNL     1     -21.396 -39.087  21.760  1.00  0.00     0.049 A 
ATOM     10  C   UNL     1     -20.964 -38.776  20.473  1.00  0.00     0.043 A 
ATOM     11  Cl  UNL     1     -21.909 -37.701  19.485  1.00  0.00    -0.084 Cl
ATOM     12  C   UNL     1     -19.797 -39.317  19.988  1.00  0.00     0.021 A 
ATOM     13  C   UNL     1     -19.089 -40.164  20.820  1.00  0.00     0.014 A 
ATOM     14  C   UNL     1     -19.503 -40.482  22.097  1.00  0.00     0.024 A 
ATOM     15  C   UNL     1     -18.760 -41.345  22.913  1.00  0.00     0.046 A 
ATOM     16  C   UNL     1     -19.252 -41.611  24.187  1.00  0.00     0.001 A 
ATOM     17  C   UNL     1     -18.439 -42.533  25.033  1.00  0.00     0.028 C 
ATOM     18  C   UNL     1     -18.956 -42.036  23.718  1.00  0.00     0.039 C 
ATOM     19  C   UNL     1     -19.059 -42.775  26.393  1.00  0.00     0.017 C 
ENDROOT
BRANCH  15  20
ATOM     20  N   UNL     1     -17.556 -41.908  22.423  1.00  0.00    -0.398 N 
ATOM     21  H   UNL     1     -16.711 -41.350  22.161  1.00  0.00     0.156 HD
ATOM     22  H   UNL     1     -17.439 -42.956  22.292  1.00  0.00     0.156 HD
ENDBRANCH  15  20
TORSDOF 1
ENDMDL
MODEL 7
REMARK VINA RESULT:    -8.250     10.537     12.873
REMARK INTER + INTRA:          -8.491
REMARK INTER:                  -8.491
REMARK INTRA:                   0.000
REMARK UNBOUND:                 0.000
REMARK SMILES CC1=C[C@@H]2Cc3nc4cc(Cl)ccc4c(N)c3[C@H](C1)C2
REMARK SMILES IDX 1 1 2 2 3 3 4 4 5 5 6 6 7 7 8 8 9 9 10 10 11 11 12 12 13 13
REMARK SMILES IDX 14 14 15 15 17 16 18 17 19 18 20 19 16 20
REMARK H PARENT 16 21 16 22
ROOT
ATOM      1  C   UNL     1     -20.595 -42.766  21.946  1.00  0.00     0.039 C 
ATOM      2  C   UNL     1     -20.844 -41.358  21.504  1.00  0.00    -0.076 C 
ATOM      3  C   UNL     1     -20.804 -41.051  20.222  1.00  0.00    -0.024 C 
ATOM      4  C   UNL     1     -20.755 -38.166  20.060  1.00  0.00     0.018 C 
ATOM      5  C   UNL     1     -19.882 -39.359  19.818  1.00  0.00     0.064 C 
ATOM      6  C   UNL     1     -19.734 -39.996  21.151  1.00  0.00     0.047 A 
ATOM      7  N   UNL     1     -18.590 -40.660  21.395  1.00  0.00    -0.252 NA
ATOM      8  C   UNL     1     -18.333 -41.281  22.565  1.00  0.00     0.074 A 
ATOM      9  C   UNL     1     -17.169 -41.946  22.786  1.00  0.00     0.049 A 
ATOM     10  C   UNL     1     -16.911 -42.584  23.996  1.00  0.00     0.043 A 
ATOM     11  Cl  UNL     1     -15.402 -43.420  24.221  1.00  0.00    -0.084 Cl
ATOM     12  C   UNL     1     -17.844 -42.554  25.006  1.00  0.00     0.021 A 
ATOM     13  C   UNL     1     -19.024 -41.875  24.767  1.00  0.00     0.014 A 
ATOM     14  C   UNL     1     -19.296 -41.237  23.575  1.00  0.00     0.024 A 
ATOM     15  C   UNL     1     -20.503 -40.557  23.367  1.00  0.00     0.046 A 
ATOM     16  C   UNL     1     -20.694 -39.942  22.135  1.00  0.00     0.001 A 
ATOM     17  C   UNL     1     -21.989 -39.226  21.943  1.00  0.00     0.028 C 
ATOM     18  C   UNL     1     -21.137 -40.309  22.531  1.00  0.00     0.039 C 
ATOM     19  C   UNL     1     -22.113 -38.602  20.569  1.00  0.00     0.017 C 
ENDROOT
BRANCH  15  20
ATOM     20  N   UNL     1     -21.472 -40.520  24.400  1.00  0.00    -0.398 N 
ATOM     21  H   UNL     1     -21.542 -39.757  25.113  1.00  0.00     0.156 HD
ATOM     22  H   UNL     1     -22.202 -41.284  24.513  1.00  0.00     0.156 HD
ENDBRANCH  15  20
TORSDOF 1
ENDMDL
MODEL 8
REMARK VINA RESULT:    -8.230      3.097      5.238
REMARK INTER + INTRA:          -8.471
REMARK INTER:                  -8.471
REMARK INTRA:                   0.000
REMARK UNBOUND:                 0.000
REMARK SMILES CC1=C[C@@H]2Cc3nc4cc(Cl)ccc4c(N)c3[C@H](C1)C2
REMARK SMILES IDX 1 1 2 2 3 3 4 4 5 5 6 6 7 7 8 8 9 9 10 10 11 11 12 12 13 13
REMARK SMILES IDX 14 14 15 15 17 16 18 17 19 18 20 19 16 20
REMARK H PARENT 16 21 16 22
ROOT
ATOM      1  C   UNL     1     -11.454 -42.801  28.585  1.00  0.00     0.039 C 
ATOM      2  C   UNL     1     -11.004 -43.939  29.446  1.00  0.00    -0.076 C 
ATOM      3  C   UNL     1      -9.782 -44.420  29.319  1.00  0.00    -0.024 C 
ATOM      4  C   UNL     1      -9.718 -46.918  30.769  1.00  0.00     0.018 C 
ATOM      5  C   UNL     1      -9.670 -46.384  29.371  1.00  0.00     0.064 C 
ATOM      6  C   UNL     1     -10.979 -45.711  29.179  1.00  0.00     0.047 A 
ATOM      7  N   UNL     1     -11.485 -45.687  27.932  1.00  0.00    -0.252 NA
ATOM      8  C   UNL     1     -12.663 -45.107  27.625  1.00  0.00     0.074 A 
ATOM      9  C   UNL     1     -13.152 -45.097  26.358  1.00  0.00     0.049 A 
ATOM     10  C   UNL     1     -14.370 -44.497  26.049  1.00  0.00     0.043 A 
ATOM     11  Cl  UNL     1     -14.944 -44.515  24.407  1.00  0.00    -0.084 Cl
ATOM     12  C   UNL     1     -15.112 -43.894  27.036  1.00  0.00     0.021 A 
ATOM     13  C   UNL     1     -14.603 -43.912  28.322  1.00  0.00     0.014 A 
ATOM     14  C   UNL     1     -13.400 -44.501  28.645  1.00  0.00     0.024 A 
ATOM     15  C   UNL     1     -12.914 -44.501  29.959  1.00  0.00     0.046 A 
ATOM     16  C   UNL     1     -11.691 -45.119  30.195  1.00  0.00     0.001 A 
ATOM     17  C   UNL     1     -11.200 -45.102  31.604  1.00  0.00     0.028 C 
ATOM     18  C   UNL     1     -11.952 -44.522  30.446  1.00  0.00     0.039 C 
ATOM     19  C   UNL     1      -9.857 -45.783  31.762  1.00  0.00     0.017 C 
ENDROOT
BRANCH  15  20
ATOM     20  N   UNL     1     -13.671 -43.882  30.985  1.00  0.00    -0.398 N 
ATOM     21  H   UNL     1     -14.220 -43.000  30.859  1.00  0.00     0.156 HD
ATOM     22  H   UNL     1     -13.726 -44.288  31.965  1.00  0.00     0.156 HD
ENDBRANCH  15  20
TORSDOF 1
ENDMDL
MODEL 9
REMARK VINA RESULT:    -7.624      9.860     12.289
REMARK INTER + INTRA:          -7.847
REMARK INTER:                  -7.847
REMARK INTRA:                   0.000
REMARK UNBOUND:                 0.000
REMARK SMILES CC1=C[C@@H]2Cc3nc4cc(Cl)ccc4c(N)c3[C@H](C1)C2
REMARK SMILES IDX 1 1 2 2 3 3 4 4 5 5 6 6 7 7 8 8 9 9 10 10 11 11 12 12 13 13
REMARK SMILES IDX 14 14 15 15 17 16 18 17 19 18 20 19 16 20
REMARK H PARENT 16 21 16 22
ROOT
ATOM      1  C   UNL     1     -22.262 -43.047  25.232  1.00  0.00     0.039 C 
ATOM      2  C   UNL     1     -20.807 -42.807  25.483  1.00  0.00    -0.076 C 
ATOM      3  C   UNL     1     -20.173 -43.499  26.410  1.00  0.00    -0.024 C 
ATOM      4  C   UNL     1     -17.630 -42.194  26.828  1.00  0.00     0.018 C 
ATOM      5  C   UNL     1     -18.937 -42.438  27.515  1.00  0.00     0.064 C 
ATOM      6  C   UNL     1     -19.946 -41.765  26.659  1.00  0.00     0.047 A 
ATOM      7  N   UNL     1     -21.043 -41.275  27.264  1.00  0.00    -0.252 NA
ATOM      8  C   UNL     1     -22.032 -40.643  26.600  1.00  0.00     0.074 A 
ATOM      9  C   UNL     1     -23.130 -40.158  27.235  1.00  0.00     0.049 A 
ATOM     10  C   UNL     1     -24.147 -39.506  26.542  1.00  0.00     0.043 A 
ATOM     11  Cl  UNL     1     -25.530 -38.906  27.410  1.00  0.00    -0.084 Cl
ATOM     12  C   UNL     1     -24.057 -39.339  25.181  1.00  0.00     0.021 A 
ATOM     13  C   UNL     1     -22.935 -39.838  24.547  1.00  0.00     0.014 A 
ATOM     14  C   UNL     1     -21.919 -40.486  25.217  1.00  0.00     0.024 A 
ATOM     15  C   UNL     1     -20.795 -40.979  24.543  1.00  0.00     0.046 A 
ATOM     16  C   UNL     1     -19.818 -41.619  25.298  1.00  0.00     0.001 A 
ATOM     17  C   UNL     1     -18.632 -42.133  24.551  1.00  0.00     0.028 C 
ATOM     18  C   UNL     1     -20.082 -41.779  24.672  1.00  0.00     0.039 C 
ATOM     19  C   UNL     1     -17.632 -42.826  25.452  1.00  0.00     0.017 C 
ENDROOT
BRANCH  15  20
ATOM     20  N   UNL     1     -20.692 -40.812  23.139  1.00  0.00    -0.398 N 
ATOM     21  H   UNL     1     -21.307 -40.181  22.576  1.00  0.00     0.156 HD
ATOM     22  H   UNL     1     -19.966 -41.333  22.564  1.00  0.00     0.156 HD
ENDBRANCH  15  20
TORSDOF 1
ENDMDL
