MODEL 1
REMARK VINA RESULT:   -12.042      0.000      0.000
REMARK INTER + INTRA:         -16.663
REMARK INTER:                 -16.266
REMARK INTRA:                  -0.398
REMARK UNBOUND:                -0.398
REMARK SMILES COc1cc2c(cc1OC)C(=O)/C(=C/c1cc[n+](Cc3ccc(F)cc3)cc1)OC2
REMARK SMILES IDX 15 1 16 2 17 3 18 4 27 5 28 6 14 7 13 8 3 9 4 10 8 11 5 12
REMARK SMILES IDX 7 13 6 14 30 15 11 16 29 17 12 18 2 19 1 20 9 21 10 22 19 23
REMARK SMILES IDX 20 24 21 25 26 26 22 27 25 28 23 29 24 30
REMARK H PARENT
ROOT
ATOM      1  C   UNL     1     -12.871 -44.183  27.636  1.00  0.00    -0.010 A 
ATOM      2  C   UNL     1     -13.534 -45.206  28.311  1.00  0.00     0.079 A 
ATOM      3  C   UNL     1     -12.922 -45.828  29.393  1.00  0.00     0.309 A 
ATOM      4  N   UNL     1     -11.683 -45.456  29.796  1.00  0.00    -0.201 N 
ATOM      5  C   UNL     1     -11.013 -44.481  29.141  1.00  0.00     0.309 A 
ATOM      6  C   UNL     1     -11.587 -43.835  28.052  1.00  0.00     0.079 A 
ENDROOT
BRANCH   1   7
ATOM      7  C   UNL     1     -13.451 -43.501  26.475  1.00  0.00     0.059 C 
BRANCH   7   8
ATOM      8  C   UNL     1     -14.731 -43.108  26.348  1.00  0.00     0.168 C 
ATOM      9  C   UNL     1     -19.310 -41.668  24.648  1.00  0.00     0.161 A 
ATOM     10  C   UNL     1     -18.745 -41.907  25.908  1.00  0.00     0.058 A 
ATOM     11  C   UNL     1     -18.570 -41.956  23.480  1.00  0.00     0.161 A 
ATOM     12  C   UNL     1     -17.441 -42.410  26.017  1.00  0.00     0.005 A 
ATOM     13  C   UNL     1     -17.274 -42.469  23.591  1.00  0.00     0.063 A 
ATOM     14  C   UNL     1     -16.720 -42.688  24.855  1.00  0.00     0.036 A 
ATOM     15  C   UNL     1     -16.839 -42.751  27.348  1.00  0.00     0.266 C 
ATOM     16  C   UNL     1     -15.350 -43.225  24.984  1.00  0.00     0.228 C 
ATOM     17  O   UNL     1     -15.425 -42.525  27.395  1.00  0.00    -0.485 OA
ATOM     18  O   UNL     1     -14.762 -43.708  24.025  1.00  0.00    -0.285 OA
BRANCH   9  19
ATOM     19  O   UNL     1     -20.573 -41.172  24.448  1.00  0.00    -0.493 OA
ATOM     20  C   UNL     1     -21.379 -40.912  25.588  1.00  0.00     0.278 C 
ENDBRANCH   9  19
BRANCH  11  21
ATOM     21  O   UNL     1     -19.202 -41.698  22.290  1.00  0.00    -0.493 OA
ATOM     22  C   UNL     1     -18.833 -40.521  21.584  1.00  0.00     0.278 C 
ENDBRANCH  11  21
ENDBRANCH   7   8
ENDBRANCH   1   7
BRANCH   4  23
ATOM     23  C   UNL     1     -11.052 -46.141  30.953  1.00  0.00     0.393 C 
BRANCH  23  24
ATOM     24  C   UNL     1      -9.883 -45.350  31.487  1.00  0.00     0.017 A 
ATOM     25  C   UNL     1     -10.102 -44.149  32.185  1.00  0.00     0.013 A 
ATOM     26  C   UNL     1      -8.564 -45.802  31.309  1.00  0.00     0.013 A 
ATOM     27  C   UNL     1      -9.024 -43.412  32.678  1.00  0.00     0.040 A 
ATOM     28  C   UNL     1      -7.489 -45.060  31.803  1.00  0.00     0.040 A 
ATOM     29  C   UNL     1      -7.728 -43.872  32.481  1.00  0.00     0.123 A 
ATOM     30  F   UNL     1      -6.696 -43.161  32.952  1.00  0.00    -0.207 F 
ENDBRANCH  23  24
ENDBRANCH   4  23
TORSDOF 6
ENDMDL
MODEL 2
REMARK VINA RESULT:   -10.910      1.179      2.328
REMARK INTER + INTRA:         -15.134
REMARK INTER:                 -15.080
REMARK INTRA:                  -0.054
REMARK UNBOUND:                -0.398
REMARK SMILES COc1cc2c(cc1OC)C(=O)/C(=C/c1cc[n+](Cc3ccc(F)cc3)cc1)OC2
REMARK SMILES IDX 15 1 16 2 17 3 18 4 27 5 28 6 14 7 13 8 3 9 4 10 8 11 5 12
REMARK SMILES IDX 7 13 6 14 30 15 11 16 29 17 12 18 2 19 1 20 9 21 10 22 19 23
REMARK SMILES IDX 20 24 21 25 26 26 22 27 25 28 23 29 24 30
REMARK H PARENT
ROOT
ATOM      1  C   UNL     1     -13.103 -44.083  26.975  1.00  0.00    -0.010 A 
ATOM      2  C   UNL     1     -13.461 -45.418  27.147  1.00  0.00     0.079 A 
ATOM      3  C   UNL     1     -13.119 -46.077  28.322  1.00  0.00     0.309 A 
ATOM      4  N   UNL     1     -12.433 -45.438  29.300  1.00  0.00    -0.201 N 
ATOM      5  C   UNL     1     -12.057 -44.150  29.144  1.00  0.00     0.309 A 
ATOM      6  C   UNL     1     -12.376 -43.453  27.984  1.00  0.00     0.079 A 
ENDROOT
BRANCH   1   7
ATOM      7  C   UNL     1     -13.415 -43.335  25.752  1.00  0.00     0.059 C 
BRANCH   7   8
ATOM      8  C   UNL     1     -14.641 -43.147  25.233  1.00  0.00     0.168 C 
ATOM      9  C   UNL     1     -19.623 -42.414  24.477  1.00  0.00     0.161 A 
ATOM     10  C   UNL     1     -18.496 -42.527  23.652  1.00  0.00     0.058 A 
ATOM     11  C   UNL     1     -19.466 -42.376  25.879  1.00  0.00     0.161 A 
ATOM     12  C   UNL     1     -17.215 -42.623  24.211  1.00  0.00     0.005 A 
ATOM     13  C   UNL     1     -18.186 -42.461  26.434  1.00  0.00     0.063 A 
ATOM     14  C   UNL     1     -17.073 -42.587  25.598  1.00  0.00     0.036 A 
ATOM     15  C   UNL     1     -15.984 -42.664  23.354  1.00  0.00     0.266 C 
ATOM     16  C   UNL     1     -15.716 -42.682  26.174  1.00  0.00     0.228 C 
ATOM     17  O   UNL     1     -14.937 -43.462  23.919  1.00  0.00    -0.485 OA
ATOM     18  O   UNL     1     -15.504 -42.419  27.352  1.00  0.00    -0.285 OA
BRANCH   9  19
ATOM     19  O   UNL     1     -20.912 -42.321  24.017  1.00  0.00    -0.493 OA
ATOM     20  C   UNL     1     -21.334 -43.234  23.014  1.00  0.00     0.278 C 
ENDBRANCH   9  19
BRANCH  11  21
ATOM     21  O   UNL     1     -20.621 -42.258  26.610  1.00  0.00    -0.493 OA
ATOM     22  C   UNL     1     -21.096 -40.949  26.894  1.00  0.00     0.278 C 
ENDBRANCH  11  21
ENDBRANCH   7   8
ENDBRANCH   1   7
BRANCH   4  23
ATOM     23  C   UNL     1     -12.078 -46.170  30.543  1.00  0.00     0.393 C 
BRANCH  23  24
ATOM     24  C   UNL     1     -10.669 -45.852  30.982  1.00  0.00     0.017 A 
ATOM     25  C   UNL     1     -10.417 -44.734  31.798  1.00  0.00     0.013 A 
ATOM     26  C   UNL     1      -9.592 -46.668  30.596  1.00  0.00     0.013 A 
ATOM     27  C   UNL     1      -9.116 -44.435  32.203  1.00  0.00     0.040 A 
ATOM     28  C   UNL     1      -8.292 -46.362  31.003  1.00  0.00     0.040 A 
ATOM     29  C   UNL     1      -8.065 -45.248  31.800  1.00  0.00     0.123 A 
ATOM     30  F   UNL     1      -6.817 -44.956  32.188  1.00  0.00    -0.207 F 
ENDBRANCH  23  24
ENDBRANCH   4  23
TORSDOF 6
ENDMDL
MODEL 3
REMARK VINA RESULT:   -10.594      4.394      9.936
REMARK INTER + INTRA:         -14.708
REMARK INTER:                 -14.157
REMARK INTRA:                  -0.551
REMARK UNBOUND:                -0.398
REMARK SMILES COc1cc2c(cc1OC)C(=O)/C(=C/c1cc[n+](Cc3ccc(F)cc3)cc1)OC2
REMARK SMILES IDX 15 1 16 2 17 3 18 4 27 5 28 6 14 7 13 8 3 9 4 10 8 11 5 12
REMARK SMILES IDX 7 13 6 14 30 15 11 16 29 17 12 18 2 19 1 20 9 21 10 22 19 23
REMARK SMILES IDX 20 24 21 25 26 26 22 27 25 28 23 29 24 30
REMARK H PARENT
ROOT
ATOM      1  C   UNL     1     -12.903 -44.768  27.203  1.00  0.00    -0.010 A 
ATOM      2  C   UNL     1     -13.795 -45.404  26.342  1.00  0.00     0.079 A 
ATOM      3  C   UNL     1     -14.495 -44.658  25.400  1.00  0.00     0.309 A 
ATOM      4  N   UNL     1     -14.324 -43.317  25.314  1.00  0.00    -0.201 N 
ATOM      5  C   UNL     1     -13.480 -42.677  26.154  1.00  0.00     0.309 A 
ATOM      6  C   UNL     1     -12.763 -43.385  27.112  1.00  0.00     0.079 A 
ENDROOT
BRANCH   1   7
ATOM      7  C   UNL     1     -12.150 -45.493  28.233  1.00  0.00     0.059 C 
BRANCH   7   8
ATOM      8  C   UNL     1     -11.640 -44.961  29.358  1.00  0.00     0.168 C 
ATOM      9  C   UNL     1     -10.880 -42.530  33.767  1.00  0.00     0.161 A 
ATOM     10  C   UNL     1     -10.089 -43.302  32.906  1.00  0.00     0.058 A 
ATOM     11  C   UNL     1     -12.265 -42.402  33.523  1.00  0.00     0.161 A 
ATOM     12  C   UNL     1     -10.660 -43.930  31.791  1.00  0.00     0.005 A 
ATOM     13  C   UNL     1     -12.834 -43.039  32.417  1.00  0.00     0.063 A 
ATOM     14  C   UNL     1     -12.029 -43.793  31.559  1.00  0.00     0.036 A 
ATOM     15  C   UNL     1      -9.856 -44.826  30.896  1.00  0.00     0.266 C 
ATOM     16  C   UNL     1     -12.619 -44.467  30.384  1.00  0.00     0.228 C 
ATOM     17  O   UNL     1     -10.279 -44.776  29.528  1.00  0.00    -0.485 OA
ATOM     18  O   UNL     1     -13.832 -44.586  30.260  1.00  0.00    -0.285 OA
BRANCH   9  19
ATOM     19  O   UNL     1     -10.406 -41.875  34.876  1.00  0.00    -0.493 OA
ATOM     20  C   UNL     1      -9.027 -42.004  35.191  1.00  0.00     0.278 C 
ENDBRANCH   9  19
BRANCH  11  21
ATOM     21  O   UNL     1     -12.965 -41.634  34.419  1.00  0.00    -0.493 OA
ATOM     22  C   UNL     1     -14.384 -41.713  34.396  1.00  0.00     0.278 C 
ENDBRANCH  11  21
ENDBRANCH   7   8
ENDBRANCH   1   7
BRANCH   4  23
ATOM     23  C   UNL     1     -15.088 -42.545  24.300  1.00  0.00     0.393 C 
BRANCH  23  24
ATOM     24  C   UNL     1     -16.558 -42.504  24.636  1.00  0.00     0.017 A 
ATOM     25  C   UNL     1     -16.977 -42.465  25.978  1.00  0.00     0.013 A 
ATOM     26  C   UNL     1     -17.530 -42.493  23.620  1.00  0.00     0.013 A 
ATOM     27  C   UNL     1     -18.337 -42.431  26.292  1.00  0.00     0.040 A 
ATOM     28  C   UNL     1     -18.888 -42.461  23.941  1.00  0.00     0.040 A 
ATOM     29  C   UNL     1     -19.279 -42.432  25.273  1.00  0.00     0.123 A 
ATOM     30  F   UNL     1     -20.582 -42.403  25.578  1.00  0.00    -0.207 F 
ENDBRANCH  23  24
ENDBRANCH   4  23
TORSDOF 6
ENDMDL
MODEL 4
REMARK VINA RESULT:   -10.476      1.544      2.404
REMARK INTER + INTRA:         -14.548
REMARK INTER:                 -14.307
REMARK INTRA:                  -0.241
REMARK UNBOUND:                -0.398
REMARK SMILES COc1cc2c(cc1OC)C(=O)/C(=C/c1cc[n+](Cc3ccc(F)cc3)cc1)OC2
REMARK SMILES IDX 15 1 16 2 17 3 18 4 27 5 28 6 14 7 13 8 3 9 4 10 8 11 5 12
REMARK SMILES IDX 7 13 6 14 30 15 11 16 29 17 12 18 2 19 1 20 9 21 10 22 19 23
REMARK SMILES IDX 20 24 21 25 26 26 22 27 25 28 23 29 24 30
REMARK H PARENT
ROOT
ATOM      1  C   UNL     1     -14.706 -43.998  26.915  1.00  0.00    -0.010 A 
ATOM      2  C   UNL     1     -14.848 -43.903  28.298  1.00  0.00     0.079 A 
ATOM      3  C   UNL     1     -14.072 -44.705  29.127  1.00  0.00     0.309 A 
ATOM      4  N   UNL     1     -13.184 -45.584  28.606  1.00  0.00    -0.201 N 
ATOM      5  C   UNL     1     -13.046 -45.709  27.267  1.00  0.00     0.309 A 
ATOM      6  C   UNL     1     -13.804 -44.928  26.402  1.00  0.00     0.079 A 
ENDROOT
BRANCH   1   7
ATOM      7  C   UNL     1     -15.509 -43.197  25.984  1.00  0.00     0.059 C 
BRANCH   7   8
ATOM      8  C   UNL     1     -16.750 -42.731  26.212  1.00  0.00     0.168 C 
ATOM      9  C   UNL     1     -21.441 -40.788  25.833  1.00  0.00     0.161 A 
ATOM     10  C   UNL     1     -20.652 -41.290  26.876  1.00  0.00     0.058 A 
ATOM     11  C   UNL     1     -20.984 -40.881  24.500  1.00  0.00     0.161 A 
ATOM     12  C   UNL     1     -19.401 -41.862  26.608  1.00  0.00     0.005 A 
ATOM     13  C   UNL     1     -19.742 -41.462  24.233  1.00  0.00     0.063 A 
ATOM     14  C   UNL     1     -18.960 -41.944  25.287  1.00  0.00     0.036 A 
ATOM     15  C   UNL     1     -18.569 -42.478  27.693  1.00  0.00     0.266 C 
ATOM     16  C   UNL     1     -17.643 -42.556  25.017  1.00  0.00     0.228 C 
ATOM     17  O   UNL     1     -17.161 -42.329  27.470  1.00  0.00    -0.485 OA
ATOM     18  O   UNL     1     -17.308 -42.873  23.882  1.00  0.00    -0.285 OA
BRANCH   9  19
ATOM     19  O   UNL     1     -22.672 -40.208  26.004  1.00  0.00    -0.493 OA
ATOM     20  C   UNL     1     -23.058 -39.829  27.317  1.00  0.00     0.278 C 
ENDBRANCH   9  19
BRANCH  11  21
ATOM     21  O   UNL     1     -21.823 -40.372  23.541  1.00  0.00    -0.493 OA
ATOM     22  C   UNL     1     -21.239 -39.674  22.450  1.00  0.00     0.278 C 
ENDBRANCH  11  21
ENDBRANCH   7   8
ENDBRANCH   1   7
BRANCH   4  23
ATOM     23  C   UNL     1     -12.371 -46.431  29.516  1.00  0.00     0.393 C 
BRANCH  23  24
ATOM     24  C   UNL     1     -11.170 -45.680  30.038  1.00  0.00     0.017 A 
ATOM     25  C   UNL     1     -10.456 -44.812  29.193  1.00  0.00     0.013 A 
ATOM     26  C   UNL     1     -10.754 -45.824  31.373  1.00  0.00     0.013 A 
ATOM     27  C   UNL     1      -9.343 -44.118  29.670  1.00  0.00     0.040 A 
ATOM     28  C   UNL     1      -9.638 -45.128  31.844  1.00  0.00     0.040 A 
ATOM     29  C   UNL     1      -8.943 -44.284  30.989  1.00  0.00     0.123 A 
ATOM     30  F   UNL     1      -7.873 -43.620  31.444  1.00  0.00    -0.207 F 
ENDBRANCH  23  24
ENDBRANCH   4  23
TORSDOF 6
ENDMDL
MODEL 5
REMARK VINA RESULT:   -10.229      4.560     10.406
REMARK INTER + INTRA:         -14.214
REMARK INTER:                 -13.658
REMARK INTRA:                  -0.557
REMARK UNBOUND:                -0.398
REMARK SMILES COc1cc2c(cc1OC)C(=O)/C(=C/c1cc[n+](Cc3ccc(F)cc3)cc1)OC2
REMARK SMILES IDX 15 1 16 2 17 3 18 4 27 5 28 6 14 7 13 8 3 9 4 10 8 11 5 12
REMARK SMILES IDX 7 13 6 14 30 15 11 16 29 17 12 18 2 19 1 20 9 21 10 22 19 23
REMARK SMILES IDX 20 24 21 25 26 26 22 27 25 28 23 29 24 30
REMARK H PARENT
ROOT
ATOM      1  C   UNL     1     -15.496 -43.287  26.256  1.00  0.00    -0.010 A 
ATOM      2  C   UNL     1     -16.368 -43.100  25.185  1.00  0.00     0.079 A 
ATOM      3  C   UNL     1     -17.647 -42.608  25.416  1.00  0.00     0.309 A 
ATOM      4  N   UNL     1     -18.059 -42.313  26.672  1.00  0.00    -0.201 N 
ATOM      5  C   UNL     1     -17.237 -42.507  27.728  1.00  0.00     0.309 A 
ATOM      6  C   UNL     1     -15.951 -43.000  27.542  1.00  0.00     0.079 A 
ENDROOT
BRANCH   1   7
ATOM      7  C   UNL     1     -14.141 -43.822  26.084  1.00  0.00     0.059 C 
BRANCH   7   8
ATOM      8  C   UNL     1     -13.116 -43.666  26.940  1.00  0.00     0.168 C 
ATOM      9  C   UNL     1      -9.561 -44.229  30.542  1.00  0.00     0.161 A 
ATOM     10  C   UNL     1      -9.896 -43.227  29.621  1.00  0.00     0.058 A 
ATOM     11  C   UNL     1     -10.224 -45.475  30.497  1.00  0.00     0.161 A 
ATOM     12  C   UNL     1     -10.902 -43.447  28.670  1.00  0.00     0.005 A 
ATOM     13  C   UNL     1     -11.219 -45.695  29.541  1.00  0.00     0.063 A 
ATOM     14  C   UNL     1     -11.552 -44.681  28.639  1.00  0.00     0.036 A 
ATOM     15  C   UNL     1     -11.229 -42.424  27.622  1.00  0.00     0.266 C 
ATOM     16  C   UNL     1     -12.605 -44.901  27.627  1.00  0.00     0.228 C 
ATOM     17  O   UNL     1     -12.616 -42.416  27.263  1.00  0.00    -0.485 OA
ATOM     18  O   UNL     1     -13.039 -46.022  27.392  1.00  0.00    -0.285 OA
BRANCH   9  19
ATOM     19  O   UNL     1      -8.596 -44.100  31.508  1.00  0.00    -0.493 OA
ATOM     20  C   UNL     1      -8.870 -43.262  32.622  1.00  0.00     0.278 C 
ENDBRANCH   9  19
BRANCH  11  21
ATOM     21  O   UNL     1      -9.828 -46.400  31.430  1.00  0.00    -0.493 OA
ATOM     22  C   UNL     1      -8.661 -47.162  31.156  1.00  0.00     0.278 C 
ENDBRANCH  11  21
ENDBRANCH   7   8
ENDBRANCH   1   7
BRANCH   4  23
ATOM     23  C   UNL     1     -19.433 -41.792  26.890  1.00  0.00     0.393 C 
BRANCH  23  24
ATOM     24  C   UNL     1     -20.454 -42.902  26.847  1.00  0.00     0.017 A 
ATOM     25  C   UNL     1     -21.418 -42.939  25.824  1.00  0.00     0.013 A 
ATOM     26  C   UNL     1     -20.453 -43.921  27.817  1.00  0.00     0.013 A 
ATOM     27  C   UNL     1     -22.366 -43.963  25.783  1.00  0.00     0.040 A 
ATOM     28  C   UNL     1     -21.405 -44.941  27.771  1.00  0.00     0.040 A 
ATOM     29  C   UNL     1     -22.354 -44.952  26.758  1.00  0.00     0.123 A 
ATOM     30  F   UNL     1     -23.266 -45.931  26.717  1.00  0.00    -0.207 F 
ENDBRANCH  23  24
ENDBRANCH   4  23
TORSDOF 6
ENDMDL
MODEL 6
REMARK VINA RESULT:   -10.168      2.047      2.630
REMARK INTER + INTRA:         -14.132
REMARK INTER:                 -13.451
REMARK INTRA:                  -0.681
REMARK UNBOUND:                -0.398
REMARK SMILES COc1cc2c(cc1OC)C(=O)/C(=C/c1cc[n+](Cc3ccc(F)cc3)cc1)OC2
REMARK SMILES IDX 15 1 16 2 17 3 18 4 27 5 28 6 14 7 13 8 3 9 4 10 8 11 5 12
REMARK SMILES IDX 7 13 6 14 30 15 11 16 29 17 12 18 2 19 1 20 9 21 10 22 19 23
REMARK SMILES IDX 20 24 21 25 26 26 22 27 25 28 23 29 24 30
REMARK H PARENT
ROOT
ATOM      1  C   UNL     1     -13.805 -43.765  26.327  1.00  0.00    -0.010 A 
ATOM      2  C   UNL     1     -14.117 -44.894  27.081  1.00  0.00     0.079 A 
ATOM      3  C   UNL     1     -13.326 -45.234  28.172  1.00  0.00     0.309 A 
ATOM      4  N   UNL     1     -12.250 -44.483  28.508  1.00  0.00    -0.201 N 
ATOM      5  C   UNL     1     -11.917 -43.396  27.776  1.00  0.00     0.309 A 
ATOM      6  C   UNL     1     -12.679 -43.022  26.676  1.00  0.00     0.079 A 
ENDROOT
BRANCH   1   7
ATOM      7  C   UNL     1     -14.586 -43.362  25.151  1.00  0.00     0.059 C 
BRANCH   7   8
ATOM      8  C   UNL     1     -15.853 -42.911  25.163  1.00  0.00     0.168 C 
ATOM      9  C   UNL     1     -20.453 -41.081  23.973  1.00  0.00     0.161 A 
ATOM     10  C   UNL     1     -19.829 -41.520  25.148  1.00  0.00     0.058 A 
ATOM     11  C   UNL     1     -19.794 -41.223  22.733  1.00  0.00     0.161 A 
ATOM     12  C   UNL     1     -18.545 -42.079  25.103  1.00  0.00     0.005 A 
ATOM     13  C   UNL     1     -18.518 -41.791  22.688  1.00  0.00     0.063 A 
ATOM     14  C   UNL     1     -17.902 -42.210  23.871  1.00  0.00     0.036 A 
ATOM     15  C   UNL     1     -17.883 -42.630  26.332  1.00  0.00     0.266 C 
ATOM     16  C   UNL     1     -16.552 -42.807  23.837  1.00  0.00     0.228 C 
ATOM     17  O   UNL     1     -16.460 -42.462  26.322  1.00  0.00    -0.485 OA
ATOM     18  O   UNL     1     -16.041 -43.167  22.784  1.00  0.00    -0.285 OA
BRANCH   9  19
ATOM     19  O   UNL     1     -21.703 -40.518  23.925  1.00  0.00    -0.493 OA
ATOM     20  C   UNL     1     -22.814 -41.317  24.305  1.00  0.00     0.278 C 
ENDBRANCH   9  19
BRANCH  11  21
ATOM     21  O   UNL     1     -20.480 -40.773  21.633  1.00  0.00    -0.493 OA
ATOM     22  C   UNL     1     -19.761 -40.027  20.661  1.00  0.00     0.278 C 
ENDBRANCH  11  21
ENDBRANCH   7   8
ENDBRANCH   1   7
BRANCH   4  23
ATOM     23  C   UNL     1     -11.420 -44.873  29.676  1.00  0.00     0.393 C 
BRANCH  23  24
ATOM     24  C   UNL     1     -11.852 -44.141  30.924  1.00  0.00     0.017 A 
ATOM     25  C   UNL     1     -10.925 -43.372  31.650  1.00  0.00     0.013 A 
ATOM     26  C   UNL     1     -13.182 -44.205  31.373  1.00  0.00     0.013 A 
ATOM     27  C   UNL     1     -11.319 -42.697  32.806  1.00  0.00     0.040 A 
ATOM     28  C   UNL     1     -13.570 -43.528  32.531  1.00  0.00     0.040 A 
ATOM     29  C   UNL     1     -12.636 -42.783  33.238  1.00  0.00     0.123 A 
ATOM     30  F   UNL     1     -13.011 -42.136  34.348  1.00  0.00    -0.207 F 
ENDBRANCH  23  24
ENDBRANCH   4  23
TORSDOF 6
ENDMDL
MODEL 7
REMARK VINA RESULT:   -10.158      4.578     10.396
REMARK INTER + INTRA:         -14.119
REMARK INTER:                 -13.543
REMARK INTRA:                  -0.576
REMARK UNBOUND:                -0.398
REMARK SMILES COc1cc2c(cc1OC)C(=O)/C(=C/c1cc[n+](Cc3ccc(F)cc3)cc1)OC2
REMARK SMILES IDX 15 1 16 2 17 3 18 4 27 5 28 6 14 7 13 8 3 9 4 10 8 11 5 12
REMARK SMILES IDX 7 13 6 14 30 15 11 16 29 17 12 18 2 19 1 20 9 21 10 22 19 23
REMARK SMILES IDX 20 24 21 25 26 26 22 27 25 28 23 29 24 30
REMARK H PARENT
ROOT
ATOM      1  C   UNL     1     -14.402 -44.244  26.726  1.00  0.00    -0.010 A 
ATOM      2  C   UNL     1     -14.504 -44.327  25.339  1.00  0.00     0.079 A 
ATOM      3  C   UNL     1     -15.500 -43.616  24.678  1.00  0.00     0.309 A 
ATOM      4  N   UNL     1     -16.377 -42.849  25.368  1.00  0.00    -0.201 N 
ATOM      5  C   UNL     1     -16.309 -42.772  26.716  1.00  0.00     0.309 A 
ATOM      6  C   UNL     1     -15.331 -43.469  27.417  1.00  0.00     0.079 A 
ENDROOT
BRANCH   1   7
ATOM      7  C   UNL     1     -13.389 -44.985  27.487  1.00  0.00     0.059 C 
BRANCH   7   8
ATOM      8  C   UNL     1     -12.938 -44.670  28.713  1.00  0.00     0.168 C 
ATOM      9  C   UNL     1     -10.135 -43.360  32.758  1.00  0.00     0.161 A 
ATOM     10  C   UNL     1     -11.488 -43.650  32.535  1.00  0.00     0.058 A 
ATOM     11  C   UNL     1      -9.245 -43.276  31.665  1.00  0.00     0.161 A 
ATOM     12  C   UNL     1     -11.959 -43.879  31.235  1.00  0.00     0.005 A 
ATOM     13  C   UNL     1      -9.720 -43.493  30.368  1.00  0.00     0.063 A 
ATOM     14  C   UNL     1     -11.069 -43.796  30.164  1.00  0.00     0.036 A 
ATOM     15  C   UNL     1     -13.414 -44.113  30.957  1.00  0.00     0.266 C 
ATOM     16  C   UNL     1     -11.580 -44.032  28.798  1.00  0.00     0.228 C 
ATOM     17  O   UNL     1     -13.636 -45.008  29.860  1.00  0.00    -0.485 OA
ATOM     18  O   UNL     1     -10.917 -43.743  27.810  1.00  0.00    -0.285 OA
BRANCH   9  19
ATOM     19  O   UNL     1      -9.587 -43.129  33.994  1.00  0.00    -0.493 OA
ATOM     20  C   UNL     1     -10.019 -41.985  34.716  1.00  0.00     0.278 C 
ENDBRANCH   9  19
BRANCH  11  21
ATOM     21  O   UNL     1      -7.941 -42.981  31.973  1.00  0.00    -0.493 OA
ATOM     22  C   UNL     1      -7.036 -44.065  32.136  1.00  0.00     0.278 C 
ENDBRANCH  11  21
ENDBRANCH   7   8
ENDBRANCH   1   7
BRANCH   4  23
ATOM     23  C   UNL     1     -17.432 -42.103  24.635  1.00  0.00     0.393 C 
BRANCH  23  24
ATOM     24  C   UNL     1     -18.802 -42.404  25.191  1.00  0.00     0.017 A 
ATOM     25  C   UNL     1     -19.362 -41.577  26.181  1.00  0.00     0.013 A 
ATOM     26  C   UNL     1     -19.545 -43.503  24.724  1.00  0.00     0.013 A 
ATOM     27  C   UNL     1     -20.627 -41.854  26.701  1.00  0.00     0.040 A 
ATOM     28  C   UNL     1     -20.810 -43.776  25.250  1.00  0.00     0.040 A 
ATOM     29  C   UNL     1     -21.338 -42.951  26.234  1.00  0.00     0.123 A 
ATOM     30  F   UNL     1     -22.550 -43.216  26.737  1.00  0.00    -0.207 F 
ENDBRANCH  23  24
ENDBRANCH   4  23
TORSDOF 6
ENDMDL
MODEL 8
REMARK VINA RESULT:   -10.130      4.628     10.764
REMARK INTER + INTRA:         -14.080
REMARK INTER:                 -13.889
REMARK INTRA:                  -0.191
REMARK UNBOUND:                -0.398
REMARK SMILES COc1cc2c(cc1OC)C(=O)/C(=C/c1cc[n+](Cc3ccc(F)cc3)cc1)OC2
REMARK SMILES IDX 15 1 16 2 17 3 18 4 27 5 28 6 14 7 13 8 3 9 4 10 8 11 5 12
REMARK SMILES IDX 7 13 6 14 30 15 11 16 29 17 12 18 2 19 1 20 9 21 10 22 19 23
REMARK SMILES IDX 20 24 21 25 26 26 22 27 25 28 23 29 24 30
REMARK H PARENT
ROOT
ATOM      1  C   UNL     1     -14.513 -44.104  26.905  1.00  0.00    -0.010 A 
ATOM      2  C   UNL     1     -14.199 -44.678  25.675  1.00  0.00     0.079 A 
ATOM      3  C   UNL     1     -14.651 -44.083  24.502  1.00  0.00     0.309 A 
ATOM      4  N   UNL     1     -15.400 -42.955  24.541  1.00  0.00    -0.201 N 
ATOM      5  C   UNL     1     -15.735 -42.395  25.725  1.00  0.00     0.309 A 
ATOM      6  C   UNL     1     -15.306 -42.958  26.921  1.00  0.00     0.079 A 
ENDROOT
BRANCH   1   7
ATOM      7  C   UNL     1     -14.087 -44.691  28.179  1.00  0.00     0.059 C 
BRANCH   7   8
ATOM      8  C   UNL     1     -12.882 -44.536  28.755  1.00  0.00     0.168 C 
ATOM      9  C   UNL     1      -9.006 -43.591  31.921  1.00  0.00     0.161 A 
ATOM     10  C   UNL     1      -9.127 -44.063  30.607  1.00  0.00     0.058 A 
ATOM     11  C   UNL     1     -10.164 -43.386  32.703  1.00  0.00     0.161 A 
ATOM     12  C   UNL     1     -10.392 -44.313  30.057  1.00  0.00     0.005 A 
ATOM     13  C   UNL     1     -11.423 -43.647  32.156  1.00  0.00     0.063 A 
ATOM     14  C   UNL     1     -11.528 -44.104  30.839  1.00  0.00     0.036 A 
ATOM     15  C   UNL     1     -10.550 -44.894  28.683  1.00  0.00     0.266 C 
ATOM     16  C   UNL     1     -12.854 -44.378  30.249  1.00  0.00     0.228 C 
ATOM     17  O   UNL     1     -11.722 -44.420  28.008  1.00  0.00    -0.485 OA
ATOM     18  O   UNL     1     -13.859 -44.446  30.945  1.00  0.00    -0.285 OA
BRANCH   9  19
ATOM     19  O   UNL     1      -7.812 -43.314  32.536  1.00  0.00    -0.493 OA
ATOM     20  C   UNL     1      -6.788 -44.297  32.487  1.00  0.00     0.278 C 
ENDBRANCH   9  19
BRANCH  11  21
ATOM     21  O   UNL     1      -9.953 -42.929  33.979  1.00  0.00    -0.493 OA
ATOM     22  C   UNL     1     -10.549 -41.693  34.348  1.00  0.00     0.278 C 
ENDBRANCH  11  21
ENDBRANCH   7   8
ENDBRANCH   1   7
BRANCH   4  23
ATOM     23  C   UNL     1     -15.872 -42.345  23.272  1.00  0.00     0.393 C 
BRANCH  23  24
ATOM     24  C   UNL     1     -17.350 -42.048  23.323  1.00  0.00     0.017 A 
ATOM     25  C   UNL     1     -18.185 -42.760  24.202  1.00  0.00     0.013 A 
ATOM     26  C   UNL     1     -17.914 -41.052  22.506  1.00  0.00     0.013 A 
ATOM     27  C   UNL     1     -19.554 -42.491  24.250  1.00  0.00     0.040 A 
ATOM     28  C   UNL     1     -19.285 -40.789  22.557  1.00  0.00     0.040 A 
ATOM     29  C   UNL     1     -20.092 -41.511  23.426  1.00  0.00     0.123 A 
ATOM     30  F   UNL     1     -21.406 -41.257  23.472  1.00  0.00    -0.207 F 
ENDBRANCH  23  24
ENDBRANCH   4  23
TORSDOF 6
ENDMDL
MODEL 9
REMARK VINA RESULT:   -10.116      2.638      4.472
REMARK INTER + INTRA:         -14.062
REMARK INTER:                 -13.690
REMARK INTRA:                  -0.373
REMARK UNBOUND:                -0.398
REMARK SMILES COc1cc2c(cc1OC)C(=O)/C(=C/c1cc[n+](Cc3ccc(F)cc3)cc1)OC2
REMARK SMILES IDX 15 1 16 2 17 3 18 4 27 5 28 6 14 7 13 8 3 9 4 10 8 11 5 12
REMARK SMILES IDX 7 13 6 14 30 15 11 16 29 17 12 18 2 19 1 20 9 21 10 22 19 23
REMARK SMILES IDX 20 24 21 25 26 26 22 27 25 28 23 29 24 30
REMARK H PARENT
ROOT
ATOM      1  C   UNL     1     -15.530 -42.835  24.542  1.00  0.00    -0.010 A 
ATOM      2  C   UNL     1     -15.724 -42.431  25.862  1.00  0.00     0.079 A 
ATOM      3  C   UNL     1     -15.148 -43.159  26.897  1.00  0.00     0.309 A 
ATOM      4  N   UNL     1     -14.404 -44.261  26.638  1.00  0.00    -0.201 N 
ATOM      5  C   UNL     1     -14.222 -44.683  25.366  1.00  0.00     0.309 A 
ATOM      6  C   UNL     1     -14.783 -43.986  24.302  1.00  0.00     0.079 A 
ENDROOT
BRANCH   1   7
ATOM      7  C   UNL     1     -16.127 -42.124  23.406  1.00  0.00     0.059 C 
BRANCH   7   8
ATOM      8  C   UNL     1     -17.425 -41.801  23.272  1.00  0.00     0.168 C 
ATOM      9  C   UNL     1     -21.884 -39.693  22.003  1.00  0.00     0.161 A 
ATOM     10  C   UNL     1     -21.483 -40.773  22.802  1.00  0.00     0.058 A 
ATOM     11  C   UNL     1     -20.928 -39.003  21.226  1.00  0.00     0.161 A 
ATOM     12  C   UNL     1     -20.137 -41.157  22.852  1.00  0.00     0.005 A 
ATOM     13  C   UNL     1     -19.588 -39.395  21.268  1.00  0.00     0.063 A 
ATOM     14  C   UNL     1     -19.202 -40.464  22.082  1.00  0.00     0.036 A 
ATOM     15  C   UNL     1     -19.690 -42.356  23.635  1.00  0.00     0.266 C 
ATOM     16  C   UNL     1     -17.787 -40.884  22.138  1.00  0.00     0.228 C 
ATOM     17  O   UNL     1     -18.379 -42.203  24.191  1.00  0.00    -0.485 OA
ATOM     18  O   UNL     1     -16.970 -40.483  21.319  1.00  0.00    -0.285 OA
BRANCH   9  19
ATOM     19  O   UNL     1     -23.176 -39.245  21.899  1.00  0.00    -0.493 OA
ATOM     20  C   UNL     1     -24.169 -40.160  21.459  1.00  0.00     0.278 C 
ENDBRANCH   9  19
BRANCH  11  21
ATOM     21  O   UNL     1     -21.408 -37.964  20.469  1.00  0.00    -0.493 OA
ATOM     22  C   UNL     1     -21.495 -38.152  19.063  1.00  0.00     0.278 C 
ENDBRANCH  11  21
ENDBRANCH   7   8
ENDBRANCH   1   7
BRANCH   4  23
ATOM     23  C   UNL     1     -13.804 -45.022  27.764  1.00  0.00     0.393 C 
BRANCH  23  24
ATOM     24  C   UNL     1     -12.385 -44.581  28.028  1.00  0.00     0.017 A 
ATOM     25  C   UNL     1     -11.983 -43.269  27.721  1.00  0.00     0.013 A 
ATOM     26  C   UNL     1     -11.449 -45.465  28.592  1.00  0.00     0.013 A 
ATOM     27  C   UNL     1     -10.670 -42.859  27.961  1.00  0.00     0.040 A 
ATOM     28  C   UNL     1     -10.137 -45.049  28.828  1.00  0.00     0.040 A 
ATOM     29  C   UNL     1      -9.759 -43.752  28.508  1.00  0.00     0.123 A 
ATOM     30  F   UNL     1      -8.500 -43.356  28.734  1.00  0.00    -0.207 F 
ENDBRANCH  23  24
ENDBRANCH   4  23
TORSDOF 6
ENDMDL
