MODEL 1
REMARK VINA RESULT:    -9.957      0.000      0.000
REMARK INTER + INTRA:         -16.565
REMARK INTER:                 -15.196
REMARK INTRA:                  -1.369
REMARK UNBOUND:                -1.369
REMARK SMILES COc1cccc(OC)c1[C@@H](C)NS(=O)(=O)NC(=O)OCc1ccccc1
REMARK SMILES IDX 13 1 11 3 12 4 10 5 3 6 4 7 5 8 7 9 6 10 2 11 1 12 8 13 9 14
REMARK SMILES IDX 14 15 15 16 16 17 17 18 18 19 19 21 20 22 21 23 22 24 23 25
REMARK SMILES IDX 27 26 24 27 26 28 25 29
REMARK H PARENT 13 2 17 20
ROOT
ATOM      1  N   UNL     1     -11.932 -43.706  29.906  1.00  0.00    -0.190 NA
ATOM      2  H   UNL     1     -12.846 -44.102  29.681  1.00  0.00     0.143 HD
ENDROOT
BRANCH   1   3
ATOM      3  C   UNL     1     -11.221 -44.522  30.919  1.00  0.00     0.106 C 
ATOM      4  C   UNL     1     -12.106 -45.662  31.432  1.00  0.00     0.031 C 
BRANCH   3   5
ATOM      5  C   UNL     1     -10.759 -43.648  32.090  1.00  0.00     0.054 A 
ATOM      6  C   UNL     1     -11.665 -42.797  32.773  1.00  0.00     0.127 A 
ATOM      7  C   UNL     1     -11.216 -42.016  33.841  1.00  0.00     0.047 A 
ATOM      8  C   UNL     1      -9.884 -42.071  34.246  1.00  0.00     0.008 A 
ATOM      9  C   UNL     1      -9.411 -43.705  32.519  1.00  0.00     0.127 A 
ATOM     10  C   UNL     1      -8.987 -42.912  33.590  1.00  0.00     0.047 A 
BRANCH   6  11
ATOM     11  O   UNL     1     -12.964 -42.803  32.327  1.00  0.00    -0.496 OA
ATOM     12  C   UNL     1     -14.001 -42.747  33.300  1.00  0.00     0.278 C 
ENDBRANCH   6  11
BRANCH   9  13
ATOM     13  O   UNL     1      -8.590 -44.565  31.836  1.00  0.00    -0.496 OA
ATOM     14  C   UNL     1      -7.550 -44.006  31.044  1.00  0.00     0.278 C 
ENDBRANCH   9  13
ENDBRANCH   3   5
ENDBRANCH   1   3
BRANCH   1  15
ATOM     15  S   UNL     1     -11.118 -43.192  28.551  1.00  0.00     0.304 S 
ATOM     16  O   UNL     1     -10.841 -41.788  28.707  1.00  0.00    -0.189 OA
ATOM     17  O   UNL     1     -10.083 -44.169  28.319  1.00  0.00    -0.189 OA
BRANCH  15  18
ATOM     18  N   UNL     1     -12.312 -43.444  27.453  1.00  0.00    -0.205 N 
ATOM     19  C   UNL     1     -13.022 -44.636  27.389  1.00  0.00     0.422 C 
ATOM     20  H   UNL     1     -12.872 -42.619  27.282  1.00  0.00     0.188 HD
ATOM     21  O   UNL     1     -12.671 -45.685  27.902  1.00  0.00    -0.223 OA
BRANCH  19  22
ATOM     22  O   UNL     1     -14.163 -44.463  26.676  1.00  0.00    -0.444 OA
BRANCH  22  23
ATOM     23  C   UNL     1     -14.394 -43.136  26.193  1.00  0.00     0.270 C 
BRANCH  23  24
ATOM     24  C   UNL     1     -15.860 -42.812  26.314  1.00  0.00    -0.011 A 
ATOM     25  C   UNL     1     -16.662 -42.714  25.169  1.00  0.00     0.007 A 
ATOM     26  C   UNL     1     -16.451 -42.647  27.575  1.00  0.00     0.007 A 
ATOM     27  C   UNL     1     -18.025 -42.439  25.281  1.00  0.00     0.000 A 
ATOM     28  C   UNL     1     -17.815 -42.370  27.685  1.00  0.00     0.000 A 
ATOM     29  C   UNL     1     -18.601 -42.264  26.539  1.00  0.00     0.000 A 
ENDBRANCH  23  24
ENDBRANCH  22  23
ENDBRANCH  19  22
ENDBRANCH  15  18
ENDBRANCH   1  15
TORSDOF 9
ENDMDL
MODEL 2
REMARK VINA RESULT:    -9.911      0.221      2.487
REMARK INTER + INTRA:         -16.494
REMARK INTER:                 -15.248
REMARK INTRA:                  -1.246
REMARK UNBOUND:                -1.369
REMARK SMILES COc1cccc(OC)c1[C@@H](C)NS(=O)(=O)NC(=O)OCc1ccccc1
REMARK SMILES IDX 13 1 11 3 12 4 10 5 3 6 4 7 5 8 7 9 6 10 2 11 1 12 8 13 9 14
REMARK SMILES IDX 14 15 15 16 16 17 17 18 18 19 19 21 20 22 21 23 22 24 23 25
REMARK SMILES IDX 27 26 24 27 26 28 25 29
REMARK H PARENT 13 2 17 20
ROOT
ATOM      1  N   UNL     1     -11.965 -43.597  30.034  1.00  0.00    -0.190 NA
ATOM      2  H   UNL     1     -12.939 -43.855  29.866  1.00  0.00     0.143 HD
ENDROOT
BRANCH   1   3
ATOM      3  C   UNL     1     -11.327 -44.502  31.020  1.00  0.00     0.106 C 
ATOM      4  C   UNL     1     -12.339 -45.497  31.594  1.00  0.00     0.031 C 
BRANCH   3   5
ATOM      5  C   UNL     1     -10.680 -43.698  32.152  1.00  0.00     0.054 A 
ATOM      6  C   UNL     1      -9.301 -43.832  32.454  1.00  0.00     0.127 A 
ATOM      7  C   UNL     1      -8.738 -43.080  33.488  1.00  0.00     0.047 A 
ATOM      8  C   UNL     1      -9.520 -42.193  34.223  1.00  0.00     0.008 A 
ATOM      9  C   UNL     1     -11.461 -42.782  32.898  1.00  0.00     0.127 A 
ATOM     10  C   UNL     1     -10.874 -42.042  33.929  1.00  0.00     0.047 A 
BRANCH   6  11
ATOM     11  O   UNL     1      -8.590 -44.717  31.681  1.00  0.00    -0.496 OA
ATOM     12  C   UNL     1      -7.415 -44.240  31.034  1.00  0.00     0.278 C 
ENDBRANCH   6  11
BRANCH   9  13
ATOM     13  O   UNL     1     -12.782 -42.677  32.542  1.00  0.00    -0.496 OA
ATOM     14  C   UNL     1     -13.738 -42.491  33.578  1.00  0.00     0.278 C 
ENDBRANCH   9  13
ENDBRANCH   3   5
ENDBRANCH   1   3
BRANCH   1  15
ATOM     15  S   UNL     1     -11.162 -43.220  28.629  1.00  0.00     0.304 S 
ATOM     16  O   UNL     1     -10.821 -41.822  28.676  1.00  0.00    -0.189 OA
ATOM     17  O   UNL     1     -10.176 -44.256  28.449  1.00  0.00    -0.189 OA
BRANCH  15  18
ATOM     18  N   UNL     1     -12.391 -43.496  27.577  1.00  0.00    -0.205 N 
ATOM     19  C   UNL     1     -13.084 -44.699  27.545  1.00  0.00     0.422 C 
ATOM     20  H   UNL     1     -12.970 -42.681  27.423  1.00  0.00     0.188 HD
ATOM     21  O   UNL     1     -12.698 -45.740  28.050  1.00  0.00    -0.223 OA
BRANCH  19  22
ATOM     22  O   UNL     1     -14.253 -44.548  26.874  1.00  0.00    -0.444 OA
BRANCH  22  23
ATOM     23  C   UNL     1     -14.427 -43.291  26.213  1.00  0.00     0.270 C 
BRANCH  23  24
ATOM     24  C   UNL     1     -15.875 -42.884  26.293  1.00  0.00    -0.011 A 
ATOM     25  C   UNL     1     -16.640 -42.750  25.127  1.00  0.00     0.007 A 
ATOM     26  C   UNL     1     -16.489 -42.678  27.537  1.00  0.00     0.007 A 
ATOM     27  C   UNL     1     -17.988 -42.397  25.201  1.00  0.00     0.000 A 
ATOM     28  C   UNL     1     -17.837 -42.325  27.609  1.00  0.00     0.000 A 
ATOM     29  C   UNL     1     -18.586 -42.182  26.442  1.00  0.00     0.000 A 
ENDBRANCH  23  24
ENDBRANCH  22  23
ENDBRANCH  19  22
ENDBRANCH  15  18
ENDBRANCH   1  15
TORSDOF 9
ENDMDL
MODEL 3
REMARK VINA RESULT:    -9.308      1.751      3.345
REMARK INTER + INTRA:         -15.574
REMARK INTER:                 -14.801
REMARK INTRA:                  -0.773
REMARK UNBOUND:                -1.369
REMARK SMILES COc1cccc(OC)c1[C@@H](C)NS(=O)(=O)NC(=O)OCc1ccccc1
REMARK SMILES IDX 13 1 11 3 12 4 10 5 3 6 4 7 5 8 7 9 6 10 2 11 1 12 8 13 9 14
REMARK SMILES IDX 14 15 15 16 16 17 17 18 18 19 19 21 20 22 21 23 22 24 23 25
REMARK SMILES IDX 27 26 24 27 26 28 25 29
REMARK H PARENT 13 2 17 20
ROOT
ATOM      1  N   UNL     1     -11.823 -44.977  30.949  1.00  0.00    -0.190 NA
ATOM      2  H   UNL     1     -11.309 -45.476  30.220  1.00  0.00     0.143 HD
ENDROOT
BRANCH   1   3
ATOM      3  C   UNL     1     -11.538 -43.523  30.915  1.00  0.00     0.106 C 
ATOM      4  C   UNL     1     -10.709 -43.149  29.683  1.00  0.00     0.031 C 
BRANCH   3   5
ATOM      5  C   UNL     1     -10.811 -43.085  32.190  1.00  0.00     0.054 A 
ATOM      6  C   UNL     1      -9.445 -43.402  32.402  1.00  0.00     0.127 A 
ATOM      7  C   UNL     1      -8.806 -42.984  33.572  1.00  0.00     0.047 A 
ATOM      8  C   UNL     1      -9.499 -42.250  34.532  1.00  0.00     0.008 A 
ATOM      9  C   UNL     1     -11.500 -42.327  33.168  1.00  0.00     0.127 A 
ATOM     10  C   UNL     1     -10.838 -41.922  34.331  1.00  0.00     0.047 A 
BRANCH   6  11
ATOM     11  O   UNL     1      -8.822 -44.118  31.408  1.00  0.00    -0.496 OA
ATOM     12  C   UNL     1      -8.149 -45.317  31.774  1.00  0.00     0.278 C 
ENDBRANCH   6  11
BRANCH   9  13
ATOM     13  O   UNL     1     -12.811 -42.030  32.895  1.00  0.00    -0.496 OA
ATOM     14  C   UNL     1     -13.741 -42.066  33.970  1.00  0.00     0.278 C 
ENDBRANCH   9  13
ENDBRANCH   3   5
ENDBRANCH   1   3
BRANCH   1  15
ATOM     15  S   UNL     1     -13.395 -45.501  31.081  1.00  0.00     0.304 S 
ATOM     16  O   UNL     1     -13.426 -46.899  30.739  1.00  0.00    -0.189 OA
ATOM     17  O   UNL     1     -13.873 -44.998  32.345  1.00  0.00    -0.189 OA
BRANCH  15  18
ATOM     18  N   UNL     1     -14.048 -44.583  29.887  1.00  0.00    -0.205 N 
ATOM     19  C   UNL     1     -13.802 -44.829  28.543  1.00  0.00     0.422 C 
ATOM     20  H   UNL     1     -14.995 -44.289  30.088  1.00  0.00     0.188 HD
ATOM     21  O   UNL     1     -12.893 -45.521  28.115  1.00  0.00    -0.223 OA
BRANCH  19  22
ATOM     22  O   UNL     1     -14.721 -44.192  27.774  1.00  0.00    -0.444 OA
BRANCH  22  23
ATOM     23  C   UNL     1     -14.232 -43.665  26.538  1.00  0.00     0.270 C 
BRANCH  23  24
ATOM     24  C   UNL     1     -15.398 -43.260  25.675  1.00  0.00    -0.011 A 
ATOM     25  C   UNL     1     -15.307 -43.333  24.279  1.00  0.00     0.007 A 
ATOM     26  C   UNL     1     -16.605 -42.845  26.257  1.00  0.00     0.007 A 
ATOM     27  C   UNL     1     -16.395 -42.982  23.479  1.00  0.00     0.000 A 
ATOM     28  C   UNL     1     -17.692 -42.494  25.456  1.00  0.00     0.000 A 
ATOM     29  C   UNL     1     -17.586 -42.560  24.067  1.00  0.00     0.000 A 
ENDBRANCH  23  24
ENDBRANCH  22  23
ENDBRANCH  19  22
ENDBRANCH  15  18
ENDBRANCH   1  15
TORSDOF 9
ENDMDL
MODEL 4
REMARK VINA RESULT:    -9.116      1.405      1.962
REMARK INTER + INTRA:         -15.281
REMARK INTER:                 -14.640
REMARK INTRA:                  -0.641
REMARK UNBOUND:                -1.369
REMARK SMILES COc1cccc(OC)c1[C@@H](C)NS(=O)(=O)NC(=O)OCc1ccccc1
REMARK SMILES IDX 13 1 11 3 12 4 10 5 3 6 4 7 5 8 7 9 6 10 2 11 1 12 8 13 9 14
REMARK SMILES IDX 14 15 15 16 16 17 17 18 18 19 19 21 20 22 21 23 22 24 23 25
REMARK SMILES IDX 27 26 24 27 26 28 25 29
REMARK H PARENT 13 2 17 20
ROOT
ATOM      1  N   UNL     1     -11.602 -44.469  29.834  1.00  0.00    -0.190 NA
ATOM      2  H   UNL     1     -12.132 -43.861  30.461  1.00  0.00     0.143 HD
ENDROOT
BRANCH   1   3
ATOM      3  C   UNL     1     -10.418 -45.050  30.511  1.00  0.00     0.106 C 
ATOM      4  C   UNL     1     -10.717 -46.456  31.040  1.00  0.00     0.031 C 
BRANCH   3   5
ATOM      5  C   UNL     1      -9.954 -44.145  31.658  1.00  0.00     0.054 A 
ATOM      6  C   UNL     1     -10.887 -43.531  32.533  1.00  0.00     0.127 A 
ATOM      7  C   UNL     1     -10.433 -42.716  33.573  1.00  0.00     0.047 A 
ATOM      8  C   UNL     1      -9.069 -42.507  33.763  1.00  0.00     0.008 A 
ATOM      9  C   UNL     1      -8.570 -43.935  31.870  1.00  0.00     0.127 A 
ATOM     10  C   UNL     1      -8.142 -43.114  32.918  1.00  0.00     0.047 A 
BRANCH   6  11
ATOM     11  O   UNL     1     -12.214 -43.792  32.292  1.00  0.00    -0.496 OA
ATOM     12  C   UNL     1     -13.171 -42.842  32.748  1.00  0.00     0.278 C 
ENDBRANCH   6  11
BRANCH   9  13
ATOM     13  O   UNL     1      -7.717 -44.575  31.008  1.00  0.00    -0.496 OA
ATOM     14  C   UNL     1      -7.043 -45.736  31.477  1.00  0.00     0.278 C 
ENDBRANCH   9  13
ENDBRANCH   3   5
ENDBRANCH   1   3
BRANCH   1  15
ATOM     15  S   UNL     1     -12.590 -45.451  28.927  1.00  0.00     0.304 S 
ATOM     16  O   UNL     1     -11.770 -46.130  27.958  1.00  0.00    -0.189 OA
ATOM     17  O   UNL     1     -13.421 -46.154  29.872  1.00  0.00    -0.189 OA
BRANCH  15  18
ATOM     18  N   UNL     1     -13.498 -44.280  28.221  1.00  0.00    -0.205 N 
ATOM     19  C   UNL     1     -12.946 -43.312  27.391  1.00  0.00     0.422 C 
ATOM     20  H   UNL     1     -14.407 -44.610  27.924  1.00  0.00     0.188 HD
ATOM     21  O   UNL     1     -11.759 -43.043  27.328  1.00  0.00    -0.223 OA
BRANCH  19  22
ATOM     22  O   UNL     1     -13.919 -42.713  26.661  1.00  0.00    -0.444 OA
BRANCH  22  23
ATOM     23  C   UNL     1     -14.153 -43.275  25.365  1.00  0.00     0.270 C 
BRANCH  23  24
ATOM     24  C   UNL     1     -15.570 -42.984  24.947  1.00  0.00    -0.011 A 
ATOM     25  C   UNL     1     -15.932 -43.021  23.594  1.00  0.00     0.007 A 
ATOM     26  C   UNL     1     -16.556 -42.716  25.908  1.00  0.00     0.007 A 
ATOM     27  C   UNL     1     -17.250 -42.777  23.207  1.00  0.00     0.000 A 
ATOM     28  C   UNL     1     -17.874 -42.472  25.518  1.00  0.00     0.000 A 
ATOM     29  C   UNL     1     -18.220 -42.500  24.168  1.00  0.00     0.000 A 
ENDBRANCH  23  24
ENDBRANCH  22  23
ENDBRANCH  19  22
ENDBRANCH  15  18
ENDBRANCH   1  15
TORSDOF 9
ENDMDL
MODEL 5
REMARK VINA RESULT:    -9.065      2.124      3.536
REMARK INTER + INTRA:         -15.203
REMARK INTER:                 -14.596
REMARK INTRA:                  -0.607
REMARK UNBOUND:                -1.369
REMARK SMILES COc1cccc(OC)c1[C@@H](C)NS(=O)(=O)NC(=O)OCc1ccccc1
REMARK SMILES IDX 13 1 11 3 12 4 10 5 3 6 4 7 5 8 7 9 6 10 2 11 1 12 8 13 9 14
REMARK SMILES IDX 14 15 15 16 16 17 17 18 18 19 19 21 20 22 21 23 22 24 23 25
REMARK SMILES IDX 27 26 24 27 26 28 25 29
REMARK H PARENT 13 2 17 20
ROOT
ATOM      1  N   UNL     1     -11.877 -45.110  31.380  1.00  0.00    -0.190 NA
ATOM      2  H   UNL     1     -11.719 -45.528  30.462  1.00  0.00     0.143 HD
ENDROOT
BRANCH   1   3
ATOM      3  C   UNL     1     -10.987 -43.946  31.607  1.00  0.00     0.106 C 
ATOM      4  C   UNL     1     -11.094 -42.937  30.460  1.00  0.00     0.031 C 
BRANCH   3   5
ATOM      5  C   UNL     1      -9.534 -44.401  31.774  1.00  0.00     0.054 A 
ATOM      6  C   UNL     1      -9.066 -45.599  31.175  1.00  0.00     0.127 A 
ATOM      7  C   UNL     1      -7.733 -45.985  31.339  1.00  0.00     0.047 A 
ATOM      8  C   UNL     1      -6.856 -45.198  32.082  1.00  0.00     0.008 A 
ATOM      9  C   UNL     1      -8.629 -43.603  32.515  1.00  0.00     0.127 A 
ATOM     10  C   UNL     1      -7.300 -44.012  32.665  1.00  0.00     0.047 A 
BRANCH   6  11
ATOM     11  O   UNL     1      -9.983 -46.318  30.448  1.00  0.00    -0.496 OA
ATOM     12  C   UNL     1      -9.709 -46.543  29.070  1.00  0.00     0.278 C 
ENDBRANCH   6  11
BRANCH   9  13
ATOM     13  O   UNL     1      -9.133 -42.444  33.047  1.00  0.00    -0.496 OA
ATOM     14  C   UNL     1      -9.159 -42.317  34.463  1.00  0.00     0.278 C 
ENDBRANCH   9  13
ENDBRANCH   3   5
ENDBRANCH   1   3
BRANCH   1  15
ATOM     15  S   UNL     1     -13.493 -44.989  31.748  1.00  0.00     0.304 S 
ATOM     16  O   UNL     1     -14.008 -46.322  31.924  1.00  0.00    -0.189 OA
ATOM     17  O   UNL     1     -13.590 -43.977  32.770  1.00  0.00    -0.189 OA
BRANCH  15  18
ATOM     18  N   UNL     1     -14.006 -44.336  30.333  1.00  0.00    -0.205 N 
ATOM     19  C   UNL     1     -13.806 -44.963  29.110  1.00  0.00     0.422 C 
ATOM     20  H   UNL     1     -14.898 -43.865  30.415  1.00  0.00     0.188 HD
ATOM     21  O   UNL     1     -13.012 -45.868  28.912  1.00  0.00    -0.223 OA
BRANCH  19  22
ATOM     22  O   UNL     1     -14.622 -44.426  28.169  1.00  0.00    -0.444 OA
BRANCH  22  23
ATOM     23  C   UNL     1     -13.988 -44.055  26.942  1.00  0.00     0.270 C 
BRANCH  23  24
ATOM     24  C   UNL     1     -15.030 -43.553  25.977  1.00  0.00    -0.011 A 
ATOM     25  C   UNL     1     -14.862 -43.728  24.597  1.00  0.00     0.007 A 
ATOM     26  C   UNL     1     -16.201 -42.942  26.448  1.00  0.00     0.007 A 
ATOM     27  C   UNL     1     -15.838 -43.286  23.703  1.00  0.00     0.000 A 
ATOM     28  C   UNL     1     -17.176 -42.500  25.552  1.00  0.00     0.000 A 
ATOM     29  C   UNL     1     -16.994 -42.670  24.180  1.00  0.00     0.000 A 
ENDBRANCH  23  24
ENDBRANCH  22  23
ENDBRANCH  19  22
ENDBRANCH  15  18
ENDBRANCH   1  15
TORSDOF 9
ENDMDL
MODEL 6
REMARK VINA RESULT:    -9.056      1.269      2.664
REMARK INTER + INTRA:         -15.190
REMARK INTER:                 -13.989
REMARK INTRA:                  -1.201
REMARK UNBOUND:                -1.369
REMARK SMILES COc1cccc(OC)c1[C@@H](C)NS(=O)(=O)NC(=O)OCc1ccccc1
REMARK SMILES IDX 13 1 11 3 12 4 10 5 3 6 4 7 5 8 7 9 6 10 2 11 1 12 8 13 9 14
REMARK SMILES IDX 14 15 15 16 16 17 17 18 18 19 19 21 20 22 21 23 22 24 23 25
REMARK SMILES IDX 27 26 24 27 26 28 25 29
REMARK H PARENT 13 2 17 20
ROOT
ATOM      1  N   UNL     1     -11.082 -44.150  29.851  1.00  0.00    -0.190 NA
ATOM      2  H   UNL     1     -10.780 -45.081  29.557  1.00  0.00     0.143 HD
ENDROOT
BRANCH   1   3
ATOM      3  C   UNL     1     -10.691 -43.871  31.254  1.00  0.00     0.106 C 
ATOM      4  C   UNL     1      -9.954 -45.064  31.871  1.00  0.00     0.031 C 
BRANCH   3   5
ATOM      5  C   UNL     1     -11.921 -43.520  32.098  1.00  0.00     0.054 A 
ATOM      6  C   UNL     1     -11.875 -42.487  33.069  1.00  0.00     0.127 A 
ATOM      7  C   UNL     1     -13.015 -42.185  33.818  1.00  0.00     0.047 A 
ATOM      8  C   UNL     1     -14.200 -42.887  33.615  1.00  0.00     0.008 A 
ATOM      9  C   UNL     1     -13.136 -44.217  31.891  1.00  0.00     0.127 A 
ATOM     10  C   UNL     1     -14.262 -43.896  32.656  1.00  0.00     0.047 A 
BRANCH   6  11
ATOM     11  O   UNL     1     -10.676 -41.830  33.206  1.00  0.00    -0.496 OA
ATOM     12  C   UNL     1      -9.961 -42.001  34.424  1.00  0.00     0.278 C 
ENDBRANCH   6  11
BRANCH   9  13
ATOM     13  O   UNL     1     -13.125 -45.186  30.921  1.00  0.00    -0.496 OA
ATOM     14  C   UNL     1     -13.592 -46.483  31.270  1.00  0.00     0.278 C 
ENDBRANCH   9  13
ENDBRANCH   3   5
ENDBRANCH   1   3
BRANCH   1  15
ATOM     15  S   UNL     1     -10.810 -43.001  28.682  1.00  0.00     0.304 S 
ATOM     16  O   UNL     1     -10.714 -41.720  29.333  1.00  0.00    -0.189 OA
ATOM     17  O   UNL     1      -9.760 -43.530  27.847  1.00  0.00    -0.189 OA
BRANCH  15  18
ATOM     18  N   UNL     1     -12.230 -43.151  27.872  1.00  0.00    -0.205 N 
ATOM     19  C   UNL     1     -12.813 -44.386  27.620  1.00  0.00     0.422 C 
ATOM     20  H   UNL     1     -12.891 -42.419  28.096  1.00  0.00     0.188 HD
ATOM     21  O   UNL     1     -12.236 -45.458  27.694  1.00  0.00    -0.223 OA
BRANCH  19  22
ATOM     22  O   UNL     1     -14.117 -44.227  27.283  1.00  0.00    -0.444 OA
BRANCH  22  23
ATOM     23  C   UNL     1     -14.367 -43.354  26.177  1.00  0.00     0.270 C 
BRANCH  23  24
ATOM     24  C   UNL     1     -15.826 -42.982  26.158  1.00  0.00    -0.011 A 
ATOM     25  C   UNL     1     -16.510 -42.730  27.355  1.00  0.00     0.007 A 
ATOM     26  C   UNL     1     -16.509 -42.840  24.941  1.00  0.00     0.007 A 
ATOM     27  C   UNL     1     -17.855 -42.361  27.337  1.00  0.00     0.000 A 
ATOM     28  C   UNL     1     -17.855 -42.471  24.926  1.00  0.00     0.000 A 
ATOM     29  C   UNL     1     -18.528 -42.234  26.123  1.00  0.00     0.000 A 
ENDBRANCH  23  24
ENDBRANCH  22  23
ENDBRANCH  19  22
ENDBRANCH  15  18
ENDBRANCH   1  15
TORSDOF 9
ENDMDL
MODEL 7
REMARK VINA RESULT:    -9.005      1.512      2.301
REMARK INTER + INTRA:         -15.111
REMARK INTER:                 -14.132
REMARK INTRA:                  -0.979
REMARK UNBOUND:                -1.369
REMARK SMILES COc1cccc(OC)c1[C@@H](C)NS(=O)(=O)NC(=O)OCc1ccccc1
REMARK SMILES IDX 13 1 11 3 12 4 10 5 3 6 4 7 5 8 7 9 6 10 2 11 1 12 8 13 9 14
REMARK SMILES IDX 14 15 15 16 16 17 17 18 18 19 19 21 20 22 21 23 22 24 23 25
REMARK SMILES IDX 27 26 24 27 26 28 25 29
REMARK H PARENT 13 2 17 20
ROOT
ATOM      1  N   UNL     1     -13.380 -44.438  29.380  1.00  0.00    -0.190 NA
ATOM      2  H   UNL     1     -14.375 -44.639  29.490  1.00  0.00     0.143 HD
ENDROOT
BRANCH   1   3
ATOM      3  C   UNL     1     -12.556 -45.257  30.301  1.00  0.00     0.106 C 
ATOM      4  C   UNL     1     -13.408 -46.310  31.016  1.00  0.00     0.031 C 
BRANCH   3   5
ATOM      5  C   UNL     1     -11.848 -44.368  31.328  1.00  0.00     0.054 A 
ATOM      6  C   UNL     1     -12.576 -43.466  32.145  1.00  0.00     0.127 A 
ATOM      7  C   UNL     1     -11.902 -42.673  33.078  1.00  0.00     0.047 A 
ATOM      8  C   UNL     1     -10.520 -42.766  33.217  1.00  0.00     0.008 A 
ATOM      9  C   UNL     1     -10.444 -44.463  31.489  1.00  0.00     0.127 A 
ATOM     10  C   UNL     1      -9.794 -43.656  32.428  1.00  0.00     0.047 A 
BRANCH   6  11
ATOM     11  O   UNL     1     -13.937 -43.437  31.961  1.00  0.00    -0.496 OA
ATOM     12  C   UNL     1     -14.678 -42.432  32.644  1.00  0.00     0.278 C 
ENDBRANCH   6  11
BRANCH   9  13
ATOM     13  O   UNL     1      -9.799 -45.371  30.689  1.00  0.00    -0.496 OA
ATOM     14  C   UNL     1      -9.016 -46.376  31.319  1.00  0.00     0.278 C 
ENDBRANCH   9  13
ENDBRANCH   3   5
ENDBRANCH   1   3
BRANCH   1  15
ATOM     15  S   UNL     1     -12.936 -44.305  27.784  1.00  0.00     0.304 S 
ATOM     16  O   UNL     1     -11.615 -43.735  27.738  1.00  0.00    -0.189 OA
ATOM     17  O   UNL     1     -13.258 -45.574  27.179  1.00  0.00    -0.189 OA
BRANCH  15  18
ATOM     18  N   UNL     1     -14.071 -43.214  27.317  1.00  0.00    -0.205 N 
ATOM     19  C   UNL     1     -14.252 -42.855  25.988  1.00  0.00     0.422 C 
ATOM     20  H   UNL     1     -14.930 -43.287  27.847  1.00  0.00     0.188 HD
ATOM     21  O   UNL     1     -13.447 -43.058  25.095  1.00  0.00    -0.223 OA
BRANCH  19  22
ATOM     22  O   UNL     1     -15.454 -42.247  25.827  1.00  0.00    -0.444 OA
BRANCH  22  23
ATOM     23  C   UNL     1     -16.487 -43.063  25.267  1.00  0.00     0.270 C 
BRANCH  23  24
ATOM     24  C   UNL     1     -17.829 -42.486  25.634  1.00  0.00    -0.011 A 
ATOM     25  C   UNL     1     -18.220 -42.396  26.976  1.00  0.00     0.007 A 
ATOM     26  C   UNL     1     -18.686 -41.990  24.641  1.00  0.00     0.007 A 
ATOM     27  C   UNL     1     -19.452 -41.837  27.319  1.00  0.00     0.000 A 
ATOM     28  C   UNL     1     -19.919 -41.433  24.985  1.00  0.00     0.000 A 
ATOM     29  C   UNL     1     -20.302 -41.359  26.324  1.00  0.00     0.000 A 
ENDBRANCH  23  24
ENDBRANCH  22  23
ENDBRANCH  19  22
ENDBRANCH  15  18
ENDBRANCH   1  15
TORSDOF 9
ENDMDL
MODEL 8
REMARK VINA RESULT:    -8.846      2.051      3.230
REMARK INTER + INTRA:         -14.869
REMARK INTER:                 -14.696
REMARK INTRA:                  -0.173
REMARK UNBOUND:                -1.369
REMARK SMILES COc1cccc(OC)c1[C@@H](C)NS(=O)(=O)NC(=O)OCc1ccccc1
REMARK SMILES IDX 13 1 11 3 12 4 10 5 3 6 4 7 5 8 7 9 6 10 2 11 1 12 8 13 9 14
REMARK SMILES IDX 14 15 15 16 16 17 17 18 18 19 19 21 20 22 21 23 22 24 23 25
REMARK SMILES IDX 27 26 24 27 26 28 25 29
REMARK H PARENT 13 2 17 20
ROOT
ATOM      1  N   UNL     1     -11.841 -45.179  30.813  1.00  0.00    -0.190 NA
ATOM      2  H   UNL     1     -11.661 -45.298  29.815  1.00  0.00     0.143 HD
ENDROOT
BRANCH   1   3
ATOM      3  C   UNL     1     -11.064 -44.048  31.374  1.00  0.00     0.106 C 
ATOM      4  C   UNL     1     -11.146 -42.816  30.468  1.00  0.00     0.031 C 
BRANCH   3   5
ATOM      5  C   UNL     1      -9.600 -44.450  31.584  1.00  0.00     0.054 A 
ATOM      6  C   UNL     1      -8.737 -43.678  32.402  1.00  0.00     0.127 A 
ATOM      7  C   UNL     1      -7.408 -44.073  32.580  1.00  0.00     0.047 A 
ATOM      8  C   UNL     1      -6.926 -45.225  31.964  1.00  0.00     0.008 A 
ATOM      9  C   UNL     1      -9.101 -45.626  30.975  1.00  0.00     0.127 A 
ATOM     10  C   UNL     1      -7.767 -45.999  31.167  1.00  0.00     0.047 A 
BRANCH   6  11
ATOM     11  O   UNL     1      -9.284 -42.561  32.986  1.00  0.00    -0.496 OA
ATOM     12  C   UNL     1      -8.986 -42.314  34.356  1.00  0.00     0.278 C 
ENDBRANCH   6  11
BRANCH   9  13
ATOM     13  O   UNL     1      -9.990 -46.344  30.217  1.00  0.00    -0.496 OA
ATOM     14  C   UNL     1      -9.677 -46.560  28.847  1.00  0.00     0.278 C 
ENDBRANCH   9  13
ENDBRANCH   3   5
ENDBRANCH   1   3
BRANCH   1  15
ATOM     15  S   UNL     1     -13.455 -45.327  31.183  1.00  0.00     0.304 S 
ATOM     16  O   UNL     1     -13.807 -46.719  31.080  1.00  0.00    -0.189 OA
ATOM     17  O   UNL     1     -13.654 -44.561  32.389  1.00  0.00    -0.189 OA
BRANCH  15  18
ATOM     18  N   UNL     1     -14.062 -44.465  29.925  1.00  0.00    -0.205 N 
ATOM     19  C   UNL     1     -13.792 -44.792  28.603  1.00  0.00     0.422 C 
ATOM     20  H   UNL     1     -15.007 -44.142  30.087  1.00  0.00     0.188 HD
ATOM     21  O   UNL     1     -12.888 -45.524  28.236  1.00  0.00    -0.223 OA
BRANCH  19  22
ATOM     22  O   UNL     1     -14.681 -44.183  27.779  1.00  0.00    -0.444 OA
BRANCH  22  23
ATOM     23  C   UNL     1     -14.217 -43.932  26.448  1.00  0.00     0.270 C 
BRANCH  23  24
ATOM     24  C   UNL     1     -15.357 -43.405  25.617  1.00  0.00    -0.011 A 
ATOM     25  C   UNL     1     -15.292 -43.446  24.218  1.00  0.00     0.007 A 
ATOM     26  C   UNL     1     -16.515 -42.906  26.230  1.00  0.00     0.007 A 
ATOM     27  C   UNL     1     -16.358 -42.981  23.446  1.00  0.00     0.000 A 
ATOM     28  C   UNL     1     -17.579 -42.440  25.457  1.00  0.00     0.000 A 
ATOM     29  C   UNL     1     -17.500 -42.475  24.065  1.00  0.00     0.000 A 
ENDBRANCH  23  24
ENDBRANCH  22  23
ENDBRANCH  19  22
ENDBRANCH  15  18
ENDBRANCH   1  15
TORSDOF 9
ENDMDL
MODEL 9
REMARK VINA RESULT:    -8.606      2.142      8.469
REMARK INTER + INTRA:         -14.503
REMARK INTER:                 -14.874
REMARK INTRA:                   0.371
REMARK UNBOUND:                -1.369
REMARK SMILES COc1cccc(OC)c1[C@@H](C)NS(=O)(=O)NC(=O)OCc1ccccc1
REMARK SMILES IDX 13 1 11 3 12 4 10 5 3 6 4 7 5 8 7 9 6 10 2 11 1 12 8 13 9 14
REMARK SMILES IDX 14 15 15 16 16 17 17 18 18 19 19 21 20 22 21 23 22 24 23 25
REMARK SMILES IDX 27 26 24 27 26 28 25 29
REMARK H PARENT 13 2 17 20
ROOT
ATOM      1  N   UNL     1     -14.924 -42.795  26.666  1.00  0.00    -0.190 NA
ATOM      2  H   UNL     1     -14.598 -41.839  26.821  1.00  0.00     0.143 HD
ENDROOT
BRANCH   1   3
ATOM      3  C   UNL     1     -15.784 -42.887  25.462  1.00  0.00     0.106 C 
ATOM      4  C   UNL     1     -15.239 -42.019  24.325  1.00  0.00     0.031 C 
BRANCH   3   5
ATOM      5  C   UNL     1     -17.223 -42.476  25.794  1.00  0.00     0.054 A 
ATOM      6  C   UNL     1     -18.157 -42.180  24.768  1.00  0.00     0.127 A 
ATOM      7  C   UNL     1     -19.464 -41.814  25.101  1.00  0.00     0.047 A 
ATOM      8  C   UNL     1     -19.860 -41.744  26.434  1.00  0.00     0.008 A 
ATOM      9  C   UNL     1     -17.642 -42.414  27.145  1.00  0.00     0.127 A 
ATOM     10  C   UNL     1     -18.955 -42.044  27.451  1.00  0.00     0.047 A 
BRANCH   6  11
ATOM     11  O   UNL     1     -17.699 -42.281  23.477  1.00  0.00    -0.496 OA
ATOM     12  C   UNL     1     -18.344 -41.496  22.480  1.00  0.00     0.278 C 
ENDBRANCH   6  11
BRANCH   9  13
ATOM     13  O   UNL     1     -16.701 -42.737  28.090  1.00  0.00    -0.496 OA
ATOM     14  C   UNL     1     -17.103 -42.746  29.454  1.00  0.00     0.278 C 
ENDBRANCH   9  13
ENDBRANCH   3   5
ENDBRANCH   1   3
BRANCH   1  15
ATOM     15  S   UNL     1     -13.720 -43.917  26.900  1.00  0.00     0.304 S 
ATOM     16  O   UNL     1     -13.969 -45.024  26.014  1.00  0.00    -0.189 OA
ATOM     17  O   UNL     1     -12.484 -43.175  26.890  1.00  0.00    -0.189 OA
BRANCH  15  18
ATOM     18  N   UNL     1     -14.067 -44.311  28.455  1.00  0.00    -0.205 N 
ATOM     19  C   UNL     1     -13.458 -45.377  29.104  1.00  0.00     0.422 C 
ATOM     20  H   UNL     1     -14.220 -43.501  29.042  1.00  0.00     0.188 HD
ATOM     21  O   UNL     1     -12.857 -46.280  28.548  1.00  0.00    -0.223 OA
BRANCH  19  22
ATOM     22  O   UNL     1     -13.628 -45.267  30.445  1.00  0.00    -0.444 OA
BRANCH  22  23
ATOM     23  C   UNL     1     -12.824 -46.142  31.243  1.00  0.00     0.270 C 
BRANCH  23  24
ATOM     24  C   UNL     1     -11.492 -45.491  31.506  1.00  0.00    -0.011 A 
ATOM     25  C   UNL     1     -11.428 -44.186  32.013  1.00  0.00     0.007 A 
ATOM     26  C   UNL     1     -10.299 -46.196  31.289  1.00  0.00     0.007 A 
ATOM     27  C   UNL     1     -10.195 -43.591  32.282  1.00  0.00     0.000 A 
ATOM     28  C   UNL     1      -9.067 -45.598  31.558  1.00  0.00     0.000 A 
ATOM     29  C   UNL     1      -9.015 -44.295  32.051  1.00  0.00     0.000 A 
ENDBRANCH  23  24
ENDBRANCH  22  23
ENDBRANCH  19  22
ENDBRANCH  15  18
ENDBRANCH   1  15
TORSDOF 9
ENDMDL
