MODEL 1
REMARK VINA RESULT:   -12.000      0.000      0.000
REMARK INTER + INTRA:         -18.670
REMARK INTER:                 -18.314
REMARK INTRA:                  -0.356
REMARK UNBOUND:                -0.356
REMARK SMILES CNC(=O)Oc1cccc(C[N@@H+](C)CCCOc2ccc3c(=O)c4cccnc4oc3c2)c1
REMARK SMILES IDX 12 1 13 2 11 4 10 5 9 6 33 7 8 8 6 9 7 10 5 11 3 12 2 13
REMARK SMILES IDX 4 14 1 15 14 17 15 18 16 19 17 20 18 21 19 22 32 23 20 24
REMARK SMILES IDX 31 25 21 26 30 27 22 28 29 29 24 30 28 31 25 32 27 33 26 34
REMARK SMILES IDX 23 35
REMARK H PARENT 12 3 2 16
ROOT
ATOM      1  N   UNL     1     -10.670 -45.464  29.303  1.00  0.00    -0.334 N 
ATOM      2  C   UNL     1      -9.984 -44.315  28.615  1.00  0.00     0.333 C 
ATOM      3  H   UNL     1     -11.525 -45.095  29.744  1.00  0.00     0.348 HD
ENDROOT
BRANCH   1   4
ATOM      4  C   UNL     1      -9.874 -46.016  30.478  1.00  0.00     0.298 C 
BRANCH   4   5
ATOM      5  C   UNL     1      -9.431 -44.992  31.486  1.00  0.00     0.010 A 
ATOM      6  C   UNL     1      -8.069 -44.719  31.698  1.00  0.00     0.010 A 
ATOM      7  C   UNL     1     -10.385 -44.249  32.192  1.00  0.00     0.056 A 
ATOM      8  C   UNL     1      -7.678 -43.700  32.572  1.00  0.00     0.004 A 
ATOM      9  C   UNL     1      -9.985 -43.191  33.008  1.00  0.00     0.133 A 
ATOM     10  C   UNL     1      -8.637 -42.926  33.223  1.00  0.00     0.047 A 
BRANCH   9  11
ATOM     11  O   UNL     1     -10.916 -42.375  33.666  1.00  0.00    -0.410 OA
BRANCH  11  12
ATOM     12  C   UNL     1     -12.178 -42.272  33.089  1.00  0.00     0.412 C 
ATOM     13  N   UNL     1     -13.110 -42.090  34.069  1.00  0.00    -0.324 N 
ATOM     14  O   UNL     1     -12.425 -42.347  31.890  1.00  0.00    -0.224 OA
ATOM     15  C   UNL     1     -14.522 -42.026  33.801  1.00  0.00     0.146 C 
ATOM     16  H   UNL     1     -12.782 -42.130  35.025  1.00  0.00     0.166 HD
ENDBRANCH  11  12
ENDBRANCH   9  11
ENDBRANCH   4   5
ENDBRANCH   1   4
BRANCH   1  17
ATOM     17  C   UNL     1     -11.124 -46.546  28.352  1.00  0.00     0.265 C 
BRANCH  17  18
ATOM     18  C   UNL     1     -12.330 -46.134  27.507  1.00  0.00     0.103 C 
BRANCH  18  19
ATOM     19  C   UNL     1     -13.361 -45.243  28.203  1.00  0.00     0.235 C 
BRANCH  19  20
ATOM     20  O   UNL     1     -13.310 -43.939  27.626  1.00  0.00    -0.493 OA
BRANCH  20  21
ATOM     21  C   UNL     1     -14.306 -43.600  26.753  1.00  0.00     0.123 A 
ATOM     22  C   UNL     1     -14.227 -43.651  25.359  1.00  0.00     0.047 A 
ATOM     23  C   UNL     1     -15.486 -43.160  27.360  1.00  0.00     0.094 A 
ATOM     24  C   UNL     1     -15.323 -43.262  24.582  1.00  0.00     0.020 A 
ATOM     25  C   UNL     1     -16.582 -42.769  26.586  1.00  0.00     0.144 A 
ATOM     26  C   UNL     1     -16.496 -42.823  25.201  1.00  0.00     0.066 A 
ATOM     27  O   UNL     1     -17.694 -42.347  27.267  1.00  0.00    -0.437 OA
ATOM     28  C   UNL     1     -17.660 -42.404  24.410  1.00  0.00     0.202 A 
ATOM     29  C   UNL     1     -18.800 -41.963  26.543  1.00  0.00     0.230 A 
ATOM     30  C   UNL     1     -18.844 -41.972  25.157  1.00  0.00     0.085 A 
ATOM     31  N   UNL     1     -19.845 -41.569  27.307  1.00  0.00    -0.221 NA
ATOM     32  C   UNL     1     -20.009 -41.564  24.510  1.00  0.00     0.019 A 
ATOM     33  C   UNL     1     -20.968 -41.180  26.658  1.00  0.00     0.115 A 
ATOM     34  C   UNL     1     -21.096 -41.161  25.278  1.00  0.00     0.021 A 
ATOM     35  O   UNL     1     -17.635 -42.413  23.187  1.00  0.00    -0.288 OA
ENDBRANCH  20  21
ENDBRANCH  19  20
ENDBRANCH  18  19
ENDBRANCH  17  18
ENDBRANCH   1  17
TORSDOF 9
ENDMDL
MODEL 2
REMARK VINA RESULT:   -11.393      2.077      3.103
REMARK INTER + INTRA:         -17.744
REMARK INTER:                 -17.522
REMARK INTRA:                  -0.222
REMARK UNBOUND:                -0.356
REMARK SMILES CNC(=O)Oc1cccc(C[N@@H+](C)CCCOc2ccc3c(=O)c4cccnc4oc3c2)c1
REMARK SMILES IDX 12 1 13 2 11 4 10 5 9 6 33 7 8 8 6 9 7 10 5 11 3 12 2 13
REMARK SMILES IDX 4 14 1 15 14 17 15 18 16 19 17 20 18 21 19 22 32 23 20 24
REMARK SMILES IDX 31 25 21 26 30 27 22 28 29 29 24 30 28 31 25 32 27 33 26 34
REMARK SMILES IDX 23 35
REMARK H PARENT 12 3 2 16
ROOT
ATOM      1  N   UNL     1     -13.019 -45.784  30.648  1.00  0.00    -0.334 N 
ATOM      2  C   UNL     1     -14.058 -44.716  30.437  1.00  0.00     0.333 C 
ATOM      3  H   UNL     1     -13.509 -46.636  30.958  1.00  0.00     0.348 HD
ENDROOT
BRANCH   1   4
ATOM      4  C   UNL     1     -12.074 -45.476  31.801  1.00  0.00     0.298 C 
BRANCH   4   5
ATOM      5  C   UNL     1     -10.620 -45.382  31.427  1.00  0.00     0.010 A 
ATOM      6  C   UNL     1      -9.792 -46.516  31.430  1.00  0.00     0.010 A 
ATOM      7  C   UNL     1     -10.085 -44.158  31.010  1.00  0.00     0.056 A 
ATOM      8  C   UNL     1      -8.467 -46.428  30.992  1.00  0.00     0.004 A 
ATOM      9  C   UNL     1      -8.784 -44.096  30.511  1.00  0.00     0.133 A 
ATOM     10  C   UNL     1      -7.962 -45.218  30.521  1.00  0.00     0.047 A 
BRANCH   9  11
ATOM     11  O   UNL     1      -8.243 -42.904  30.009  1.00  0.00    -0.410 OA
BRANCH  11  12
ATOM     12  C   UNL     1      -8.772 -42.429  28.813  1.00  0.00     0.412 C 
ATOM     13  N   UNL     1      -7.800 -42.431  27.856  1.00  0.00    -0.324 N 
ATOM     14  O   UNL     1      -9.925 -42.051  28.641  1.00  0.00    -0.224 OA
ATOM     15  C   UNL     1      -8.011 -41.922  26.527  1.00  0.00     0.146 C 
ATOM     16  H   UNL     1      -6.867 -42.690  28.151  1.00  0.00     0.166 HD
ENDBRANCH  11  12
ENDBRANCH   9  11
ENDBRANCH   4   5
ENDBRANCH   1   4
BRANCH   1  17
ATOM     17  C   UNL     1     -12.286 -46.162  29.383  1.00  0.00     0.265 C 
BRANCH  17  18
ATOM     18  C   UNL     1     -12.261 -45.038  28.345  1.00  0.00     0.103 C 
BRANCH  18  19
ATOM     19  C   UNL     1     -13.357 -45.089  27.280  1.00  0.00     0.235 C 
BRANCH  19  20
ATOM     20  O   UNL     1     -13.291 -43.901  26.490  1.00  0.00    -0.493 OA
BRANCH  20  21
ATOM     21  C   UNL     1     -14.416 -43.543  25.802  1.00  0.00     0.123 A 
ATOM     22  C   UNL     1     -14.567 -43.553  24.413  1.00  0.00     0.047 A 
ATOM     23  C   UNL     1     -15.482 -43.128  26.607  1.00  0.00     0.094 A 
ATOM     24  C   UNL     1     -15.775 -43.148  23.837  1.00  0.00     0.020 A 
ATOM     25  C   UNL     1     -16.689 -42.721  26.034  1.00  0.00     0.144 A 
ATOM     26  C   UNL     1     -16.831 -42.733  24.652  1.00  0.00     0.066 A 
ATOM     27  O   UNL     1     -17.676 -42.325  26.900  1.00  0.00    -0.437 OA
ATOM     28  C   UNL     1     -18.109 -42.298  24.075  1.00  0.00     0.202 A 
ATOM     29  C   UNL     1     -18.886 -41.926  26.377  1.00  0.00     0.230 A 
ATOM     30  C   UNL     1     -19.155 -41.895  25.018  1.00  0.00     0.085 A 
ATOM     31  N   UNL     1     -19.792 -41.561  27.314  1.00  0.00    -0.221 NA
ATOM     32  C   UNL     1     -20.411 -41.475  24.582  1.00  0.00     0.019 A 
ATOM     33  C   UNL     1     -21.006 -41.159  26.869  1.00  0.00     0.115 A 
ATOM     34  C   UNL     1     -21.358 -41.100  25.529  1.00  0.00     0.021 A 
ATOM     35  O   UNL     1     -18.284 -42.271  22.865  1.00  0.00    -0.288 OA
ENDBRANCH  20  21
ENDBRANCH  19  20
ENDBRANCH  18  19
ENDBRANCH  17  18
ENDBRANCH   1  17
TORSDOF 9
ENDMDL
MODEL 3
REMARK VINA RESULT:   -11.277      1.737      3.046
REMARK INTER + INTRA:         -17.566
REMARK INTER:                 -17.207
REMARK INTRA:                  -0.359
REMARK UNBOUND:                -0.356
REMARK SMILES CNC(=O)Oc1cccc(C[N@@H+](C)CCCOc2ccc3c(=O)c4cccnc4oc3c2)c1
REMARK SMILES IDX 12 1 13 2 11 4 10 5 9 6 33 7 8 8 6 9 7 10 5 11 3 12 2 13
REMARK SMILES IDX 4 14 1 15 14 17 15 18 16 19 17 20 18 21 19 22 32 23 20 24
REMARK SMILES IDX 31 25 21 26 30 27 22 28 29 29 24 30 28 31 25 32 27 33 26 34
REMARK SMILES IDX 23 35
REMARK H PARENT 12 3 2 16
ROOT
ATOM      1  N   UNL     1     -12.546 -44.458  31.690  1.00  0.00    -0.334 N 
ATOM      2  C   UNL     1     -13.771 -45.224  32.113  1.00  0.00     0.333 C 
ATOM      3  H   UNL     1     -11.727 -44.941  32.087  1.00  0.00     0.348 HD
ENDROOT
BRANCH   1   4
ATOM      4  C   UNL     1     -12.471 -43.067  32.306  1.00  0.00     0.298 C 
BRANCH   4   5
ATOM      5  C   UNL     1     -11.180 -42.748  33.007  1.00  0.00     0.010 A 
ATOM      6  C   UNL     1     -11.168 -42.107  34.257  1.00  0.00     0.010 A 
ATOM      7  C   UNL     1      -9.962 -43.145  32.443  1.00  0.00     0.056 A 
ATOM      8  C   UNL     1      -9.964 -41.901  34.938  1.00  0.00     0.004 A 
ATOM      9  C   UNL     1      -8.776 -42.996  33.160  1.00  0.00     0.133 A 
ATOM     10  C   UNL     1      -8.764 -42.354  34.394  1.00  0.00     0.047 A 
BRANCH   9  11
ATOM     11  O   UNL     1      -7.549 -43.456  32.660  1.00  0.00    -0.410 OA
BRANCH  11  12
ATOM     12  C   UNL     1      -7.597 -44.282  31.542  1.00  0.00     0.412 C 
ATOM     13  N   UNL     1      -8.132 -45.488  31.893  1.00  0.00    -0.324 N 
ATOM     14  O   UNL     1      -7.208 -43.987  30.418  1.00  0.00    -0.224 OA
ATOM     15  C   UNL     1      -8.244 -46.589  30.974  1.00  0.00     0.146 C 
ATOM     16  H   UNL     1      -8.336 -45.630  32.873  1.00  0.00     0.166 HD
ENDBRANCH  11  12
ENDBRANCH   9  11
ENDBRANCH   4   5
ENDBRANCH   1   4
BRANCH   1  17
ATOM     17  C   UNL     1     -12.338 -44.442  30.195  1.00  0.00     0.265 C 
BRANCH  17  18
ATOM     18  C   UNL     1     -13.409 -45.224  29.431  1.00  0.00     0.103 C 
BRANCH  18  19
ATOM     19  C   UNL     1     -13.250 -45.263  27.911  1.00  0.00     0.235 C 
BRANCH  19  20
ATOM     20  O   UNL     1     -13.263 -43.927  27.409  1.00  0.00    -0.493 OA
BRANCH  20  21
ATOM     21  C   UNL     1     -14.293 -43.579  26.579  1.00  0.00     0.123 A 
ATOM     22  C   UNL     1     -14.267 -43.611  25.183  1.00  0.00     0.047 A 
ATOM     23  C   UNL     1     -15.450 -43.151  27.237  1.00  0.00     0.094 A 
ATOM     24  C   UNL     1     -15.392 -43.215  24.453  1.00  0.00     0.020 A 
ATOM     25  C   UNL     1     -16.575 -42.752  26.511  1.00  0.00     0.144 A 
ATOM     26  C   UNL     1     -16.542 -42.787  25.122  1.00  0.00     0.066 A 
ATOM     27  O   UNL     1     -17.662 -42.342  27.239  1.00  0.00    -0.437 OA
ATOM     28  C   UNL     1     -17.736 -42.361  24.382  1.00  0.00     0.202 A 
ATOM     29  C   UNL     1     -18.795 -41.952  26.562  1.00  0.00     0.230 A 
ATOM     30  C   UNL     1     -18.892 -41.942  25.180  1.00  0.00     0.085 A 
ATOM     31  N   UNL     1     -19.811 -41.571  27.371  1.00  0.00    -0.221 NA
ATOM     32  C   UNL     1     -20.082 -41.528  24.582  1.00  0.00     0.019 A 
ATOM     33  C   UNL     1     -20.958 -41.176  26.771  1.00  0.00     0.115 A 
ATOM     34  C   UNL     1     -21.139 -41.139  25.397  1.00  0.00     0.021 A 
ATOM     35  O   UNL     1     -17.758 -42.353  23.159  1.00  0.00    -0.288 OA
ENDBRANCH  20  21
ENDBRANCH  19  20
ENDBRANCH  18  19
ENDBRANCH  17  18
ENDBRANCH   1  17
TORSDOF 9
ENDMDL
MODEL 4
REMARK VINA RESULT:   -11.247      2.854      4.278
REMARK INTER + INTRA:         -17.521
REMARK INTER:                 -16.743
REMARK INTRA:                  -0.778
REMARK UNBOUND:                -0.356
REMARK SMILES CNC(=O)Oc1cccc(C[N@@H+](C)CCCOc2ccc3c(=O)c4cccnc4oc3c2)c1
REMARK SMILES IDX 12 1 13 2 11 4 10 5 9 6 33 7 8 8 6 9 7 10 5 11 3 12 2 13
REMARK SMILES IDX 4 14 1 15 14 17 15 18 16 19 17 20 18 21 19 22 32 23 20 24
REMARK SMILES IDX 31 25 21 26 30 27 22 28 29 29 24 30 28 31 25 32 27 33 26 34
REMARK SMILES IDX 23 35
REMARK H PARENT 12 3 2 16
ROOT
ATOM      1  N   UNL     1     -12.826 -43.467  27.335  1.00  0.00    -0.334 N 
ATOM      2  C   UNL     1     -11.515 -42.731  27.393  1.00  0.00     0.333 C 
ATOM      3  H   UNL     1     -13.406 -43.129  28.117  1.00  0.00     0.348 HD
ENDROOT
BRANCH   1   4
ATOM      4  C   UNL     1     -12.686 -44.958  27.616  1.00  0.00     0.298 C 
BRANCH   4   5
ATOM      5  C   UNL     1     -12.219 -45.305  29.002  1.00  0.00     0.010 A 
ATOM      6  C   UNL     1     -11.026 -46.016  29.213  1.00  0.00     0.010 A 
ATOM      7  C   UNL     1     -12.948 -44.867  30.115  1.00  0.00     0.056 A 
ATOM      8  C   UNL     1     -10.560 -46.250  30.511  1.00  0.00     0.004 A 
ATOM      9  C   UNL     1     -12.439 -45.046  31.400  1.00  0.00     0.133 A 
ATOM     10  C   UNL     1     -11.262 -45.757  31.609  1.00  0.00     0.047 A 
BRANCH   9  11
ATOM     11  O   UNL     1     -13.102 -44.549  32.532  1.00  0.00    -0.410 OA
BRANCH  11  12
ATOM     12  C   UNL     1     -13.320 -43.176  32.578  1.00  0.00     0.412 C 
ATOM     13  N   UNL     1     -14.533 -42.930  33.154  1.00  0.00    -0.324 N 
ATOM     14  O   UNL     1     -12.556 -42.316  32.156  1.00  0.00    -0.224 OA
ATOM     15  C   UNL     1     -15.084 -41.607  33.277  1.00  0.00     0.146 C 
ATOM     16  H   UNL     1     -15.102 -43.734  33.383  1.00  0.00     0.166 HD
ENDBRANCH  11  12
ENDBRANCH   9  11
ENDBRANCH   4   5
ENDBRANCH   1   4
BRANCH   1  17
ATOM     17  C   UNL     1     -13.614 -43.186  26.078  1.00  0.00     0.265 C 
BRANCH  17  18
ATOM     18  C   UNL     1     -14.240 -44.443  25.469  1.00  0.00     0.103 C 
BRANCH  18  19
ATOM     19  C   UNL     1     -14.910 -44.261  24.106  1.00  0.00     0.235 C 
BRANCH  19  20
ATOM     20  O   UNL     1     -15.069 -42.866  23.851  1.00  0.00    -0.493 OA
BRANCH  20  21
ATOM     21  C   UNL     1     -16.347 -42.386  23.768  1.00  0.00     0.123 A 
ATOM     22  C   UNL     1     -17.341 -42.527  24.739  1.00  0.00     0.047 A 
ATOM     23  C   UNL     1     -16.637 -41.707  22.581  1.00  0.00     0.094 A 
ATOM     24  C   UNL     1     -18.615 -41.994  24.520  1.00  0.00     0.020 A 
ATOM     25  C   UNL     1     -17.909 -41.175  22.357  1.00  0.00     0.144 A 
ATOM     26  C   UNL     1     -18.892 -41.320  23.328  1.00  0.00     0.066 A 
ATOM     27  O   UNL     1     -18.104 -40.531  21.163  1.00  0.00    -0.437 OA
ATOM     28  C   UNL     1     -20.222 -40.754  23.068  1.00  0.00     0.202 A 
ATOM     29  C   UNL     1     -19.340 -39.983  20.907  1.00  0.00     0.230 A 
ATOM     30  C   UNL     1     -20.404 -40.056  21.793  1.00  0.00     0.085 A 
ATOM     31  N   UNL     1     -19.427 -39.366  19.706  1.00  0.00    -0.221 NA
ATOM     32  C   UNL     1     -21.621 -39.471  21.446  1.00  0.00     0.019 A 
ATOM     33  C   UNL     1     -20.617 -38.802  19.390  1.00  0.00     0.115 A 
ATOM     34  C   UNL     1     -21.729 -38.828  20.218  1.00  0.00     0.021 A 
ATOM     35  O   UNL     1     -21.131 -40.867  23.879  1.00  0.00    -0.288 OA
ENDBRANCH  20  21
ENDBRANCH  19  20
ENDBRANCH  18  19
ENDBRANCH  17  18
ENDBRANCH   1  17
TORSDOF 9
ENDMDL
MODEL 5
REMARK VINA RESULT:   -10.960      2.569      3.958
REMARK INTER + INTRA:         -17.083
REMARK INTER:                 -16.793
REMARK INTRA:                  -0.289
REMARK UNBOUND:                -0.356
REMARK SMILES CNC(=O)Oc1cccc(C[N@@H+](C)CCCOc2ccc3c(=O)c4cccnc4oc3c2)c1
REMARK SMILES IDX 12 1 13 2 11 4 10 5 9 6 33 7 8 8 6 9 7 10 5 11 3 12 2 13
REMARK SMILES IDX 4 14 1 15 14 17 15 18 16 19 17 20 18 21 19 22 32 23 20 24
REMARK SMILES IDX 31 25 21 26 30 27 22 28 29 29 24 30 28 31 25 32 27 33 26 34
REMARK SMILES IDX 23 35
REMARK H PARENT 12 3 2 16
ROOT
ATOM      1  N   UNL     1     -12.815 -46.067  29.096  1.00  0.00    -0.334 N 
ATOM      2  C   UNL     1     -13.306 -46.179  30.515  1.00  0.00     0.333 C 
ATOM      3  H   UNL     1     -13.347 -46.743  28.530  1.00  0.00     0.348 HD
ENDROOT
BRANCH   1   4
ATOM      4  C   UNL     1     -11.371 -46.520  28.928  1.00  0.00     0.298 C 
BRANCH   4   5
ATOM      5  C   UNL     1     -10.376 -45.819  29.811  1.00  0.00     0.010 A 
ATOM      6  C   UNL     1      -9.916 -46.406  31.001  1.00  0.00     0.010 A 
ATOM      7  C   UNL     1      -9.845 -44.583  29.421  1.00  0.00     0.056 A 
ATOM      8  C   UNL     1      -8.923 -45.783  31.763  1.00  0.00     0.004 A 
ATOM      9  C   UNL     1      -8.808 -44.004  30.151  1.00  0.00     0.133 A 
ATOM     10  C   UNL     1      -8.358 -44.583  31.334  1.00  0.00     0.047 A 
BRANCH   9  11
ATOM     11  O   UNL     1      -8.198 -42.809  29.745  1.00  0.00    -0.410 OA
BRANCH  11  12
ATOM     12  C   UNL     1      -8.667 -42.233  28.568  1.00  0.00     0.412 C 
ATOM     13  N   UNL     1      -7.659 -42.197  27.649  1.00  0.00    -0.324 N 
ATOM     14  O   UNL     1      -9.802 -41.808  28.383  1.00  0.00    -0.224 OA
ATOM     15  C   UNL     1      -7.805 -41.587  26.354  1.00  0.00     0.146 C 
ATOM     16  H   UNL     1      -6.746 -42.505  27.958  1.00  0.00     0.166 HD
ENDBRANCH  11  12
ENDBRANCH   9  11
ENDBRANCH   4   5
ENDBRANCH   1   4
BRANCH   1  17
ATOM     17  C   UNL     1     -13.073 -44.712  28.481  1.00  0.00     0.265 C 
BRANCH  17  18
ATOM     18  C   UNL     1     -13.233 -44.765  26.960  1.00  0.00     0.103 C 
BRANCH  18  19
ATOM     19  C   UNL     1     -14.543 -44.202  26.407  1.00  0.00     0.235 C 
BRANCH  19  20
ATOM     20  O   UNL     1     -15.080 -43.271  27.346  1.00  0.00    -0.493 OA
BRANCH  20  21
ATOM     21  C   UNL     1     -16.344 -42.804  27.114  1.00  0.00     0.123 A 
ATOM     22  C   UNL     1     -17.287 -42.468  28.088  1.00  0.00     0.047 A 
ATOM     23  C   UNL     1     -16.676 -42.676  25.761  1.00  0.00     0.094 A 
ATOM     24  C   UNL     1     -18.553 -42.012  27.709  1.00  0.00     0.020 A 
ATOM     25  C   UNL     1     -17.941 -42.223  25.379  1.00  0.00     0.144 A 
ATOM     26  C   UNL     1     -18.874 -41.892  26.354  1.00  0.00     0.066 A 
ATOM     27  O   UNL     1     -18.180 -42.135  24.032  1.00  0.00    -0.437 OA
ATOM     28  C   UNL     1     -20.196 -41.419  25.926  1.00  0.00     0.202 A 
ATOM     29  C   UNL     1     -19.411 -41.682  23.612  1.00  0.00     0.230 A 
ATOM     30  C   UNL     1     -20.426 -41.318  24.483  1.00  0.00     0.085 A 
ATOM     31  N   UNL     1     -19.543 -41.628  22.267  1.00  0.00    -0.221 NA
ATOM     32  C   UNL     1     -21.640 -40.871  23.964  1.00  0.00     0.019 A 
ATOM     33  C   UNL     1     -20.729 -41.188  21.784  1.00  0.00     0.115 A 
ATOM     34  C   UNL     1     -21.795 -40.803  22.584  1.00  0.00     0.021 A 
ATOM     35  O   UNL     1     -21.063 -41.131  26.740  1.00  0.00    -0.288 OA
ENDBRANCH  20  21
ENDBRANCH  19  20
ENDBRANCH  18  19
ENDBRANCH  17  18
ENDBRANCH   1  17
TORSDOF 9
ENDMDL
MODEL 6
REMARK VINA RESULT:   -10.948      2.752      4.121
REMARK INTER + INTRA:         -17.065
REMARK INTER:                 -16.743
REMARK INTRA:                  -0.323
REMARK UNBOUND:                -0.356
REMARK SMILES CNC(=O)Oc1cccc(C[N@@H+](C)CCCOc2ccc3c(=O)c4cccnc4oc3c2)c1
REMARK SMILES IDX 12 1 13 2 11 4 10 5 9 6 33 7 8 8 6 9 7 10 5 11 3 12 2 13
REMARK SMILES IDX 4 14 1 15 14 17 15 18 16 19 17 20 18 21 19 22 32 23 20 24
REMARK SMILES IDX 31 25 21 26 30 27 22 28 29 29 24 30 28 31 25 32 27 33 26 34
REMARK SMILES IDX 23 35
REMARK H PARENT 12 3 2 16
ROOT
ATOM      1  N   UNL     1     -12.140 -44.033  28.197  1.00  0.00    -0.334 N 
ATOM      2  C   UNL     1     -11.584 -42.736  27.674  1.00  0.00     0.333 C 
ATOM      3  H   UNL     1     -12.344 -43.901  29.198  1.00  0.00     0.348 HD
ENDROOT
BRANCH   1   4
ATOM      4  C   UNL     1     -11.122 -45.165  28.187  1.00  0.00     0.298 C 
BRANCH   4   5
ATOM      5  C   UNL     1     -10.281 -45.278  29.428  1.00  0.00     0.010 A 
ATOM      6  C   UNL     1     -10.009 -46.526  30.014  1.00  0.00     0.010 A 
ATOM      7  C   UNL     1      -9.703 -44.131  29.986  1.00  0.00     0.056 A 
ATOM      8  C   UNL     1      -9.149 -46.621  31.113  1.00  0.00     0.004 A 
ATOM      9  C   UNL     1      -8.795 -44.246  31.039  1.00  0.00     0.133 A 
ATOM     10  C   UNL     1      -8.532 -45.481  31.623  1.00  0.00     0.047 A 
BRANCH   9  11
ATOM     11  O   UNL     1      -8.137 -43.128  31.569  1.00  0.00    -0.410 OA
BRANCH  11  12
ATOM     12  C   UNL     1      -8.124 -43.005  32.955  1.00  0.00     0.412 C 
ATOM     13  N   UNL     1      -9.363 -42.627  33.386  1.00  0.00    -0.324 N 
ATOM     14  O   UNL     1      -7.154 -43.190  33.681  1.00  0.00    -0.224 OA
ATOM     15  C   UNL     1      -9.655 -42.340  34.765  1.00  0.00     0.146 C 
ATOM     16  H   UNL     1     -10.054 -42.427  32.675  1.00  0.00     0.166 HD
ENDBRANCH  11  12
ENDBRANCH   9  11
ENDBRANCH   4   5
ENDBRANCH   1   4
BRANCH   1  17
ATOM     17  C   UNL     1     -13.449 -44.425  27.553  1.00  0.00     0.265 C 
BRANCH  17  18
ATOM     18  C   UNL     1     -13.792 -43.577  26.327  1.00  0.00     0.103 C 
BRANCH  18  19
ATOM     19  C   UNL     1     -15.136 -42.849  26.373  1.00  0.00     0.235 C 
BRANCH  19  20
ATOM     20  O   UNL     1     -16.026 -43.462  25.441  1.00  0.00    -0.493 OA
BRANCH  20  21
ATOM     21  C   UNL     1     -17.154 -42.767  25.102  1.00  0.00     0.123 A 
ATOM     22  C   UNL     1     -18.256 -42.537  25.930  1.00  0.00     0.047 A 
ATOM     23  C   UNL     1     -17.160 -42.271  23.795  1.00  0.00     0.094 A 
ATOM     24  C   UNL     1     -19.354 -41.817  25.450  1.00  0.00     0.020 A 
ATOM     25  C   UNL     1     -18.257 -41.553  23.311  1.00  0.00     0.144 A 
ATOM     26  C   UNL     1     -19.349 -41.329  24.141  1.00  0.00     0.066 A 
ATOM     27  O   UNL     1     -18.178 -41.110  22.016  1.00  0.00    -0.437 OA
ATOM     28  C   UNL     1     -20.489 -40.574  23.608  1.00  0.00     0.202 A 
ATOM     29  C   UNL     1     -19.232 -40.389  21.504  1.00  0.00     0.230 A 
ATOM     30  C   UNL     1     -20.377 -40.096  22.228  1.00  0.00     0.085 A 
ATOM     31  N   UNL     1     -19.053 -39.995  20.222  1.00  0.00    -0.221 NA
ATOM     32  C   UNL     1     -21.395 -39.359  21.623  1.00  0.00     0.019 A 
ATOM     33  C   UNL     1     -20.052 -39.278  19.655  1.00  0.00     0.115 A 
ATOM     34  C   UNL     1     -21.228 -38.940  20.308  1.00  0.00     0.021 A 
ATOM     35  O   UNL     1     -21.485 -40.362  24.287  1.00  0.00    -0.288 OA
ENDBRANCH  20  21
ENDBRANCH  19  20
ENDBRANCH  18  19
ENDBRANCH  17  18
ENDBRANCH   1  17
TORSDOF 9
ENDMDL
MODEL 7
REMARK VINA RESULT:   -10.842      3.011      4.901
REMARK INTER + INTRA:         -16.903
REMARK INTER:                 -16.514
REMARK INTRA:                  -0.388
REMARK UNBOUND:                -0.356
REMARK SMILES CNC(=O)Oc1cccc(C[N@@H+](C)CCCOc2ccc3c(=O)c4cccnc4oc3c2)c1
REMARK SMILES IDX 12 1 13 2 11 4 10 5 9 6 33 7 8 8 6 9 7 10 5 11 3 12 2 13
REMARK SMILES IDX 4 14 1 15 14 17 15 18 16 19 17 20 18 21 19 22 32 23 20 24
REMARK SMILES IDX 31 25 21 26 30 27 22 28 29 29 24 30 28 31 25 32 27 33 26 34
REMARK SMILES IDX 23 35
REMARK H PARENT 12 3 2 16
ROOT
ATOM      1  N   UNL     1     -13.805 -45.442  27.570  1.00  0.00    -0.334 N 
ATOM      2  C   UNL     1     -14.174 -44.579  28.747  1.00  0.00     0.333 C 
ATOM      3  H   UNL     1     -14.526 -46.172  27.484  1.00  0.00     0.348 HD
ENDROOT
BRANCH   1   4
ATOM      4  C   UNL     1     -12.522 -46.233  27.790  1.00  0.00     0.298 C 
BRANCH   4   5
ATOM      5  C   UNL     1     -11.637 -45.720  28.893  1.00  0.00     0.010 A 
ATOM      6  C   UNL     1     -11.772 -46.183  30.212  1.00  0.00     0.010 A 
ATOM      7  C   UNL     1     -10.616 -44.807  28.601  1.00  0.00     0.056 A 
ATOM      8  C   UNL     1     -10.882 -45.764  31.206  1.00  0.00     0.004 A 
ATOM      9  C   UNL     1      -9.694 -44.450  29.584  1.00  0.00     0.133 A 
ATOM     10  C   UNL     1      -9.833 -44.903  30.891  1.00  0.00     0.047 A 
BRANCH   9  11
ATOM     11  O   UNL     1      -8.612 -43.602  29.306  1.00  0.00    -0.410 OA
BRANCH  11  12
ATOM     12  C   UNL     1      -8.850 -42.546  28.432  1.00  0.00     0.412 C 
ATOM     13  N   UNL     1      -7.798 -42.425  27.571  1.00  0.00    -0.324 N 
ATOM     14  O   UNL     1      -9.840 -41.823  28.437  1.00  0.00    -0.224 OA
ATOM     15  C   UNL     1      -7.707 -41.374  26.593  1.00  0.00     0.146 C 
ATOM     16  H   UNL     1      -7.006 -43.034  27.728  1.00  0.00     0.166 HD
ENDBRANCH  11  12
ENDBRANCH   9  11
ENDBRANCH   4   5
ENDBRANCH   1   4
BRANCH   1  17
ATOM     17  C   UNL     1     -13.806 -44.695  26.258  1.00  0.00     0.265 C 
BRANCH  17  18
ATOM     18  C   UNL     1     -13.802 -43.175  26.433  1.00  0.00     0.103 C 
BRANCH  18  19
ATOM     19  C   UNL     1     -14.791 -42.400  25.561  1.00  0.00     0.235 C 
BRANCH  19  20
ATOM     20  O   UNL     1     -15.922 -43.229  25.294  1.00  0.00    -0.493 OA
BRANCH  20  21
ATOM     21  C   UNL     1     -17.091 -42.606  24.957  1.00  0.00     0.123 A 
ATOM     22  C   UNL     1     -18.207 -42.452  25.783  1.00  0.00     0.047 A 
ATOM     23  C   UNL     1     -17.126 -42.102  23.653  1.00  0.00     0.094 A 
ATOM     24  C   UNL     1     -19.348 -41.801  25.305  1.00  0.00     0.020 A 
ATOM     25  C   UNL     1     -18.265 -41.453  23.171  1.00  0.00     0.144 A 
ATOM     26  C   UNL     1     -19.370 -41.304  23.999  1.00  0.00     0.066 A 
ATOM     27  O   UNL     1     -18.211 -40.997  21.879  1.00  0.00    -0.437 OA
ATOM     28  C   UNL     1     -20.556 -40.620  23.468  1.00  0.00     0.202 A 
ATOM     29  C   UNL     1     -19.308 -40.341  21.368  1.00  0.00     0.230 A 
ATOM     30  C   UNL     1     -20.471 -40.126  22.091  1.00  0.00     0.085 A 
ATOM     31  N   UNL     1     -19.151 -39.927  20.090  1.00  0.00    -0.221 NA
ATOM     32  C   UNL     1     -21.533 -39.452  21.489  1.00  0.00     0.019 A 
ATOM     33  C   UNL     1     -20.193 -39.272  19.525  1.00  0.00     0.115 A 
ATOM     34  C   UNL     1     -21.389 -39.014  20.177  1.00  0.00     0.021 A 
ATOM     35  O   UNL     1     -21.564 -40.476  24.145  1.00  0.00    -0.288 OA
ENDBRANCH  20  21
ENDBRANCH  19  20
ENDBRANCH  18  19
ENDBRANCH  17  18
ENDBRANCH   1  17
TORSDOF 9
ENDMDL
MODEL 8
REMARK VINA RESULT:   -10.737      2.275     10.693
REMARK INTER + INTRA:         -16.743
REMARK INTER:                 -16.134
REMARK INTRA:                  -0.609
REMARK UNBOUND:                -0.356
REMARK SMILES CNC(=O)Oc1cccc(C[N@@H+](C)CCCOc2ccc3c(=O)c4cccnc4oc3c2)c1
REMARK SMILES IDX 12 1 13 2 11 4 10 5 9 6 33 7 8 8 6 9 7 10 5 11 3 12 2 13
REMARK SMILES IDX 4 14 1 15 14 17 15 18 16 19 17 20 18 21 19 22 32 23 20 24
REMARK SMILES IDX 31 25 21 26 30 27 22 28 29 29 24 30 28 31 25 32 27 33 26 34
REMARK SMILES IDX 23 35
REMARK H PARENT 12 3 2 16
ROOT
ATOM      1  N   UNL     1     -15.654 -43.095  24.752  1.00  0.00    -0.334 N 
ATOM      2  C   UNL     1     -14.985 -41.938  24.061  1.00  0.00     0.333 C 
ATOM      3  H   UNL     1     -16.334 -43.500  24.092  1.00  0.00     0.348 HD
ENDROOT
BRANCH   1   4
ATOM      4  C   UNL     1     -16.517 -42.667  25.932  1.00  0.00     0.298 C 
BRANCH   4   5
ATOM      5  C   UNL     1     -17.951 -42.361  25.596  1.00  0.00     0.010 A 
ATOM      6  C   UNL     1     -18.849 -41.911  26.578  1.00  0.00     0.010 A 
ATOM      7  C   UNL     1     -18.396 -42.466  24.273  1.00  0.00     0.056 A 
ATOM      8  C   UNL     1     -20.153 -41.543  26.231  1.00  0.00     0.004 A 
ATOM      9  C   UNL     1     -19.675 -42.033  23.928  1.00  0.00     0.133 A 
ATOM     10  C   UNL     1     -20.567 -41.595  24.901  1.00  0.00     0.047 A 
BRANCH   9  11
ATOM     11  O   UNL     1     -20.126 -42.049  22.600  1.00  0.00    -0.410 OA
BRANCH  11  12
ATOM     12  C   UNL     1     -20.323 -40.814  21.990  1.00  0.00     0.412 C 
ATOM     13  N   UNL     1     -21.490 -40.841  21.282  1.00  0.00    -0.324 N 
ATOM     14  O   UNL     1     -19.565 -39.853  22.058  1.00  0.00    -0.224 OA
ATOM     15  C   UNL     1     -21.938 -39.739  20.473  1.00  0.00     0.146 C 
ATOM     16  H   UNL     1     -21.980 -41.725  21.241  1.00  0.00     0.166 HD
ENDBRANCH  11  12
ENDBRANCH   9  11
ENDBRANCH   4   5
ENDBRANCH   1   4
BRANCH   1  17
ATOM     17  C   UNL     1     -14.701 -44.211  25.107  1.00  0.00     0.265 C 
BRANCH  17  18
ATOM     18  C   UNL     1     -13.831 -43.893  26.325  1.00  0.00     0.103 C 
BRANCH  18  19
ATOM     19  C   UNL     1     -14.122 -44.710  27.584  1.00  0.00     0.235 C 
BRANCH  19  20
ATOM     20  O   UNL     1     -13.142 -45.740  27.704  1.00  0.00    -0.493 OA
BRANCH  20  21
ATOM     21  C   UNL     1     -12.129 -45.541  28.601  1.00  0.00     0.123 A 
ATOM     22  C   UNL     1     -10.899 -46.203  28.610  1.00  0.00     0.047 A 
ATOM     23  C   UNL     1     -12.403 -44.584  29.584  1.00  0.00     0.094 A 
ATOM     24  C   UNL     1      -9.953 -45.910  29.598  1.00  0.00     0.020 A 
ATOM     25  C   UNL     1     -11.461 -44.290  30.573  1.00  0.00     0.144 A 
ATOM     26  C   UNL     1     -10.240 -44.953  30.575  1.00  0.00     0.066 A 
ATOM     27  O   UNL     1     -11.818 -43.343  31.498  1.00  0.00    -0.437 OA
ATOM     28  C   UNL     1      -9.269 -44.628  31.627  1.00  0.00     0.202 A 
ATOM     29  C   UNL     1     -10.914 -43.016  32.484  1.00  0.00     0.230 A 
ATOM     30  C   UNL     1      -9.663 -43.602  32.595  1.00  0.00     0.085 A 
ATOM     31  N   UNL     1     -11.360 -42.069  33.341  1.00  0.00    -0.221 NA
ATOM     32  C   UNL     1      -8.815 -43.206  33.629  1.00  0.00     0.019 A 
ATOM     33  C   UNL     1     -10.520 -41.697  34.335  1.00  0.00     0.115 A 
ATOM     34  C   UNL     1      -9.253 -42.230  34.518  1.00  0.00     0.021 A 
ATOM     35  O   UNL     1      -8.185 -45.193  31.689  1.00  0.00    -0.288 OA
ENDBRANCH  20  21
ENDBRANCH  19  20
ENDBRANCH  18  19
ENDBRANCH  17  18
ENDBRANCH   1  17
TORSDOF 9
ENDMDL
MODEL 9
REMARK VINA RESULT:   -10.478      2.916     10.644
REMARK INTER + INTRA:         -16.348
REMARK INTER:                 -15.640
REMARK INTRA:                  -0.708
REMARK UNBOUND:                -0.356
REMARK SMILES CNC(=O)Oc1cccc(C[N@@H+](C)CCCOc2ccc3c(=O)c4cccnc4oc3c2)c1
REMARK SMILES IDX 12 1 13 2 11 4 10 5 9 6 33 7 8 8 6 9 7 10 5 11 3 12 2 13
REMARK SMILES IDX 4 14 1 15 14 17 15 18 16 19 17 20 18 21 19 22 32 23 20 24
REMARK SMILES IDX 31 25 21 26 30 27 22 28 29 29 24 30 28 31 25 32 27 33 26 34
REMARK SMILES IDX 23 35
REMARK H PARENT 12 3 2 16
ROOT
ATOM      1  N   UNL     1     -18.167 -42.709  25.645  1.00  0.00    -0.334 N 
ATOM      2  C   UNL     1     -18.459 -42.603  24.172  1.00  0.00     0.333 C 
ATOM      3  H   UNL     1     -18.577 -43.593  25.979  1.00  0.00     0.348 HD
ENDROOT
BRANCH   1   4
ATOM      4  C   UNL     1     -18.884 -41.650  26.472  1.00  0.00     0.298 C 
BRANCH   4   5
ATOM      5  C   UNL     1     -20.343 -41.915  26.723  1.00  0.00     0.010 A 
ATOM      6  C   UNL     1     -21.299 -40.891  26.621  1.00  0.00     0.010 A 
ATOM      7  C   UNL     1     -20.777 -43.216  27.007  1.00  0.00     0.056 A 
ATOM      8  C   UNL     1     -22.660 -41.174  26.768  1.00  0.00     0.004 A 
ATOM      9  C   UNL     1     -22.140 -43.498  27.083  1.00  0.00     0.133 A 
ATOM     10  C   UNL     1     -23.085 -42.482  26.990  1.00  0.00     0.047 A 
BRANCH   9  11
ATOM     11  O   UNL     1     -22.612 -44.803  27.285  1.00  0.00    -0.410 OA
BRANCH  11  12
ATOM     12  C   UNL     1     -23.213 -45.070  28.512  1.00  0.00     0.412 C 
ATOM     13  N   UNL     1     -24.239 -45.952  28.330  1.00  0.00    -0.324 N 
ATOM     14  O   UNL     1     -22.889 -44.582  29.588  1.00  0.00    -0.224 OA
ATOM     15  C   UNL     1     -25.109 -46.367  29.398  1.00  0.00     0.146 C 
ATOM     16  H   UNL     1     -24.454 -46.213  27.377  1.00  0.00     0.166 HD
ENDBRANCH  11  12
ENDBRANCH   9  11
ENDBRANCH   4   5
ENDBRANCH   1   4
BRANCH   1  17
ATOM     17  C   UNL     1     -16.692 -42.787  25.957  1.00  0.00     0.265 C 
BRANCH  17  18
ATOM     18  C   UNL     1     -15.838 -43.143  24.739  1.00  0.00     0.103 C 
BRANCH  18  19
ATOM     19  C   UNL     1     -14.554 -43.920  25.028  1.00  0.00     0.235 C 
BRANCH  19  20
ATOM     20  O   UNL     1     -13.743 -43.159  25.922  1.00  0.00    -0.493 OA
BRANCH  20  21
ATOM     21  C   UNL     1     -13.180 -43.823  26.977  1.00  0.00     0.123 A 
ATOM     22  C   UNL     1     -13.712 -44.942  27.621  1.00  0.00     0.047 A 
ATOM     23  C   UNL     1     -11.965 -43.288  27.418  1.00  0.00     0.094 A 
ATOM     24  C   UNL     1     -13.034 -45.517  28.700  1.00  0.00     0.020 A 
ATOM     25  C   UNL     1     -11.286 -43.859  28.497  1.00  0.00     0.144 A 
ATOM     26  C   UNL     1     -11.823 -44.971  29.133  1.00  0.00     0.066 A 
ATOM     27  O   UNL     1     -10.107 -43.264  28.864  1.00  0.00    -0.437 OA
ATOM     28  C   UNL     1     -11.091 -45.552  30.265  1.00  0.00     0.202 A 
ATOM     29  C   UNL     1      -9.400 -43.802  29.915  1.00  0.00     0.230 A 
ATOM     30  C   UNL     1      -9.825 -44.911  30.630  1.00  0.00     0.085 A 
ATOM     31  N   UNL     1      -8.250 -43.146  30.193  1.00  0.00    -0.221 NA
ATOM     32  C   UNL     1      -9.041 -45.385  31.682  1.00  0.00     0.019 A 
ATOM     33  C   UNL     1      -7.503 -43.624  31.216  1.00  0.00     0.115 A 
ATOM     34  C   UNL     1      -7.853 -44.727  31.980  1.00  0.00     0.021 A 
ATOM     35  O   UNL     1     -11.524 -46.520  30.874  1.00  0.00    -0.288 OA
ENDBRANCH  20  21
ENDBRANCH  19  20
ENDBRANCH  18  19
ENDBRANCH  17  18
ENDBRANCH   1  17
TORSDOF 9
ENDMDL
