MODEL 1
REMARK VINA RESULT:    -6.079      0.000      0.000
REMARK INTER + INTRA:          -6.079
REMARK INTER:                  -6.079
REMARK INTRA:                   0.000
REMARK UNBOUND:                 0.000
REMARK SMILES Cc1cccc(F)c1
REMARK SMILES IDX 1 1 2 2 3 3 4 4 5 5 6 6 7 7 8 8
REMARK H PARENT
ROOT
ATOM      1  C   UNL     1     -12.681 -46.513  27.003  1.00  0.00     0.044 C 
ATOM      2  C   UNL     1     -11.994 -46.398  28.331  1.00  0.00    -0.048 A 
ATOM      3  C   UNL     1     -10.597 -46.473  28.420  1.00  0.00     0.003 A 
ATOM      4  C   UNL     1      -9.953 -46.336  29.653  1.00  0.00     0.003 A 
ATOM      5  C   UNL     1     -10.700 -46.112  30.807  1.00  0.00     0.039 A 
ATOM      6  C   UNL     1     -12.084 -46.024  30.717  1.00  0.00     0.123 A 
ATOM      7  F   UNL     1     -12.803 -45.800  31.825  1.00  0.00    -0.207 F 
ATOM      8  C   UNL     1     -12.736 -46.159  29.495  1.00  0.00     0.042 A 
ENDROOT
TORSDOF 0
ENDMDL
MODEL 2
REMARK VINA RESULT:    -5.981      1.691      2.399
REMARK INTER + INTRA:          -5.981
REMARK INTER:                  -5.981
REMARK INTRA:                   0.000
REMARK UNBOUND:                 0.000
REMARK SMILES Cc1cccc(F)c1
REMARK SMILES IDX 1 1 2 2 3 3 4 4 5 5 6 6 7 7 8 8
REMARK H PARENT
ROOT
ATOM      1  C   UNL     1     -12.373 -46.522  27.287  1.00  0.00     0.044 C 
ATOM      2  C   UNL     1     -11.752 -46.369  28.644  1.00  0.00    -0.048 A 
ATOM      3  C   UNL     1     -12.552 -46.130  29.771  1.00  0.00     0.003 A 
ATOM      4  C   UNL     1     -11.979 -46.017  31.040  1.00  0.00     0.003 A 
ATOM      5  C   UNL     1     -10.601 -46.154  31.196  1.00  0.00     0.039 A 
ATOM      6  C   UNL     1      -9.810 -46.406  30.082  1.00  0.00     0.123 A 
ATOM      7  F   UNL     1      -8.486 -46.547  30.232  1.00  0.00    -0.207 F 
ATOM      8  C   UNL     1     -10.370 -46.520  28.813  1.00  0.00     0.042 A 
ENDROOT
TORSDOF 0
ENDMDL
MODEL 3
REMARK VINA RESULT:    -5.896      1.890      2.987
REMARK INTER + INTRA:          -5.896
REMARK INTER:                  -5.896
REMARK INTRA:                   0.000
REMARK UNBOUND:                 0.000
REMARK SMILES Cc1cccc(F)c1
REMARK SMILES IDX 1 1 2 2 3 3 4 4 5 5 6 6 7 7 8 8
REMARK H PARENT
ROOT
ATOM      1  C   UNL     1     -13.388 -45.813  31.599  1.00  0.00     0.044 C 
ATOM      2  C   UNL     1     -12.452 -46.016  30.445  1.00  0.00    -0.048 A 
ATOM      3  C   UNL     1     -11.067 -46.087  30.654  1.00  0.00     0.003 A 
ATOM      4  C   UNL     1     -10.195 -46.306  29.584  1.00  0.00     0.003 A 
ATOM      5  C   UNL     1     -10.701 -46.467  28.296  1.00  0.00     0.039 A 
ATOM      6  C   UNL     1     -12.074 -46.412  28.091  1.00  0.00     0.123 A 
ATOM      7  F   UNL     1     -12.563 -46.575  26.854  1.00  0.00    -0.207 F 
ATOM      8  C   UNL     1     -12.952 -46.194  29.149  1.00  0.00     0.042 A 
ENDROOT
TORSDOF 0
ENDMDL
MODEL 4
REMARK VINA RESULT:    -5.722      1.056      2.717
REMARK INTER + INTRA:          -5.722
REMARK INTER:                  -5.722
REMARK INTRA:                   0.000
REMARK UNBOUND:                 0.000
REMARK SMILES Cc1cccc(F)c1
REMARK SMILES IDX 1 1 2 2 3 3 4 4 5 5 6 6 7 7 8 8
REMARK H PARENT
ROOT
ATOM      1  C   UNL     1      -9.438 -46.186  31.388  1.00  0.00     0.044 C 
ATOM      2  C   UNL     1     -10.499 -46.133  30.329  1.00  0.00    -0.048 A 
ATOM      3  C   UNL     1     -10.196 -46.457  28.999  1.00  0.00     0.003 A 
ATOM      4  C   UNL     1     -11.190 -46.437  28.017  1.00  0.00     0.003 A 
ATOM      5  C   UNL     1     -12.499 -46.103  28.358  1.00  0.00     0.039 A 
ATOM      6  C   UNL     1     -12.802 -45.796  29.679  1.00  0.00     0.123 A 
ATOM      7  F   UNL     1     -14.063 -45.483  30.010  1.00  0.00    -0.207 F 
ATOM      8  C   UNL     1     -11.820 -45.812  30.665  1.00  0.00     0.042 A 
ENDROOT
TORSDOF 0
ENDMDL
MODEL 5
REMARK VINA RESULT:    -5.689      2.345      2.771
REMARK INTER + INTRA:          -5.689
REMARK INTER:                  -5.689
REMARK INTRA:                   0.000
REMARK UNBOUND:                 0.000
REMARK SMILES Cc1cccc(F)c1
REMARK SMILES IDX 1 1 2 2 3 3 4 4 5 5 6 6 7 7 8 8
REMARK H PARENT
ROOT
ATOM      1  C   UNL     1     -14.190 -44.621  26.888  1.00  0.00     0.044 C 
ATOM      2  C   UNL     1     -12.872 -44.940  27.527  1.00  0.00    -0.048 A 
ATOM      3  C   UNL     1     -12.417 -46.265  27.600  1.00  0.00     0.003 A 
ATOM      4  C   UNL     1     -11.174 -46.561  28.168  1.00  0.00     0.003 A 
ATOM      5  C   UNL     1     -10.371 -45.534  28.658  1.00  0.00     0.039 A 
ATOM      6  C   UNL     1     -10.815 -44.220  28.572  1.00  0.00     0.123 A 
ATOM      7  F   UNL     1     -10.039 -43.231  29.036  1.00  0.00    -0.207 F 
ATOM      8  C   UNL     1     -12.050 -43.914  28.009  1.00  0.00     0.042 A 
ENDROOT
TORSDOF 0
ENDMDL
MODEL 6
REMARK VINA RESULT:    -5.631      2.668      3.470
REMARK INTER + INTRA:          -5.631
REMARK INTER:                  -5.631
REMARK INTRA:                   0.000
REMARK UNBOUND:                 0.000
REMARK SMILES Cc1cccc(F)c1
REMARK SMILES IDX 1 1 2 2 3 3 4 4 5 5 6 6 7 7 8 8
REMARK H PARENT
ROOT
ATOM      1  C   UNL     1     -10.429 -42.913  28.960  1.00  0.00     0.044 C 
ATOM      2  C   UNL     1     -11.153 -44.113  28.425  1.00  0.00    -0.048 A 
ATOM      3  C   UNL     1     -10.598 -45.394  28.549  1.00  0.00     0.003 A 
ATOM      4  C   UNL     1     -11.284 -46.517  28.078  1.00  0.00     0.003 A 
ATOM      5  C   UNL     1     -12.538 -46.369  27.489  1.00  0.00     0.039 A 
ATOM      6  C   UNL     1     -13.095 -45.101  27.380  1.00  0.00     0.123 A 
ATOM      7  F   UNL     1     -14.305 -44.958  26.821  1.00  0.00    -0.207 F 
ATOM      8  C   UNL     1     -12.420 -43.976  27.845  1.00  0.00     0.042 A 
ENDROOT
TORSDOF 0
ENDMDL
MODEL 7
REMARK VINA RESULT:    -5.583      1.683      3.031
REMARK INTER + INTRA:          -5.583
REMARK INTER:                  -5.583
REMARK INTRA:                   0.000
REMARK UNBOUND:                 0.000
REMARK SMILES Cc1cccc(F)c1
REMARK SMILES IDX 1 1 2 2 3 3 4 4 5 5 6 6 7 7 8 8
REMARK H PARENT
ROOT
ATOM      1  C   UNL     1     -13.370 -45.458  31.525  1.00  0.00     0.044 C 
ATOM      2  C   UNL     1     -12.411 -45.850  30.441  1.00  0.00    -0.048 A 
ATOM      3  C   UNL     1     -12.833 -45.919  29.106  1.00  0.00     0.003 A 
ATOM      4  C   UNL     1     -11.933 -46.255  28.090  1.00  0.00     0.003 A 
ATOM      5  C   UNL     1     -10.599 -46.515  28.400  1.00  0.00     0.039 A 
ATOM      6  C   UNL     1     -10.178 -46.432  29.722  1.00  0.00     0.123 A 
ATOM      7  F   UNL     1      -8.894 -46.673  30.020  1.00  0.00    -0.207 F 
ATOM      8  C   UNL     1     -11.065 -46.099  30.741  1.00  0.00     0.042 A 
ENDROOT
TORSDOF 0
ENDMDL
MODEL 8
REMARK VINA RESULT:    -5.576      3.412      4.428
REMARK INTER + INTRA:          -5.576
REMARK INTER:                  -5.576
REMARK INTRA:                   0.000
REMARK UNBOUND:                 0.000
REMARK SMILES Cc1cccc(F)c1
REMARK SMILES IDX 1 1 2 2 3 3 4 4 5 5 6 6 7 7 8 8
REMARK H PARENT
ROOT
ATOM      1  C   UNL     1     -11.301 -43.464  32.253  1.00  0.00     0.044 C 
ATOM      2  C   UNL     1     -10.287 -44.523  31.936  1.00  0.00    -0.048 A 
ATOM      3  C   UNL     1     -10.680 -45.733  31.348  1.00  0.00     0.003 A 
ATOM      4  C   UNL     1      -9.732 -46.709  31.024  1.00  0.00     0.003 A 
ATOM      5  C   UNL     1      -8.382 -46.477  31.277  1.00  0.00     0.039 A 
ATOM      6  C   UNL     1      -7.991 -45.272  31.847  1.00  0.00     0.123 A 
ATOM      7  F   UNL     1      -6.691 -45.045  32.083  1.00  0.00    -0.207 F 
ATOM      8  C   UNL     1      -8.926 -44.294  32.173  1.00  0.00     0.042 A 
ENDROOT
TORSDOF 0
ENDMDL
MODEL 9
REMARK VINA RESULT:    -5.555      2.086      2.810
REMARK INTER + INTRA:          -5.555
REMARK INTER:                  -5.555
REMARK INTRA:                   0.000
REMARK UNBOUND:                 0.000
REMARK SMILES Cc1cccc(F)c1
REMARK SMILES IDX 1 1 2 2 3 3 4 4 5 5 6 6 7 7 8 8
REMARK H PARENT
ROOT
ATOM      1  C   UNL     1     -14.223 -44.616  26.824  1.00  0.00     0.044 C 
ATOM      2  C   UNL     1     -13.347 -45.152  27.916  1.00  0.00    -0.048 A 
ATOM      3  C   UNL     1     -13.737 -45.046  29.259  1.00  0.00     0.003 A 
ATOM      4  C   UNL     1     -12.937 -45.572  30.277  1.00  0.00     0.003 A 
ATOM      5  C   UNL     1     -11.744 -46.219  29.960  1.00  0.00     0.039 A 
ATOM      6  C   UNL     1     -11.365 -46.337  28.629  1.00  0.00     0.123 A 
ATOM      7  F   UNL     1     -10.222 -46.966  28.323  1.00  0.00    -0.207 F 
ATOM      8  C   UNL     1     -12.154 -45.817  27.607  1.00  0.00     0.042 A 
ENDROOT
TORSDOF 0
ENDMDL
