MODEL 1
REMARK VINA RESULT:    -9.667      0.000      0.000
REMARK INTER + INTRA:         -15.173
REMARK INTER:                 -14.471
REMARK INTRA:                  -0.702
REMARK UNBOUND:                -0.702
REMARK SMILES C=CC[n+]1ccc(CCC(O)=C2Cc3cc(OC)c(OC)cc3S2)cc1
REMARK SMILES IDX 9 1 10 2 11 3 12 5 13 6 24 7 14 8 23 9 15 10 22 11 16 12
REMARK SMILES IDX 19 13 17 14 18 15 20 16 21 17 8 18 7 19 6 20 25 21 5 22
REMARK SMILES IDX 26 23 4 24 3 25 2 26 1 27
REMARK H PARENT 11 4
ROOT
ATOM      1  C   UNL     1     -13.049 -45.430  27.197  1.00  0.00     0.080 C 
ENDROOT
BRANCH   1   2
ATOM      2  C   UNL     1     -13.340 -43.963  26.994  1.00  0.00     0.103 C 
BRANCH   2   3
ATOM      3  O   UNL     1     -12.389 -43.120  27.552  1.00  0.00    -0.511 OA
ATOM      4  H   UNL     1     -12.771 -42.792  28.393  1.00  0.00     0.293 HD
ENDBRANCH   2   3
BRANCH   2   5
ATOM      5  C   UNL     1     -14.431 -43.475  26.372  1.00  0.00     0.032 C 
ATOM      6  C   UNL     1     -15.738 -43.096  27.041  1.00  0.00     0.083 C 
ATOM      7  S   UNL     1     -14.464 -43.262  24.624  1.00  0.00    -0.090 SA
ATOM      8  C   UNL     1     -16.700 -42.714  25.951  1.00  0.00    -0.025 A 
ATOM      9  C   UNL     1     -16.165 -42.752  24.663  1.00  0.00     0.020 A 
ATOM     10  C   UNL     1     -18.025 -42.336  26.154  1.00  0.00     0.055 A 
ATOM     11  C   UNL     1     -16.933 -42.420  23.555  1.00  0.00     0.066 A 
ATOM     12  C   UNL     1     -18.816 -41.998  25.048  1.00  0.00     0.161 A 
ATOM     13  C   UNL     1     -18.267 -42.040  23.742  1.00  0.00     0.161 A 
BRANCH  12  14
ATOM     14  O   UNL     1     -20.133 -41.619  25.129  1.00  0.00    -0.493 OA
ATOM     15  C   UNL     1     -20.623 -41.176  26.386  1.00  0.00     0.278 C 
ENDBRANCH  12  14
BRANCH  13  16
ATOM     16  O   UNL     1     -19.122 -41.696  22.723  1.00  0.00    -0.493 OA
ATOM     17  C   UNL     1     -18.825 -40.525  21.975  1.00  0.00     0.278 C 
ENDBRANCH  13  16
ENDBRANCH   2   5
ENDBRANCH   1   2
BRANCH   1  18
ATOM     18  C   UNL     1     -13.205 -45.888  28.655  1.00  0.00     0.044 C 
BRANCH  18  19
ATOM     19  C   UNL     1     -11.894 -46.092  29.379  1.00  0.00    -0.036 A 
ATOM     20  C   UNL     1     -10.721 -46.346  28.668  1.00  0.00     0.074 A 
ATOM     21  C   UNL     1     -11.821 -45.979  30.768  1.00  0.00     0.074 A 
ATOM     22  C   UNL     1      -9.516 -46.469  29.349  1.00  0.00     0.308 A 
ATOM     23  C   UNL     1     -10.593 -46.109  31.406  1.00  0.00     0.308 A 
ATOM     24  N   UNL     1      -9.468 -46.352  30.696  1.00  0.00    -0.201 N 
BRANCH  24  25
ATOM     25  C   UNL     1      -8.168 -46.482  31.391  1.00  0.00     0.385 C 
BRANCH  25  26
ATOM     26  C   UNL     1      -7.420 -45.187  31.312  1.00  0.00     0.037 C 
ATOM     27  C   UNL     1      -7.823 -44.038  31.873  1.00  0.00     0.011 C 
ENDBRANCH  25  26
ENDBRANCH  24  25
ENDBRANCH  18  19
ENDBRANCH   1  18
TORSDOF 9
ENDMDL
MODEL 2
REMARK VINA RESULT:    -9.346      0.808      2.006
REMARK INTER + INTRA:         -14.692
REMARK INTER:                 -13.980
REMARK INTRA:                  -0.712
REMARK UNBOUND:                -0.702
REMARK SMILES C=CC[n+]1ccc(CCC(O)=C2Cc3cc(OC)c(OC)cc3S2)cc1
REMARK SMILES IDX 9 1 10 2 11 3 12 5 13 6 24 7 14 8 23 9 15 10 22 11 16 12
REMARK SMILES IDX 19 13 17 14 18 15 20 16 21 17 8 18 7 19 6 20 25 21 5 22
REMARK SMILES IDX 26 23 4 24 3 25 2 26 1 27
REMARK H PARENT 11 4
ROOT
ATOM      1  C   UNL     1     -13.312 -45.218  27.225  1.00  0.00     0.080 C 
ENDROOT
BRANCH   1   2
ATOM      2  C   UNL     1     -13.704 -43.799  26.892  1.00  0.00     0.103 C 
BRANCH   2   3
ATOM      3  O   UNL     1     -12.727 -42.861  27.198  1.00  0.00    -0.511 OA
ATOM      4  H   UNL     1     -12.277 -43.185  28.006  1.00  0.00     0.293 HD
ENDBRANCH   2   3
BRANCH   2   5
ATOM      5  C   UNL     1     -14.896 -43.431  26.383  1.00  0.00     0.032 C 
ATOM      6  C   UNL     1     -15.252 -43.373  24.910  1.00  0.00     0.083 C 
ATOM      7  S   UNL     1     -16.211 -42.910  27.431  1.00  0.00    -0.090 SA
ATOM      8  C   UNL     1     -16.639 -42.802  24.811  1.00  0.00    -0.025 A 
ATOM      9  C   UNL     1     -17.244 -42.527  26.037  1.00  0.00     0.020 A 
ATOM     10  C   UNL     1     -17.316 -42.555  23.619  1.00  0.00     0.055 A 
ATOM     11  C   UNL     1     -18.527 -42.001  26.104  1.00  0.00     0.066 A 
ATOM     12  C   UNL     1     -18.611 -42.024  23.665  1.00  0.00     0.161 A 
ATOM     13  C   UNL     1     -19.219 -41.746  24.915  1.00  0.00     0.161 A 
BRANCH  12  14
ATOM     14  O   UNL     1     -19.367 -41.735  22.556  1.00  0.00    -0.493 OA
ATOM     15  C   UNL     1     -18.934 -40.678  21.713  1.00  0.00     0.278 C 
ENDBRANCH  12  14
BRANCH  13  16
ATOM     16  O   UNL     1     -20.488 -41.222  24.858  1.00  0.00    -0.493 OA
ATOM     17  C   UNL     1     -21.353 -41.459  25.959  1.00  0.00     0.278 C 
ENDBRANCH  13  16
ENDBRANCH   2   5
ENDBRANCH   1   2
BRANCH   1  18
ATOM     18  C   UNL     1     -13.434 -45.551  28.720  1.00  0.00     0.044 C 
BRANCH  18  19
ATOM     19  C   UNL     1     -12.120 -45.888  29.385  1.00  0.00    -0.036 A 
ATOM     20  C   UNL     1     -10.985 -46.158  28.620  1.00  0.00     0.074 A 
ATOM     21  C   UNL     1     -12.002 -45.884  30.775  1.00  0.00     0.074 A 
ATOM     22  C   UNL     1      -9.772 -46.405  29.251  1.00  0.00     0.308 A 
ATOM     23  C   UNL     1     -10.767 -46.136  31.363  1.00  0.00     0.308 A 
ATOM     24  N   UNL     1      -9.680 -46.392  30.602  1.00  0.00    -0.201 N 
BRANCH  24  25
ATOM     25  C   UNL     1      -8.372 -46.654  31.243  1.00  0.00     0.385 C 
BRANCH  25  26
ATOM     26  C   UNL     1      -7.527 -45.418  31.189  1.00  0.00     0.037 C 
ATOM     27  C   UNL     1      -7.578 -44.418  32.080  1.00  0.00     0.011 C 
ENDBRANCH  25  26
ENDBRANCH  24  25
ENDBRANCH  18  19
ENDBRANCH   1  18
TORSDOF 9
ENDMDL
MODEL 3
REMARK VINA RESULT:    -9.315      1.666      2.393
REMARK INTER + INTRA:         -14.645
REMARK INTER:                 -14.049
REMARK INTRA:                  -0.596
REMARK UNBOUND:                -0.702
REMARK SMILES C=CC[n+]1ccc(CCC(O)=C2Cc3cc(OC)c(OC)cc3S2)cc1
REMARK SMILES IDX 9 1 10 2 11 3 12 5 13 6 24 7 14 8 23 9 15 10 22 11 16 12
REMARK SMILES IDX 19 13 17 14 18 15 20 16 21 17 8 18 7 19 6 20 25 21 5 22
REMARK SMILES IDX 26 23 4 24 3 25 2 26 1 27
REMARK H PARENT 11 4
ROOT
ATOM      1  C   UNL     1     -14.633 -43.902  26.620  1.00  0.00     0.080 C 
ENDROOT
BRANCH   1   2
ATOM      2  C   UNL     1     -15.098 -43.429  25.264  1.00  0.00     0.103 C 
BRANCH   2   3
ATOM      3  O   UNL     1     -14.149 -43.577  24.262  1.00  0.00    -0.511 OA
ATOM      4  H   UNL     1     -14.037 -42.693  23.856  1.00  0.00     0.293 HD
ENDBRANCH   2   3
BRANCH   2   5
ATOM      5  C   UNL     1     -16.299 -42.871  25.016  1.00  0.00     0.032 C 
ATOM      6  C   UNL     1     -17.334 -42.494  26.058  1.00  0.00     0.083 C 
ATOM      7  S   UNL     1     -16.832 -42.551  23.368  1.00  0.00    -0.090 SA
ATOM      8  C   UNL     1     -18.553 -42.016  25.321  1.00  0.00    -0.025 A 
ATOM      9  C   UNL     1     -18.421 -41.992  23.932  1.00  0.00     0.020 A 
ATOM     10  C   UNL     1     -19.742 -41.610  25.923  1.00  0.00     0.055 A 
ATOM     11  C   UNL     1     -19.463 -41.569  23.118  1.00  0.00     0.066 A 
ATOM     12  C   UNL     1     -20.805 -41.181  25.119  1.00  0.00     0.161 A 
ATOM     13  C   UNL     1     -20.664 -41.160  23.709  1.00  0.00     0.161 A 
BRANCH  12  14
ATOM     14  O   UNL     1     -22.021 -40.767  25.603  1.00  0.00    -0.493 OA
ATOM     15  C   UNL     1     -22.206 -40.748  27.010  1.00  0.00     0.278 C 
ENDBRANCH  12  14
BRANCH  13  16
ATOM     16  O   UNL     1     -21.762 -40.728  23.005  1.00  0.00    -0.493 OA
ATOM     17  C   UNL     1     -21.589 -40.416  21.630  1.00  0.00     0.278 C 
ENDBRANCH  13  16
ENDBRANCH   2   5
ENDBRANCH   1   2
BRANCH   1  18
ATOM     18  C   UNL     1     -13.820 -45.204  26.568  1.00  0.00     0.044 C 
BRANCH  18  19
ATOM     19  C   UNL     1     -13.056 -45.504  27.837  1.00  0.00    -0.036 A 
ATOM     20  C   UNL     1     -11.868 -46.232  27.796  1.00  0.00     0.074 A 
ATOM     21  C   UNL     1     -13.496 -45.014  29.067  1.00  0.00     0.074 A 
ATOM     22  C   UNL     1     -11.149 -46.445  28.966  1.00  0.00     0.308 A 
ATOM     23  C   UNL     1     -12.744 -45.251  30.212  1.00  0.00     0.308 A 
ATOM     24  N   UNL     1     -11.593 -45.957  30.148  1.00  0.00    -0.201 N 
BRANCH  24  25
ATOM     25  C   UNL     1     -10.802 -46.196  31.376  1.00  0.00     0.385 C 
BRANCH  25  26
ATOM     26  C   UNL     1      -9.413 -46.618  31.007  1.00  0.00     0.037 C 
ATOM     27  C   UNL     1      -8.293 -46.025  31.444  1.00  0.00     0.011 C 
ENDBRANCH  25  26
ENDBRANCH  24  25
ENDBRANCH  18  19
ENDBRANCH   1  18
TORSDOF 9
ENDMDL
MODEL 4
REMARK VINA RESULT:    -8.835      2.182      3.922
REMARK INTER + INTRA:         -13.928
REMARK INTER:                 -13.361
REMARK INTRA:                  -0.567
REMARK UNBOUND:                -0.702
REMARK SMILES C=CC[n+]1ccc(CCC(O)=C2Cc3cc(OC)c(OC)cc3S2)cc1
REMARK SMILES IDX 9 1 10 2 11 3 12 5 13 6 24 7 14 8 23 9 15 10 22 11 16 12
REMARK SMILES IDX 19 13 17 14 18 15 20 16 21 17 8 18 7 19 6 20 25 21 5 22
REMARK SMILES IDX 26 23 4 24 3 25 2 26 1 27
REMARK H PARENT 11 4
ROOT
ATOM      1  C   UNL     1     -15.194 -43.458  25.917  1.00  0.00     0.080 C 
ENDROOT
BRANCH   1   2
ATOM      2  C   UNL     1     -15.565 -43.351  24.457  1.00  0.00     0.103 C 
BRANCH   2   3
ATOM      3  O   UNL     1     -14.658 -43.960  23.601  1.00  0.00    -0.511 OA
ATOM      4  H   UNL     1     -15.083 -43.979  22.718  1.00  0.00     0.293 HD
ENDBRANCH   2   3
BRANCH   2   5
ATOM      5  C   UNL     1     -16.645 -42.697  23.986  1.00  0.00     0.032 C 
ATOM      6  C   UNL     1     -16.685 -41.831  22.742  1.00  0.00     0.083 C 
ATOM      7  S   UNL     1     -18.185 -42.750  24.839  1.00  0.00    -0.090 SA
ATOM      8  C   UNL     1     -18.055 -41.218  22.672  1.00  0.00    -0.025 A 
ATOM      9  C   UNL     1     -18.924 -41.615  23.689  1.00  0.00     0.020 A 
ATOM     10  C   UNL     1     -18.480 -40.326  21.689  1.00  0.00     0.055 A 
ATOM     11  C   UNL     1     -20.224 -41.134  23.752  1.00  0.00     0.066 A 
ATOM     12  C   UNL     1     -19.789 -39.830  21.736  1.00  0.00     0.161 A 
ATOM     13  C   UNL     1     -20.666 -40.237  22.773  1.00  0.00     0.161 A 
BRANCH  12  14
ATOM     14  O   UNL     1     -20.312 -38.944  20.827  1.00  0.00    -0.493 OA
ATOM     15  C   UNL     1     -20.619 -39.426  19.528  1.00  0.00     0.278 C 
ENDBRANCH  12  14
BRANCH  13  16
ATOM     16  O   UNL     1     -21.927 -39.693  22.738  1.00  0.00    -0.493 OA
ATOM     17  C   UNL     1     -23.023 -40.536  23.061  1.00  0.00     0.278 C 
ENDBRANCH  13  16
ENDBRANCH   2   5
ENDBRANCH   1   2
BRANCH   1  18
ATOM     18  C   UNL     1     -13.804 -42.886  26.237  1.00  0.00     0.044 C 
BRANCH  18  19
ATOM     19  C   UNL     1     -12.964 -43.773  27.126  1.00  0.00    -0.036 A 
ATOM     20  C   UNL     1     -13.329 -45.099  27.357  1.00  0.00     0.074 A 
ATOM     21  C   UNL     1     -11.780 -43.300  27.692  1.00  0.00     0.074 A 
ATOM     22  C   UNL     1     -12.511 -45.915  28.128  1.00  0.00     0.308 A 
ATOM     23  C   UNL     1     -10.992 -44.153  28.456  1.00  0.00     0.308 A 
ATOM     24  N   UNL     1     -11.364 -45.436  28.664  1.00  0.00    -0.201 N 
BRANCH  24  25
ATOM     25  C   UNL     1     -10.511 -46.332  29.476  1.00  0.00     0.385 C 
BRANCH  25  26
ATOM     26  C   UNL     1     -10.873 -46.199  30.923  1.00  0.00     0.037 C 
ATOM     27  C   UNL     1     -10.382 -45.266  31.751  1.00  0.00     0.011 C 
ENDBRANCH  25  26
ENDBRANCH  24  25
ENDBRANCH  18  19
ENDBRANCH   1  18
TORSDOF 9
ENDMDL
MODEL 5
REMARK VINA RESULT:    -8.521      1.987      2.681
REMARK INTER + INTRA:         -13.458
REMARK INTER:                 -12.709
REMARK INTRA:                  -0.749
REMARK UNBOUND:                -0.702
REMARK SMILES C=CC[n+]1ccc(CCC(O)=C2Cc3cc(OC)c(OC)cc3S2)cc1
REMARK SMILES IDX 9 1 10 2 11 3 12 5 13 6 24 7 14 8 23 9 15 10 22 11 16 12
REMARK SMILES IDX 19 13 17 14 18 15 20 16 21 17 8 18 7 19 6 20 25 21 5 22
REMARK SMILES IDX 26 23 4 24 3 25 2 26 1 27
REMARK H PARENT 11 4
ROOT
ATOM      1  C   UNL     1     -14.078 -43.828  26.449  1.00  0.00     0.080 C 
ENDROOT
BRANCH   1   2
ATOM      2  C   UNL     1     -15.295 -43.471  27.267  1.00  0.00     0.103 C 
BRANCH   2   3
ATOM      3  O   UNL     1     -15.185 -43.801  28.611  1.00  0.00    -0.511 OA
ATOM      4  H   UNL     1     -14.324 -43.443  28.913  1.00  0.00     0.293 HD
ENDBRANCH   2   3
BRANCH   2   5
ATOM      5  C   UNL     1     -16.420 -42.921  26.770  1.00  0.00     0.032 C 
ATOM      6  C   UNL     1     -17.608 -42.441  27.583  1.00  0.00     0.083 C 
ATOM      7  S   UNL     1     -16.654 -42.738  25.034  1.00  0.00    -0.090 SA
ATOM      8  C   UNL     1     -18.669 -42.014  26.608  1.00  0.00    -0.025 A 
ATOM      9  C   UNL     1     -18.301 -42.112  25.266  1.00  0.00     0.020 A 
ATOM     10  C   UNL     1     -19.931 -41.542  26.961  1.00  0.00     0.055 A 
ATOM     11  C   UNL     1     -19.175 -41.748  24.252  1.00  0.00     0.066 A 
ATOM     12  C   UNL     1     -20.828 -41.170  25.951  1.00  0.00     0.161 A 
ATOM     13  C   UNL     1     -20.448 -41.274  24.590  1.00  0.00     0.161 A 
BRANCH  12  14
ATOM     14  O   UNL     1     -22.098 -40.700  26.182  1.00  0.00    -0.493 OA
ATOM     15  C   UNL     1     -23.020 -41.564  26.829  1.00  0.00     0.278 C 
ENDBRANCH  12  14
BRANCH  13  16
ATOM     16  O   UNL     1     -21.397 -40.891  23.674  1.00  0.00    -0.493 OA
ATOM     17  C   UNL     1     -21.977 -41.898  22.857  1.00  0.00     0.278 C 
ENDBRANCH  13  16
ENDBRANCH   2   5
ENDBRANCH   1   2
BRANCH   1  18
ATOM     18  C   UNL     1     -12.917 -42.836  26.615  1.00  0.00     0.044 C 
BRANCH  18  19
ATOM     19  C   UNL     1     -11.846 -43.298  27.576  1.00  0.00    -0.036 A 
ATOM     20  C   UNL     1     -10.860 -42.416  28.019  1.00  0.00     0.074 A 
ATOM     21  C   UNL     1     -11.851 -44.599  28.079  1.00  0.00     0.074 A 
ATOM     22  C   UNL     1      -9.920 -42.843  28.949  1.00  0.00     0.308 A 
ATOM     23  C   UNL     1     -10.891 -44.982  29.009  1.00  0.00     0.308 A 
ATOM     24  N   UNL     1      -9.947 -44.109  29.427  1.00  0.00    -0.201 N 
BRANCH  24  25
ATOM     25  C   UNL     1      -8.936 -44.532  30.421  1.00  0.00     0.385 C 
BRANCH  25  26
ATOM     26  C   UNL     1      -9.550 -44.554  31.787  1.00  0.00     0.037 C 
ATOM     27  C   UNL     1      -9.526 -43.530  32.651  1.00  0.00     0.011 C 
ENDBRANCH  25  26
ENDBRANCH  24  25
ENDBRANCH  18  19
ENDBRANCH   1  18
TORSDOF 9
ENDMDL
MODEL 6
REMARK VINA RESULT:    -8.459      2.194      3.848
REMARK INTER + INTRA:         -13.365
REMARK INTER:                 -12.775
REMARK INTRA:                  -0.590
REMARK UNBOUND:                -0.702
REMARK SMILES C=CC[n+]1ccc(CCC(O)=C2Cc3cc(OC)c(OC)cc3S2)cc1
REMARK SMILES IDX 9 1 10 2 11 3 12 5 13 6 24 7 14 8 23 9 15 10 22 11 16 12
REMARK SMILES IDX 19 13 17 14 18 15 20 16 21 17 8 18 7 19 6 20 25 21 5 22
REMARK SMILES IDX 26 23 4 24 3 25 2 26 1 27
REMARK H PARENT 11 4
ROOT
ATOM      1  C   UNL     1     -14.015 -42.978  25.411  1.00  0.00     0.080 C 
ENDROOT
BRANCH   1   2
ATOM      2  C   UNL     1     -15.096 -42.359  24.559  1.00  0.00     0.103 C 
BRANCH   2   3
ATOM      3  O   UNL     1     -14.612 -41.613  23.492  1.00  0.00    -0.511 OA
ATOM      4  H   UNL     1     -15.220 -41.779  22.742  1.00  0.00     0.293 HD
ENDBRANCH   2   3
BRANCH   2   5
ATOM      5  C   UNL     1     -16.417 -42.462  24.801  1.00  0.00     0.032 C 
ATOM      6  C   UNL     1     -17.510 -42.521  23.750  1.00  0.00     0.083 C 
ATOM      7  S   UNL     1     -17.042 -42.493  26.447  1.00  0.00    -0.090 SA
ATOM      8  C   UNL     1     -18.825 -42.516  24.477  1.00  0.00    -0.025 A 
ATOM      9  C   UNL     1     -18.722 -42.509  25.868  1.00  0.00     0.020 A 
ATOM     10  C   UNL     1     -20.075 -42.526  23.862  1.00  0.00     0.055 A 
ATOM     11  C   UNL     1     -19.852 -42.508  26.673  1.00  0.00     0.066 A 
ATOM     12  C   UNL     1     -21.228 -42.525  24.658  1.00  0.00     0.161 A 
ATOM     13  C   UNL     1     -21.116 -42.516  26.070  1.00  0.00     0.161 A 
BRANCH  12  14
ATOM     14  O   UNL     1     -22.508 -42.527  24.161  1.00  0.00    -0.493 OA
ATOM     15  C   UNL     1     -22.925 -41.411  23.390  1.00  0.00     0.278 C 
ENDBRANCH  12  14
BRANCH  13  16
ATOM     16  O   UNL     1     -22.302 -42.511  26.764  1.00  0.00    -0.493 OA
ATOM     17  C   UNL     1     -22.715 -43.723  27.380  1.00  0.00     0.278 C 
ENDBRANCH  13  16
ENDBRANCH   2   5
ENDBRANCH   1   2
BRANCH   1  18
ATOM     18  C   UNL     1     -14.267 -44.457  25.739  1.00  0.00     0.044 C 
BRANCH  18  19
ATOM     19  C   UNL     1     -13.774 -44.877  27.105  1.00  0.00    -0.036 A 
ATOM     20  C   UNL     1     -14.327 -44.326  28.260  1.00  0.00     0.074 A 
ATOM     21  C   UNL     1     -12.794 -45.861  27.238  1.00  0.00     0.074 A 
ATOM     22  C   UNL     1     -13.903 -44.770  29.507  1.00  0.00     0.308 A 
ATOM     23  C   UNL     1     -12.401 -46.275  28.506  1.00  0.00     0.308 A 
ATOM     24  N   UNL     1     -12.953 -45.729  29.612  1.00  0.00    -0.201 N 
BRANCH  24  25
ATOM     25  C   UNL     1     -12.527 -46.184  30.954  1.00  0.00     0.385 C 
BRANCH  25  26
ATOM     26  C   UNL     1     -11.030 -46.205  31.029  1.00  0.00     0.037 C 
ATOM     27  C   UNL     1     -10.288 -45.318  31.705  1.00  0.00     0.011 C 
ENDBRANCH  25  26
ENDBRANCH  24  25
ENDBRANCH  18  19
ENDBRANCH   1  18
TORSDOF 9
ENDMDL
MODEL 7
REMARK VINA RESULT:    -8.388      2.237      3.904
REMARK INTER + INTRA:         -13.259
REMARK INTER:                 -12.594
REMARK INTRA:                  -0.665
REMARK UNBOUND:                -0.702
REMARK SMILES C=CC[n+]1ccc(CCC(O)=C2Cc3cc(OC)c(OC)cc3S2)cc1
REMARK SMILES IDX 9 1 10 2 11 3 12 5 13 6 24 7 14 8 23 9 15 10 22 11 16 12
REMARK SMILES IDX 19 13 17 14 18 15 20 16 21 17 8 18 7 19 6 20 25 21 5 22
REMARK SMILES IDX 26 23 4 24 3 25 2 26 1 27
REMARK H PARENT 11 4
ROOT
ATOM      1  C   UNL     1     -15.333 -43.473  25.896  1.00  0.00     0.080 C 
ENDROOT
BRANCH   1   2
ATOM      2  C   UNL     1     -16.407 -42.800  26.716  1.00  0.00     0.103 C 
BRANCH   2   3
ATOM      3  O   UNL     1     -16.078 -42.650  28.056  1.00  0.00    -0.511 OA
ATOM      4  H   UNL     1     -16.870 -42.274  28.494  1.00  0.00     0.293 HD
ENDBRANCH   2   3
BRANCH   2   5
ATOM      5  C   UNL     1     -17.604 -42.406  26.239  1.00  0.00     0.032 C 
ATOM      6  C   UNL     1     -17.934 -42.140  24.783  1.00  0.00     0.083 C 
ATOM      7  S   UNL     1     -18.960 -42.101  27.320  1.00  0.00    -0.090 SA
ATOM      8  C   UNL     1     -19.341 -41.615  24.735  1.00  0.00    -0.025 A 
ATOM      9  C   UNL     1     -19.981 -41.552  25.973  1.00  0.00     0.020 A 
ATOM     10  C   UNL     1     -20.005 -41.217  23.577  1.00  0.00     0.055 A 
ATOM     11  C   UNL     1     -21.286 -41.092  26.086  1.00  0.00     0.066 A 
ATOM     12  C   UNL     1     -21.322 -40.750  23.670  1.00  0.00     0.161 A 
ATOM     13  C   UNL     1     -21.966 -40.687  24.932  1.00  0.00     0.161 A 
BRANCH  12  14
ATOM     14  O   UNL     1     -22.069 -40.325  22.599  1.00  0.00    -0.493 OA
ATOM     15  C   UNL     1     -21.712 -39.096  21.984  1.00  0.00     0.278 C 
ENDBRANCH  12  14
BRANCH  13  16
ATOM     16  O   UNL     1     -23.255 -40.211  24.922  1.00  0.00    -0.493 OA
ATOM     17  C   UNL     1     -23.665 -39.385  26.003  1.00  0.00     0.278 C 
ENDBRANCH  13  16
ENDBRANCH   2   5
ENDBRANCH   1   2
BRANCH   1  18
ATOM     18  C   UNL     1     -13.925 -42.918  26.161  1.00  0.00     0.044 C 
BRANCH  18  19
ATOM     19  C   UNL     1     -13.063 -43.815  27.020  1.00  0.00    -0.036 A 
ATOM     20  C   UNL     1     -11.930 -43.311  27.658  1.00  0.00     0.074 A 
ATOM     21  C   UNL     1     -13.412 -45.148  27.234  1.00  0.00     0.074 A 
ATOM     22  C   UNL     1     -11.185 -44.136  28.493  1.00  0.00     0.308 A 
ATOM     23  C   UNL     1     -12.638 -45.936  28.079  1.00  0.00     0.308 A 
ATOM     24  N   UNL     1     -11.545 -45.426  28.689  1.00  0.00    -0.201 N 
BRANCH  24  25
ATOM     25  C   UNL     1     -10.735 -46.278  29.589  1.00  0.00     0.385 C 
BRANCH  25  26
ATOM     26  C   UNL     1     -10.725 -45.690  30.967  1.00  0.00     0.037 C 
ATOM     27  C   UNL     1      -9.623 -45.476  31.698  1.00  0.00     0.011 C 
ENDBRANCH  25  26
ENDBRANCH  24  25
ENDBRANCH  18  19
ENDBRANCH   1  18
TORSDOF 9
ENDMDL
MODEL 8
REMARK VINA RESULT:    -8.309      3.519     10.402
REMARK INTER + INTRA:         -13.141
REMARK INTER:                 -12.566
REMARK INTRA:                  -0.574
REMARK UNBOUND:                -0.702
REMARK SMILES C=CC[n+]1ccc(CCC(O)=C2Cc3cc(OC)c(OC)cc3S2)cc1
REMARK SMILES IDX 9 1 10 2 11 3 12 5 13 6 24 7 14 8 23 9 15 10 22 11 16 12
REMARK SMILES IDX 19 13 17 14 18 15 20 16 21 17 8 18 7 19 6 20 25 21 5 22
REMARK SMILES IDX 26 23 4 24 3 25 2 26 1 27
REMARK H PARENT 11 4
ROOT
ATOM      1  C   UNL     1     -15.414 -43.732  25.273  1.00  0.00     0.080 C 
ENDROOT
BRANCH   1   2
ATOM      2  C   UNL     1     -13.963 -43.372  25.488  1.00  0.00     0.103 C 
BRANCH   2   3
ATOM      3  O   UNL     1     -13.379 -42.727  24.407  1.00  0.00    -0.511 OA
ATOM      4  H   UNL     1     -13.439 -41.767  24.593  1.00  0.00     0.293 HD
ENDBRANCH   2   3
BRANCH   2   5
ATOM      5  C   UNL     1     -13.255 -43.669  26.595  1.00  0.00     0.032 C 
ATOM      6  C   UNL     1     -12.225 -42.772  27.256  1.00  0.00     0.083 C 
ATOM      7  S   UNL     1     -13.430 -45.226  27.399  1.00  0.00    -0.090 SA
ATOM      8  C   UNL     1     -11.612 -43.556  28.383  1.00  0.00    -0.025 A 
ATOM      9  C   UNL     1     -12.149 -44.830  28.565  1.00  0.00     0.020 A 
ATOM     10  C   UNL     1     -10.595 -43.093  29.214  1.00  0.00     0.055 A 
ATOM     11  C   UNL     1     -11.687 -45.669  29.570  1.00  0.00     0.066 A 
ATOM     12  C   UNL     1     -10.115 -43.924  30.234  1.00  0.00     0.161 A 
ATOM     13  C   UNL     1     -10.663 -45.219  30.412  1.00  0.00     0.161 A 
BRANCH  12  14
ATOM     14  O   UNL     1      -9.113 -43.576  31.106  1.00  0.00    -0.493 OA
ATOM     15  C   UNL     1      -7.790 -43.485  30.598  1.00  0.00     0.278 C 
ENDBRANCH  12  14
BRANCH  13  16
ATOM     16  O   UNL     1     -10.124 -45.961  31.435  1.00  0.00    -0.493 OA
ATOM     17  C   UNL     1      -9.054 -46.841  31.123  1.00  0.00     0.278 C 
ENDBRANCH  13  16
ENDBRANCH   2   5
ENDBRANCH   1   2
BRANCH   1  18
ATOM     18  C   UNL     1     -16.392 -42.754  25.941  1.00  0.00     0.044 C 
BRANCH  18  19
ATOM     19  C   UNL     1     -17.608 -42.433  25.103  1.00  0.00    -0.036 A 
ATOM     20  C   UNL     1     -18.787 -41.990  25.703  1.00  0.00     0.074 A 
ATOM     21  C   UNL     1     -17.561 -42.522  23.712  1.00  0.00     0.074 A 
ATOM     22  C   UNL     1     -19.874 -41.642  24.911  1.00  0.00     0.308 A 
ATOM     23  C   UNL     1     -18.673 -42.162  22.959  1.00  0.00     0.308 A 
ATOM     24  N   UNL     1     -19.804 -41.733  23.562  1.00  0.00    -0.201 N 
BRANCH  24  25
ATOM     25  C   UNL     1     -20.977 -41.349  22.746  1.00  0.00     0.385 C 
BRANCH  25  26
ATOM     26  C   UNL     1     -21.091 -39.856  22.697  1.00  0.00     0.037 C 
ATOM     27  C   UNL     1     -20.245 -39.046  22.046  1.00  0.00     0.011 C 
ENDBRANCH  25  26
ENDBRANCH  24  25
ENDBRANCH  18  19
ENDBRANCH   1  18
TORSDOF 9
ENDMDL
MODEL 9
REMARK VINA RESULT:    -8.257      3.901     10.332
REMARK INTER + INTRA:         -13.062
REMARK INTER:                 -12.567
REMARK INTRA:                  -0.495
REMARK UNBOUND:                -0.702
REMARK SMILES C=CC[n+]1ccc(CCC(O)=C2Cc3cc(OC)c(OC)cc3S2)cc1
REMARK SMILES IDX 9 1 10 2 11 3 12 5 13 6 24 7 14 8 23 9 15 10 22 11 16 12
REMARK SMILES IDX 19 13 17 14 18 15 20 16 21 17 8 18 7 19 6 20 25 21 5 22
REMARK SMILES IDX 26 23 4 24 3 25 2 26 1 27
REMARK H PARENT 11 4
ROOT
ATOM      1  C   UNL     1     -13.382 -44.337  26.652  1.00  0.00     0.080 C 
ENDROOT
BRANCH   1   2
ATOM      2  C   UNL     1     -12.696 -45.178  27.701  1.00  0.00     0.103 C 
BRANCH   2   3
ATOM      3  O   UNL     1     -12.882 -46.544  27.534  1.00  0.00    -0.511 OA
ATOM      4  H   UNL     1     -12.188 -46.842  26.909  1.00  0.00     0.293 HD
ENDBRANCH   2   3
BRANCH   2   5
ATOM      5  C   UNL     1     -11.995 -44.687  28.742  1.00  0.00     0.032 C 
ATOM      6  C   UNL     1     -10.502 -44.419  28.758  1.00  0.00     0.083 C 
ATOM      7  S   UNL     1     -12.776 -44.334  30.280  1.00  0.00    -0.090 SA
ATOM      8  C   UNL     1     -10.144 -43.989  30.153  1.00  0.00    -0.025 A 
ATOM      9  C   UNL     1     -11.225 -43.899  31.030  1.00  0.00     0.020 A 
ATOM     10  C   UNL     1      -8.856 -43.684  30.587  1.00  0.00     0.055 A 
ATOM     11  C   UNL     1     -11.050 -43.510  32.351  1.00  0.00     0.066 A 
ATOM     12  C   UNL     1      -8.658 -43.289  31.916  1.00  0.00     0.161 A 
ATOM     13  C   UNL     1      -9.761 -43.202  32.803  1.00  0.00     0.161 A 
BRANCH  12  14
ATOM     14  O   UNL     1      -7.435 -42.973  32.454  1.00  0.00    -0.493 OA
ATOM     15  C   UNL     1      -6.624 -44.035  32.933  1.00  0.00     0.278 C 
ENDBRANCH  12  14
BRANCH  13  16
ATOM     16  O   UNL     1      -9.466 -42.812  34.087  1.00  0.00    -0.493 OA
ATOM     17  C   UNL     1     -10.325 -41.865  34.706  1.00  0.00     0.278 C 
ENDBRANCH  13  16
ENDBRANCH   2   5
ENDBRANCH   1   2
BRANCH   1  18
ATOM     18  C   UNL     1     -14.700 -43.712  27.135  1.00  0.00     0.044 C 
BRANCH  18  19
ATOM     19  C   UNL     1     -15.630 -43.299  26.018  1.00  0.00    -0.036 A 
ATOM     20  C   UNL     1     -15.275 -43.502  24.685  1.00  0.00     0.074 A 
ATOM     21  C   UNL     1     -16.884 -42.754  26.298  1.00  0.00     0.074 A 
ATOM     22  C   UNL     1     -16.169 -43.171  23.675  1.00  0.00     0.308 A 
ATOM     23  C   UNL     1     -17.747 -42.438  25.255  1.00  0.00     0.308 A 
ATOM     24  N   UNL     1     -17.382 -42.647  23.970  1.00  0.00    -0.201 N 
BRANCH  24  25
ATOM     25  C   UNL     1     -18.315 -42.310  22.872  1.00  0.00     0.385 C 
BRANCH  25  26
ATOM     26  C   UNL     1     -18.011 -40.938  22.354  1.00  0.00     0.037 C 
ATOM     27  C   UNL     1     -18.751 -40.281  21.450  1.00  0.00     0.011 C 
ENDBRANCH  25  26
ENDBRANCH  24  25
ENDBRANCH  18  19
ENDBRANCH   1  18
TORSDOF 9
ENDMDL
