MODEL 1
REMARK VINA RESULT:   -12.298      0.000      0.000
REMARK INTER + INTRA:         -17.202
REMARK INTER:                 -16.971
REMARK INTRA:                  -0.231
REMARK UNBOUND:                -0.231
REMARK SMILES C=C(O)c1c[n+](Cc2ccccc2C)ccc1C[C@@H]1CCc2cc(OC)ccc2C1=O
REMARK SMILES IDX 4 1 5 2 6 3 15 4 16 5 17 6 2 7 1 8 3 9 18 11 19 12 20 13
REMARK SMILES IDX 30 14 21 15 29 16 22 17 28 18 23 19 27 20 24 21 31 22 25 23
REMARK SMILES IDX 26 24 7 25 8 26 9 27 13 28 10 29 12 30 11 31 14 32
REMARK H PARENT 3 10
ROOT
ATOM      1  C   UNL     1     -11.218 -43.611  28.393  1.00  0.00     0.083 A 
ATOM      2  C   UNL     1     -10.759 -44.166  29.593  1.00  0.00     0.320 A 
ATOM      3  N   UNL     1     -11.362 -45.239  30.152  1.00  0.00    -0.200 N 
ATOM      4  C   UNL     1     -12.426 -45.818  29.552  1.00  0.00     0.308 A 
ATOM      5  C   UNL     1     -12.913 -45.321  28.350  1.00  0.00     0.075 A 
ATOM      6  C   UNL     1     -12.310 -44.209  27.744  1.00  0.00    -0.024 A 
ENDROOT
BRANCH   1   7
ATOM      7  C   UNL     1     -10.480 -42.446  27.887  1.00  0.00     0.121 C 
ATOM      8  C   UNL     1      -9.301 -42.539  27.263  1.00  0.00     0.059 C 
BRANCH   7   9
ATOM      9  O   UNL     1     -11.143 -41.254  28.046  1.00  0.00    -0.508 OA
ATOM     10  H   UNL     1     -11.328 -40.879  27.163  1.00  0.00     0.293 HD
ENDBRANCH   7   9
ENDBRANCH   1   7
BRANCH   6  11
ATOM     11  C   UNL     1     -12.861 -43.740  26.410  1.00  0.00     0.048 C 
BRANCH  11  12
ATOM     12  C   UNL     1     -14.158 -42.910  26.521  1.00  0.00     0.066 C 
ATOM     13  C   UNL     1     -15.143 -43.520  27.523  1.00  0.00     0.017 C 
ATOM     14  C   UNL     1     -14.802 -42.798  25.142  1.00  0.00     0.166 C 
ATOM     15  C   UNL     1     -16.427 -42.699  27.592  1.00  0.00     0.037 C 
ATOM     16  C   UNL     1     -16.271 -42.577  25.067  1.00  0.00     0.021 A 
ATOM     17  C   UNL     1     -17.045 -42.536  26.234  1.00  0.00    -0.033 A 
ATOM     18  C   UNL     1     -16.876 -42.405  23.816  1.00  0.00     0.016 A 
ATOM     19  C   UNL     1     -18.422 -42.292  26.122  1.00  0.00     0.050 A 
ATOM     20  C   UNL     1     -18.252 -42.177  23.720  1.00  0.00     0.047 A 
ATOM     21  C   UNL     1     -19.031 -42.117  24.874  1.00  0.00     0.119 A 
ATOM     22  O   UNL     1     -14.135 -42.829  24.110  1.00  0.00    -0.294 OA
BRANCH  21  23
ATOM     23  O   UNL     1     -20.379 -41.897  24.926  1.00  0.00    -0.497 OA
ATOM     24  C   UNL     1     -20.872 -41.171  26.046  1.00  0.00     0.278 C 
ENDBRANCH  21  23
ENDBRANCH  11  12
ENDBRANCH   6  11
BRANCH   3  25
ATOM     25  C   UNL     1     -10.839 -45.801  31.424  1.00  0.00     0.393 C 
BRANCH  25  26
ATOM     26  C   UNL     1      -9.535 -45.147  31.817  1.00  0.00     0.020 A 
ATOM     27  C   UNL     1      -8.326 -45.797  31.492  1.00  0.00     0.010 A 
ATOM     28  C   UNL     1      -9.486 -43.916  32.507  1.00  0.00    -0.042 A 
ATOM     29  C   UNL     1      -7.097 -45.229  31.821  1.00  0.00     0.001 A 
ATOM     30  C   UNL     1      -8.236 -43.361  32.829  1.00  0.00     0.004 A 
ATOM     31  C   UNL     1      -7.052 -44.011  32.485  1.00  0.00     0.000 A 
ATOM     32  C   UNL     1     -10.725 -43.170  32.926  1.00  0.00     0.045 C 
ENDBRANCH  25  26
ENDBRANCH   3  25
TORSDOF 7
ENDMDL
MODEL 2
REMARK VINA RESULT:   -12.129      1.700      2.761
REMARK INTER + INTRA:         -16.969
REMARK INTER:                 -16.208
REMARK INTRA:                  -0.761
REMARK UNBOUND:                -0.231
REMARK SMILES C=C(O)c1c[n+](Cc2ccccc2C)ccc1C[C@@H]1CCc2cc(OC)ccc2C1=O
REMARK SMILES IDX 4 1 5 2 6 3 15 4 16 5 17 6 2 7 1 8 3 9 18 11 19 12 20 13
REMARK SMILES IDX 30 14 21 15 29 16 22 17 28 18 23 19 27 20 24 21 31 22 25 23
REMARK SMILES IDX 26 24 7 25 8 26 9 27 13 28 10 29 12 30 11 31 14 32
REMARK H PARENT 3 10
ROOT
ATOM      1  C   UNL     1     -11.999 -44.876  28.103  1.00  0.00     0.083 A 
ATOM      2  C   UNL     1     -10.951 -44.808  29.029  1.00  0.00     0.320 A 
ATOM      3  N   UNL     1     -10.239 -43.673  29.208  1.00  0.00    -0.200 N 
ATOM      4  C   UNL     1     -10.532 -42.560  28.500  1.00  0.00     0.308 A 
ATOM      5  C   UNL     1     -11.573 -42.564  27.581  1.00  0.00     0.075 A 
ATOM      6  C   UNL     1     -12.331 -43.724  27.372  1.00  0.00    -0.024 A 
ENDROOT
BRANCH   1   7
ATOM      7  C   UNL     1     -12.696 -46.164  27.999  1.00  0.00     0.121 C 
ATOM      8  C   UNL     1     -12.621 -46.954  26.923  1.00  0.00     0.059 C 
BRANCH   7   9
ATOM      9  O   UNL     1     -13.376 -46.524  29.137  1.00  0.00    -0.508 OA
ATOM     10  H   UNL     1     -12.735 -46.863  29.791  1.00  0.00     0.293 HD
ENDBRANCH   7   9
ENDBRANCH   1   7
BRANCH   6  11
ATOM     11  C   UNL     1     -13.484 -43.654  26.386  1.00  0.00     0.048 C 
BRANCH  11  12
ATOM     12  C   UNL     1     -14.704 -42.859  26.900  1.00  0.00     0.066 C 
ATOM     13  C   UNL     1     -15.369 -43.544  28.098  1.00  0.00     0.017 C 
ATOM     14  C   UNL     1     -15.706 -42.687  25.762  1.00  0.00     0.166 C 
ATOM     15  C   UNL     1     -16.587 -42.757  28.568  1.00  0.00     0.037 C 
ATOM     16  C   UNL     1     -17.140 -42.495  26.109  1.00  0.00     0.021 A 
ATOM     17  C   UNL     1     -17.560 -42.534  27.445  1.00  0.00    -0.033 A 
ATOM     18  C   UNL     1     -18.069 -42.268  25.087  1.00  0.00     0.016 A 
ATOM     19  C   UNL     1     -18.915 -42.314  27.734  1.00  0.00     0.050 A 
ATOM     20  C   UNL     1     -19.419 -42.066  25.389  1.00  0.00     0.047 A 
ATOM     21  C   UNL     1     -19.847 -42.085  26.715  1.00  0.00     0.119 A 
ATOM     22  O   UNL     1     -15.352 -42.647  24.586  1.00  0.00    -0.294 OA
BRANCH  21  23
ATOM     23  O   UNL     1     -21.129 -41.897  27.151  1.00  0.00    -0.497 OA
ATOM     24  C   UNL     1     -21.827 -40.767  26.638  1.00  0.00     0.278 C 
ENDBRANCH  21  23
ENDBRANCH  11  12
ENDBRANCH   6  11
BRANCH   3  25
ATOM     25  C   UNL     1      -9.137 -43.641  30.205  1.00  0.00     0.393 C 
BRANCH  25  26
ATOM     26  C   UNL     1      -9.648 -43.250  31.572  1.00  0.00     0.020 A 
ATOM     27  C   UNL     1     -11.019 -42.956  31.725  1.00  0.00     0.010 A 
ATOM     28  C   UNL     1      -8.799 -43.156  32.697  1.00  0.00    -0.042 A 
ATOM     29  C   UNL     1     -11.541 -42.602  32.967  1.00  0.00     0.001 A 
ATOM     30  C   UNL     1      -9.346 -42.799  33.940  1.00  0.00     0.004 A 
ATOM     31  C   UNL     1     -10.707 -42.527  34.075  1.00  0.00     0.000 A 
ATOM     32  C   UNL     1      -7.317 -43.416  32.620  1.00  0.00     0.045 C 
ENDBRANCH  25  26
ENDBRANCH   3  25
TORSDOF 7
ENDMDL
MODEL 3
REMARK VINA RESULT:   -11.552      2.615      9.653
REMARK INTER + INTRA:         -16.172
REMARK INTER:                 -15.150
REMARK INTRA:                  -1.022
REMARK UNBOUND:                -0.231
REMARK SMILES C=C(O)c1c[n+](Cc2ccccc2C)ccc1C[C@@H]1CCc2cc(OC)ccc2C1=O
REMARK SMILES IDX 4 1 5 2 6 3 15 4 16 5 17 6 2 7 1 8 3 9 18 11 19 12 20 13
REMARK SMILES IDX 30 14 21 15 29 16 22 17 28 18 23 19 27 20 24 21 31 22 25 23
REMARK SMILES IDX 26 24 7 25 8 26 9 27 13 28 10 29 12 30 11 31 14 32
REMARK H PARENT 3 10
ROOT
ATOM      1  C   UNL     1     -15.625 -43.215  25.516  1.00  0.00     0.083 A 
ATOM      2  C   UNL     1     -16.925 -42.707  25.627  1.00  0.00     0.320 A 
ATOM      3  N   UNL     1     -17.501 -42.499  26.832  1.00  0.00    -0.200 N 
ATOM      4  C   UNL     1     -16.825 -42.765  27.972  1.00  0.00     0.308 A 
ATOM      5  C   UNL     1     -15.525 -43.253  27.922  1.00  0.00     0.075 A 
ATOM      6  C   UNL     1     -14.899 -43.480  26.688  1.00  0.00    -0.024 A 
ENDROOT
BRANCH   1   7
ATOM      7  C   UNL     1     -15.110 -43.398  24.153  1.00  0.00     0.121 C 
ATOM      8  C   UNL     1     -14.904 -44.599  23.602  1.00  0.00     0.059 C 
BRANCH   7   9
ATOM      9  O   UNL     1     -14.926 -42.225  23.463  1.00  0.00    -0.508 OA
ATOM     10  H   UNL     1     -15.596 -41.579  23.759  1.00  0.00     0.293 HD
ENDBRANCH   7   9
ENDBRANCH   1   7
BRANCH   6  11
ATOM     11  C   UNL     1     -13.463 -43.972  26.699  1.00  0.00     0.048 C 
BRANCH  11  12
ATOM     12  C   UNL     1     -12.688 -43.623  27.987  1.00  0.00     0.066 C 
ATOM     13  C   UNL     1     -11.406 -42.839  27.689  1.00  0.00     0.017 C 
ATOM     14  C   UNL     1     -12.361 -44.909  28.742  1.00  0.00     0.166 C 
ATOM     15  C   UNL     1     -10.643 -42.532  28.973  1.00  0.00     0.037 C 
ATOM     16  C   UNL     1     -11.182 -44.914  29.648  1.00  0.00     0.021 A 
ATOM     17  C   UNL     1     -10.361 -43.784  29.754  1.00  0.00    -0.033 A 
ATOM     18  C   UNL     1     -10.900 -46.060  30.402  1.00  0.00     0.016 A 
ATOM     19  C   UNL     1      -9.277 -43.817  30.644  1.00  0.00     0.050 A 
ATOM     20  C   UNL     1      -9.808 -46.083  31.274  1.00  0.00     0.047 A 
ATOM     21  C   UNL     1      -8.994 -44.959  31.401  1.00  0.00     0.119 A 
ATOM     22  O   UNL     1     -13.074 -45.906  28.662  1.00  0.00    -0.294 OA
BRANCH  21  23
ATOM     23  O   UNL     1      -7.903 -44.843  32.216  1.00  0.00    -0.497 OA
ATOM     24  C   UNL     1      -7.550 -43.531  32.642  1.00  0.00     0.278 C 
ENDBRANCH  21  23
ENDBRANCH  11  12
ENDBRANCH   6  11
BRANCH   3  25
ATOM     25  C   UNL     1     -18.881 -41.953  26.907  1.00  0.00     0.393 C 
BRANCH  25  26
ATOM     26  C   UNL     1     -19.910 -43.059  26.878  1.00  0.00     0.020 A 
ATOM     27  C   UNL     1     -20.236 -43.713  28.084  1.00  0.00     0.010 A 
ATOM     28  C   UNL     1     -20.546 -43.468  25.685  1.00  0.00    -0.042 A 
ATOM     29  C   UNL     1     -21.187 -44.731  28.113  1.00  0.00     0.001 A 
ATOM     30  C   UNL     1     -21.503 -44.495  25.737  1.00  0.00     0.004 A 
ATOM     31  C   UNL     1     -21.823 -45.119  26.942  1.00  0.00     0.000 A 
ATOM     32  C   UNL     1     -20.235 -42.852  24.347  1.00  0.00     0.045 C 
ENDBRANCH  25  26
ENDBRANCH   3  25
TORSDOF 7
ENDMDL
MODEL 4
REMARK VINA RESULT:   -11.355      1.430      2.209
REMARK INTER + INTRA:         -15.901
REMARK INTER:                 -15.599
REMARK INTRA:                  -0.302
REMARK UNBOUND:                -0.231
REMARK SMILES C=C(O)c1c[n+](Cc2ccccc2C)ccc1C[C@@H]1CCc2cc(OC)ccc2C1=O
REMARK SMILES IDX 4 1 5 2 6 3 15 4 16 5 17 6 2 7 1 8 3 9 18 11 19 12 20 13
REMARK SMILES IDX 30 14 21 15 29 16 22 17 28 18 23 19 27 20 24 21 31 22 25 23
REMARK SMILES IDX 26 24 7 25 8 26 9 27 13 28 10 29 12 30 11 31 14 32
REMARK H PARENT 3 10
ROOT
ATOM      1  C   UNL     1     -12.173 -44.746  28.689  1.00  0.00     0.083 A 
ATOM      2  C   UNL     1     -11.591 -44.660  29.959  1.00  0.00     0.320 A 
ATOM      3  N   UNL     1     -10.938 -43.548  30.364  1.00  0.00    -0.200 N 
ATOM      4  C   UNL     1     -10.841 -42.474  29.548  1.00  0.00     0.308 A 
ATOM      5  C   UNL     1     -11.415 -42.496  28.283  1.00  0.00     0.075 A 
ATOM      6  C   UNL     1     -12.099 -43.634  27.834  1.00  0.00    -0.024 A 
ENDROOT
BRANCH   1   7
ATOM      7  C   UNL     1     -12.854 -46.006  28.366  1.00  0.00     0.121 C 
ATOM      8  C   UNL     1     -12.652 -46.678  27.227  1.00  0.00     0.059 C 
BRANCH   7   9
ATOM      9  O   UNL     1     -13.664 -46.477  29.370  1.00  0.00    -0.508 OA
ATOM     10  H   UNL     1     -13.162 -47.128  29.897  1.00  0.00     0.293 HD
ENDBRANCH   7   9
ENDBRANCH   1   7
BRANCH   6  11
ATOM     11  C   UNL     1     -12.742 -43.582  26.460  1.00  0.00     0.048 C 
BRANCH  11  12
ATOM     12  C   UNL     1     -14.082 -42.817  26.421  1.00  0.00     0.066 C 
ATOM     13  C   UNL     1     -15.130 -43.451  27.340  1.00  0.00     0.017 C 
ATOM     14  C   UNL     1     -14.593 -42.771  24.983  1.00  0.00     0.166 C 
ATOM     15  C   UNL     1     -16.453 -42.696  27.261  1.00  0.00     0.037 C 
ATOM     16  C   UNL     1     -16.056 -42.627  24.759  1.00  0.00     0.021 A 
ATOM     17  C   UNL     1     -16.942 -42.597  25.844  1.00  0.00    -0.033 A 
ATOM     18  C   UNL     1     -16.542 -42.516  23.451  1.00  0.00     0.016 A 
ATOM     19  C   UNL     1     -18.311 -42.427  25.593  1.00  0.00     0.050 A 
ATOM     20  C   UNL     1     -17.912 -42.361  23.216  1.00  0.00     0.047 A 
ATOM     21  C   UNL     1     -18.802 -42.313  24.287  1.00  0.00     0.119 A 
ATOM     22  O   UNL     1     -13.827 -42.792  24.022  1.00  0.00    -0.294 OA
BRANCH  21  23
ATOM     23  O   UNL     1     -20.158 -42.161  24.201  1.00  0.00    -0.497 OA
ATOM     24  C   UNL     1     -20.646 -41.275  23.200  1.00  0.00     0.278 C 
ENDBRANCH  21  23
ENDBRANCH  11  12
ENDBRANCH   6  11
BRANCH   3  25
ATOM     25  C   UNL     1     -10.339 -43.495  31.723  1.00  0.00     0.393 C 
BRANCH  25  26
ATOM     26  C   UNL     1      -9.055 -44.288  31.787  1.00  0.00     0.020 A 
ATOM     27  C   UNL     1      -8.944 -45.462  31.014  1.00  0.00     0.010 A 
ATOM     28  C   UNL     1      -7.968 -43.901  32.601  1.00  0.00    -0.042 A 
ATOM     29  C   UNL     1      -7.776 -46.222  31.028  1.00  0.00     0.001 A 
ATOM     30  C   UNL     1      -6.800 -44.680  32.600  1.00  0.00     0.004 A 
ATOM     31  C   UNL     1      -6.703 -45.830  31.817  1.00  0.00     0.000 A 
ATOM     32  C   UNL     1      -8.011 -42.683  33.486  1.00  0.00     0.045 C 
ENDBRANCH  25  26
ENDBRANCH   3  25
TORSDOF 7
ENDMDL
MODEL 5
REMARK VINA RESULT:   -10.945      3.226      6.311
REMARK INTER + INTRA:         -15.336
REMARK INTER:                 -14.663
REMARK INTRA:                  -0.672
REMARK UNBOUND:                -0.231
REMARK SMILES C=C(O)c1c[n+](Cc2ccccc2C)ccc1C[C@@H]1CCc2cc(OC)ccc2C1=O
REMARK SMILES IDX 4 1 5 2 6 3 15 4 16 5 17 6 2 7 1 8 3 9 18 11 19 12 20 13
REMARK SMILES IDX 30 14 21 15 29 16 22 17 28 18 23 19 27 20 24 21 31 22 25 23
REMARK SMILES IDX 26 24 7 25 8 26 9 27 13 28 10 29 12 30 11 31 14 32
REMARK H PARENT 3 10
ROOT
ATOM      1  C   UNL     1     -16.419 -42.464  24.427  1.00  0.00     0.083 A 
ATOM      2  C   UNL     1     -15.074 -42.407  24.814  1.00  0.00     0.320 A 
ATOM      3  N   UNL     1     -14.706 -42.529  26.109  1.00  0.00    -0.200 N 
ATOM      4  C   UNL     1     -15.636 -42.726  27.071  1.00  0.00     0.308 A 
ATOM      5  C   UNL     1     -16.982 -42.810  26.743  1.00  0.00     0.075 A 
ATOM      6  C   UNL     1     -17.397 -42.687  25.409  1.00  0.00    -0.024 A 
ENDROOT
BRANCH   1   7
ATOM      7  C   UNL     1     -16.692 -42.317  22.992  1.00  0.00     0.121 C 
ATOM      8  C   UNL     1     -16.395 -41.212  22.299  1.00  0.00     0.059 C 
BRANCH   7   9
ATOM      9  O   UNL     1     -17.213 -43.443  22.404  1.00  0.00    -0.508 OA
ATOM     10  H   UNL     1     -18.042 -43.680  22.863  1.00  0.00     0.293 HD
ENDBRANCH   7   9
ENDBRANCH   1   7
BRANCH   6  11
ATOM     11  C   UNL     1     -18.878 -42.830  25.109  1.00  0.00     0.048 C 
BRANCH  11  12
ATOM     12  C   UNL     1     -19.739 -41.650  25.609  1.00  0.00     0.066 C 
ATOM     13  C   UNL     1     -20.556 -42.023  26.849  1.00  0.00     0.017 C 
ATOM     14  C   UNL     1     -20.661 -41.189  24.483  1.00  0.00     0.166 C 
ATOM     15  C   UNL     1     -21.420 -40.852  27.305  1.00  0.00     0.037 C 
ATOM     16  C   UNL     1     -21.932 -40.508  24.848  1.00  0.00     0.021 A 
ATOM     17  C   UNL     1     -22.296 -40.353  26.192  1.00  0.00    -0.033 A 
ATOM     18  C   UNL     1     -22.763 -40.017  23.833  1.00  0.00     0.016 A 
ATOM     19  C   UNL     1     -23.486 -39.676  26.495  1.00  0.00     0.050 A 
ATOM     20  C   UNL     1     -23.953 -39.357  24.151  1.00  0.00     0.047 A 
ATOM     21  C   UNL     1     -24.318 -39.181  25.485  1.00  0.00     0.119 A 
ATOM     22  O   UNL     1     -20.353 -41.315  23.300  1.00  0.00    -0.294 OA
BRANCH  21  23
ATOM     23  O   UNL     1     -25.446 -38.553  25.935  1.00  0.00    -0.497 OA
ATOM     24  C   UNL     1     -25.371 -37.927  27.212  1.00  0.00     0.278 C 
ENDBRANCH  21  23
ENDBRANCH  11  12
ENDBRANCH   6  11
BRANCH   3  25
ATOM     25  C   UNL     1     -13.268 -42.469  26.478  1.00  0.00     0.393 C 
BRANCH  25  26
ATOM     26  C   UNL     1     -12.796 -43.780  27.061  1.00  0.00     0.020 A 
ATOM     27  C   UNL     1     -13.490 -44.961  26.723  1.00  0.00     0.010 A 
ATOM     28  C   UNL     1     -11.694 -43.863  27.939  1.00  0.00    -0.042 A 
ATOM     29  C   UNL     1     -13.088 -46.197  27.225  1.00  0.00     0.001 A 
ATOM     30  C   UNL     1     -11.304 -45.119  28.432  1.00  0.00     0.004 A 
ATOM     31  C   UNL     1     -11.993 -46.277  28.075  1.00  0.00     0.000 A 
ATOM     32  C   UNL     1     -10.916 -42.652  28.383  1.00  0.00     0.045 C 
ENDBRANCH  25  26
ENDBRANCH   3  25
TORSDOF 7
ENDMDL
MODEL 6
REMARK VINA RESULT:   -10.654      2.823     10.290
REMARK INTER + INTRA:         -14.934
REMARK INTER:                 -14.476
REMARK INTRA:                  -0.457
REMARK UNBOUND:                -0.231
REMARK SMILES C=C(O)c1c[n+](Cc2ccccc2C)ccc1C[C@@H]1CCc2cc(OC)ccc2C1=O
REMARK SMILES IDX 4 1 5 2 6 3 15 4 16 5 17 6 2 7 1 8 3 9 18 11 19 12 20 13
REMARK SMILES IDX 30 14 21 15 29 16 22 17 28 18 23 19 27 20 24 21 31 22 25 23
REMARK SMILES IDX 26 24 7 25 8 26 9 27 13 28 10 29 12 30 11 31 14 32
REMARK H PARENT 3 10
ROOT
ATOM      1  C   UNL     1     -16.918 -42.501  25.963  1.00  0.00     0.083 A 
ATOM      2  C   UNL     1     -17.873 -42.704  24.959  1.00  0.00     0.320 A 
ATOM      3  N   UNL     1     -17.523 -42.777  23.656  1.00  0.00    -0.200 N 
ATOM      4  C   UNL     1     -16.228 -42.669  23.286  1.00  0.00     0.308 A 
ATOM      5  C   UNL     1     -15.235 -42.485  24.239  1.00  0.00     0.075 A 
ATOM      6  C   UNL     1     -15.564 -42.405  25.600  1.00  0.00    -0.024 A 
ENDROOT
BRANCH   1   7
ATOM      7  C   UNL     1     -17.421 -42.438  27.341  1.00  0.00     0.121 C 
ATOM      8  C   UNL     1     -18.723 -42.437  27.647  1.00  0.00     0.059 C 
BRANCH   7   9
ATOM      9  O   UNL     1     -16.435 -42.456  28.297  1.00  0.00    -0.508 OA
ATOM     10  H   UNL     1     -16.477 -41.623  28.804  1.00  0.00     0.293 HD
ENDBRANCH   7   9
ENDBRANCH   1   7
BRANCH   6  11
ATOM     11  C   UNL     1     -14.432 -42.247  26.598  1.00  0.00     0.048 C 
BRANCH  11  12
ATOM     12  C   UNL     1     -13.465 -43.450  26.647  1.00  0.00     0.066 C 
ATOM     13  C   UNL     1     -14.115 -44.682  27.284  1.00  0.00     0.017 C 
ATOM     14  C   UNL     1     -12.209 -43.053  27.419  1.00  0.00     0.166 C 
ATOM     15  C   UNL     1     -13.131 -45.845  27.348  1.00  0.00     0.037 C 
ATOM     16  C   UNL     1     -11.425 -44.125  28.088  1.00  0.00     0.021 A 
ATOM     17  C   UNL     1     -11.868 -45.454  28.059  1.00  0.00    -0.033 A 
ATOM     18  C   UNL     1     -10.233 -43.795  28.746  1.00  0.00     0.016 A 
ATOM     19  C   UNL     1     -11.083 -46.441  28.674  1.00  0.00     0.050 A 
ATOM     20  C   UNL     1      -9.470 -44.788  29.367  1.00  0.00     0.047 A 
ATOM     21  C   UNL     1      -9.890 -46.116  29.331  1.00  0.00     0.119 A 
ATOM     22  O   UNL     1     -11.806 -41.892  27.449  1.00  0.00    -0.294 OA
BRANCH  21  23
ATOM     23  O   UNL     1      -9.241 -47.182  29.888  1.00  0.00    -0.497 OA
ATOM     24  C   UNL     1      -8.539 -46.947  31.104  1.00  0.00     0.278 C 
ENDBRANCH  21  23
ENDBRANCH  11  12
ENDBRANCH   6  11
BRANCH   3  25
ATOM     25  C   UNL     1     -18.568 -42.999  22.622  1.00  0.00     0.393 C 
BRANCH  25  26
ATOM     26  C   UNL     1     -19.511 -41.822  22.536  1.00  0.00     0.020 A 
ATOM     27  C   UNL     1     -19.054 -40.630  21.938  1.00  0.00     0.010 A 
ATOM     28  C   UNL     1     -20.828 -41.872  23.042  1.00  0.00    -0.042 A 
ATOM     29  C   UNL     1     -19.889 -39.520  21.822  1.00  0.00     0.001 A 
ATOM     30  C   UNL     1     -21.654 -40.743  22.914  1.00  0.00     0.004 A 
ATOM     31  C   UNL     1     -21.189 -39.578  22.306  1.00  0.00     0.000 A 
ATOM     32  C   UNL     1     -21.389 -43.090  23.728  1.00  0.00     0.045 C 
ENDBRANCH  25  26
ENDBRANCH   3  25
TORSDOF 7
ENDMDL
MODEL 7
REMARK VINA RESULT:   -10.556      3.295      6.274
REMARK INTER + INTRA:         -14.798
REMARK INTER:                 -15.539
REMARK INTRA:                   0.741
REMARK UNBOUND:                -0.231
REMARK SMILES C=C(O)c1c[n+](Cc2ccccc2C)ccc1C[C@@H]1CCc2cc(OC)ccc2C1=O
REMARK SMILES IDX 4 1 5 2 6 3 15 4 16 5 17 6 2 7 1 8 3 9 18 11 19 12 20 13
REMARK SMILES IDX 30 14 21 15 29 16 22 17 28 18 23 19 27 20 24 21 31 22 25 23
REMARK SMILES IDX 26 24 7 25 8 26 9 27 13 28 10 29 12 30 11 31 14 32
REMARK H PARENT 3 10
ROOT
ATOM      1  C   UNL     1     -16.978 -42.635  26.517  1.00  0.00     0.083 A 
ATOM      2  C   UNL     1     -15.649 -42.531  26.944  1.00  0.00     0.320 A 
ATOM      3  N   UNL     1     -14.617 -42.687  26.085  1.00  0.00    -0.200 N 
ATOM      4  C   UNL     1     -14.844 -42.936  24.776  1.00  0.00     0.308 A 
ATOM      5  C   UNL     1     -16.143 -43.032  24.293  1.00  0.00     0.075 A 
ATOM      6  C   UNL     1     -17.235 -42.875  25.157  1.00  0.00    -0.024 A 
ENDROOT
BRANCH   1   7
ATOM      7  C   UNL     1     -18.011 -42.447  27.543  1.00  0.00     0.121 C 
ATOM      8  C   UNL     1     -19.240 -41.994  27.273  1.00  0.00     0.059 C 
BRANCH   7   9
ATOM      9  O   UNL     1     -17.628 -42.847  28.800  1.00  0.00    -0.508 OA
ATOM     10  H   UNL     1     -18.410 -43.197  29.269  1.00  0.00     0.293 HD
ENDBRANCH   7   9
ENDBRANCH   1   7
BRANCH   6  11
ATOM     11  C   UNL     1     -18.630 -42.947  24.562  1.00  0.00     0.048 C 
BRANCH  11  12
ATOM     12  C   UNL     1     -19.198 -41.580  24.122  1.00  0.00     0.066 C 
ATOM     13  C   UNL     1     -20.720 -41.517  24.278  1.00  0.00     0.017 C 
ATOM     14  C   UNL     1     -18.799 -41.313  22.673  1.00  0.00     0.166 C 
ATOM     15  C   UNL     1     -21.260 -40.169  23.809  1.00  0.00     0.037 C 
ATOM     16  C   UNL     1     -19.657 -40.408  21.862  1.00  0.00     0.021 A 
ATOM     17  C   UNL     1     -20.831 -39.868  22.402  1.00  0.00    -0.033 A 
ATOM     18  C   UNL     1     -19.276 -40.094  20.552  1.00  0.00     0.016 A 
ATOM     19  C   UNL     1     -21.595 -38.992  21.616  1.00  0.00     0.050 A 
ATOM     20  C   UNL     1     -20.056 -39.232  19.776  1.00  0.00     0.047 A 
ATOM     21  C   UNL     1     -21.218 -38.674  20.307  1.00  0.00     0.119 A 
ATOM     22  O   UNL     1     -17.770 -41.776  22.188  1.00  0.00    -0.294 OA
BRANCH  21  23
ATOM     23  O   UNL     1     -22.066 -37.816  19.664  1.00  0.00    -0.497 OA
ATOM     24  C   UNL     1     -22.241 -38.007  18.264  1.00  0.00     0.278 C 
ENDBRANCH  21  23
ENDBRANCH  11  12
ENDBRANCH   6  11
BRANCH   3  25
ATOM     25  C   UNL     1     -13.220 -42.563  26.578  1.00  0.00     0.393 C 
BRANCH  25  26
ATOM     26  C   UNL     1     -12.729 -43.866  27.165  1.00  0.00     0.020 A 
ATOM     27  C   UNL     1     -13.427 -45.053  26.861  1.00  0.00     0.010 A 
ATOM     28  C   UNL     1     -11.605 -43.933  28.017  1.00  0.00    -0.042 A 
ATOM     29  C   UNL     1     -13.008 -46.281  27.367  1.00  0.00     0.001 A 
ATOM     30  C   UNL     1     -11.198 -45.182  28.516  1.00  0.00     0.004 A 
ATOM     31  C   UNL     1     -11.892 -46.346  28.191  1.00  0.00     0.000 A 
ATOM     32  C   UNL     1     -10.820 -42.714  28.425  1.00  0.00     0.045 C 
ENDBRANCH  25  26
ENDBRANCH   3  25
TORSDOF 7
ENDMDL
MODEL 8
REMARK VINA RESULT:   -10.298      3.357      6.765
REMARK INTER + INTRA:         -14.442
REMARK INTER:                 -13.719
REMARK INTRA:                  -0.723
REMARK UNBOUND:                -0.231
REMARK SMILES C=C(O)c1c[n+](Cc2ccccc2C)ccc1C[C@@H]1CCc2cc(OC)ccc2C1=O
REMARK SMILES IDX 4 1 5 2 6 3 15 4 16 5 17 6 2 7 1 8 3 9 18 11 19 12 20 13
REMARK SMILES IDX 30 14 21 15 29 16 22 17 28 18 23 19 27 20 24 21 31 22 25 23
REMARK SMILES IDX 26 24 7 25 8 26 9 27 13 28 10 29 12 30 11 31 14 32
REMARK H PARENT 3 10
ROOT
ATOM      1  C   UNL     1     -16.749 -42.446  24.431  1.00  0.00     0.083 A 
ATOM      2  C   UNL     1     -15.399 -42.400  24.798  1.00  0.00     0.320 A 
ATOM      3  N   UNL     1     -15.013 -42.511  26.089  1.00  0.00    -0.200 N 
ATOM      4  C   UNL     1     -15.931 -42.684  27.067  1.00  0.00     0.308 A 
ATOM      5  C   UNL     1     -17.283 -42.755  26.759  1.00  0.00     0.075 A 
ATOM      6  C   UNL     1     -17.716 -42.644  25.430  1.00  0.00    -0.024 A 
ENDROOT
BRANCH   1   7
ATOM      7  C   UNL     1     -17.041 -42.314  22.998  1.00  0.00     0.121 C 
ATOM      8  C   UNL     1     -16.788 -41.203  22.298  1.00  0.00     0.059 C 
BRANCH   7   9
ATOM      9  O   UNL     1     -17.531 -43.459  22.420  1.00  0.00    -0.508 OA
ATOM     10  H   UNL     1     -16.837 -44.145  22.447  1.00  0.00     0.293 HD
ENDBRANCH   7   9
ENDBRANCH   1   7
BRANCH   6  11
ATOM     11  C   UNL     1     -19.202 -42.773  25.153  1.00  0.00     0.048 C 
BRANCH  11  12
ATOM     12  C   UNL     1     -20.041 -43.162  26.389  1.00  0.00     0.066 C 
ATOM     13  C   UNL     1     -20.552 -44.604  26.303  1.00  0.00     0.017 C 
ATOM     14  C   UNL     1     -21.211 -42.191  26.528  1.00  0.00     0.166 C 
ATOM     15  C   UNL     1     -21.402 -44.954  27.520  1.00  0.00     0.037 C 
ATOM     16  C   UNL     1     -22.435 -42.658  27.233  1.00  0.00     0.021 A 
ATOM     17  C   UNL     1     -22.528 -43.976  27.700  1.00  0.00    -0.033 A 
ATOM     18  C   UNL     1     -23.495 -41.765  27.432  1.00  0.00     0.016 A 
ATOM     19  C   UNL     1     -23.684 -44.368  28.390  1.00  0.00     0.050 A 
ATOM     20  C   UNL     1     -24.648 -42.175  28.108  1.00  0.00     0.047 A 
ATOM     21  C   UNL     1     -24.746 -43.478  28.593  1.00  0.00     0.119 A 
ATOM     22  O   UNL     1     -21.142 -41.032  26.127  1.00  0.00    -0.294 OA
BRANCH  21  23
ATOM     23  O   UNL     1     -25.807 -44.007  29.273  1.00  0.00    -0.497 OA
ATOM     24  C   UNL     1     -25.855 -45.424  29.395  1.00  0.00     0.278 C 
ENDBRANCH  21  23
ENDBRANCH  11  12
ENDBRANCH   6  11
BRANCH   3  25
ATOM     25  C   UNL     1     -13.569 -42.463  26.436  1.00  0.00     0.393 C 
BRANCH  25  26
ATOM     26  C   UNL     1     -13.084 -43.800  26.945  1.00  0.00     0.020 A 
ATOM     27  C   UNL     1     -13.778 -44.966  26.559  1.00  0.00     0.010 A 
ATOM     28  C   UNL     1     -11.968 -43.922  27.802  1.00  0.00    -0.042 A 
ATOM     29  C   UNL     1     -13.364 -46.224  26.991  1.00  0.00     0.001 A 
ATOM     30  C   UNL     1     -11.566 -45.200  28.226  1.00  0.00     0.004 A 
ATOM     31  C   UNL     1     -12.256 -46.341  27.821  1.00  0.00     0.000 A 
ATOM     32  C   UNL     1     -11.189 -42.731  28.295  1.00  0.00     0.045 C 
ENDBRANCH  25  26
ENDBRANCH   3  25
TORSDOF 7
ENDMDL
MODEL 9
REMARK VINA RESULT:    -9.860      5.872     13.617
REMARK INTER + INTRA:         -13.838
REMARK INTER:                 -12.706
REMARK INTRA:                  -1.132
REMARK UNBOUND:                -0.231
REMARK SMILES C=C(O)c1c[n+](Cc2ccccc2C)ccc1C[C@@H]1CCc2cc(OC)ccc2C1=O
REMARK SMILES IDX 4 1 5 2 6 3 15 4 16 5 17 6 2 7 1 8 3 9 18 11 19 12 20 13
REMARK SMILES IDX 30 14 21 15 29 16 22 17 28 18 23 19 27 20 24 21 31 22 25 23
REMARK SMILES IDX 26 24 7 25 8 26 9 27 13 28 10 29 12 30 11 31 14 32
REMARK H PARENT 3 10
ROOT
ATOM      1  C   UNL     1     -21.403 -41.372  20.990  1.00  0.00     0.083 A 
ATOM      2  C   UNL     1     -21.563 -40.536  19.878  1.00  0.00     0.320 A 
ATOM      3  N   UNL     1     -21.361 -39.202  19.963  1.00  0.00    -0.200 N 
ATOM      4  C   UNL     1     -20.982 -38.638  21.131  1.00  0.00     0.308 A 
ATOM      5  C   UNL     1     -20.791 -39.421  22.262  1.00  0.00     0.075 A 
ATOM      6  C   UNL     1     -20.992 -40.807  22.208  1.00  0.00    -0.024 A 
ENDROOT
BRANCH   1   7
ATOM      7  C   UNL     1     -21.652 -42.803  20.773  1.00  0.00     0.121 C 
ATOM      8  C   UNL     1     -22.878 -43.333  20.713  1.00  0.00     0.059 C 
BRANCH   7   9
ATOM      9  O   UNL     1     -20.514 -43.542  20.561  1.00  0.00    -0.508 OA
ATOM     10  H   UNL     1     -20.269 -43.985  21.396  1.00  0.00     0.293 HD
ENDBRANCH   7   9
ENDBRANCH   1   7
BRANCH   6  11
ATOM     11  C   UNL     1     -20.725 -41.614  23.466  1.00  0.00     0.048 C 
BRANCH  11  12
ATOM     12  C   UNL     1     -19.265 -41.542  23.961  1.00  0.00     0.066 C 
ATOM     13  C   UNL     1     -18.380 -42.598  23.291  1.00  0.00     0.017 C 
ATOM     14  C   UNL     1     -19.240 -41.714  25.478  1.00  0.00     0.166 C 
ATOM     15  C   UNL     1     -16.951 -42.526  23.818  1.00  0.00     0.037 C 
ATOM     16  C   UNL     1     -18.002 -42.248  26.107  1.00  0.00     0.021 A 
ATOM     17  C   UNL     1     -16.915 -42.641  25.316  1.00  0.00    -0.033 A 
ATOM     18  C   UNL     1     -17.931 -42.352  27.501  1.00  0.00     0.016 A 
ATOM     19  C   UNL     1     -15.754 -43.109  25.948  1.00  0.00     0.050 A 
ATOM     20  C   UNL     1     -16.772 -42.834  28.116  1.00  0.00     0.047 A 
ATOM     21  C   UNL     1     -15.677 -43.212  27.342  1.00  0.00     0.119 A 
ATOM     22  O   UNL     1     -20.185 -41.370  26.185  1.00  0.00    -0.294 OA
BRANCH  21  23
ATOM     23  O   UNL     1     -14.486 -43.692  27.810  1.00  0.00    -0.497 OA
ATOM     24  C   UNL     1     -13.834 -44.682  27.023  1.00  0.00     0.278 C 
ENDBRANCH  21  23
ENDBRANCH  11  12
ENDBRANCH   6  11
BRANCH   3  25
ATOM     25  C   UNL     1     -21.535 -38.351  18.757  1.00  0.00     0.393 C 
BRANCH  25  26
ATOM     26  C   UNL     1     -22.892 -37.687  18.747  1.00  0.00     0.020 A 
ATOM     27  C   UNL     1     -23.068 -36.493  19.476  1.00  0.00     0.010 A 
ATOM     28  C   UNL     1     -23.991 -38.227  18.045  1.00  0.00    -0.042 A 
ATOM     29  C   UNL     1     -24.296 -35.835  19.489  1.00  0.00     0.001 A 
ATOM     30  C   UNL     1     -25.221 -37.547  18.070  1.00  0.00     0.004 A 
ATOM     31  C   UNL     1     -25.371 -36.359  18.783  1.00  0.00     0.000 A 
ATOM     32  C   UNL     1     -23.906 -39.515  17.269  1.00  0.00     0.045 C 
ENDBRANCH  25  26
ENDBRANCH   3  25
TORSDOF 7
ENDMDL
