MODEL 1
REMARK VINA RESULT:   -13.097      0.000      0.000
REMARK INTER + INTRA:         -17.494
REMARK INTER:                 -16.926
REMARK INTRA:                  -0.568
REMARK UNBOUND:                -0.568
REMARK SMILES O=C1CCc2cc3c(CC[C@H]4CC[N@H+](Cc5ccccc5)CC4)noc3cc2N1
REMARK SMILES IDX 10 1 11 2 13 3 14 4 12 5 22 6 23 7 15 9 16 10 17 11 21 12
REMARK SMILES IDX 18 13 20 14 19 15 9 16 8 17 7 18 24 19 6 20 26 21 25 22 5 23
REMARK SMILES IDX 27 24 4 25 28 26 3 27 29 28 2 29 1 31
REMARK H PARENT 14 8 29 30
ROOT
ATOM      1  C   UNL     1     -13.789 -45.161  26.439  1.00  0.00     0.010 C 
ENDROOT
BRANCH   1   2
ATOM      2  C   UNL     1     -13.249 -45.787  27.740  1.00  0.00     0.000 C 
ATOM      3  C   UNL     1     -11.130 -46.491  28.941  1.00  0.00     0.262 C 
ATOM      4  N   UNL     1     -11.547 -45.658  30.124  1.00  0.00    -0.331 N 
ATOM      5  C   UNL     1     -11.719 -45.900  27.668  1.00  0.00     0.065 C 
ATOM      6  C   UNL     1     -13.049 -45.580  30.262  1.00  0.00     0.262 C 
ATOM      7  C   UNL     1     -13.654 -44.994  28.990  1.00  0.00     0.065 C 
ATOM      8  H   UNL     1     -11.207 -44.700  29.971  1.00  0.00     0.348 HD
BRANCH   4   9
ATOM      9  C   UNL     1     -10.871 -46.135  31.395  1.00  0.00     0.299 C 
BRANCH   9  10
ATOM     10  C   UNL     1      -9.610 -45.378  31.710  1.00  0.00     0.006 A 
ATOM     11  C   UNL     1      -9.673 -44.093  32.273  1.00  0.00     0.009 A 
ATOM     12  C   UNL     1      -8.352 -45.951  31.464  1.00  0.00     0.009 A 
ATOM     13  C   UNL     1      -8.503 -43.402  32.590  1.00  0.00     0.001 A 
ATOM     14  C   UNL     1      -7.185 -45.255  31.783  1.00  0.00     0.001 A 
ATOM     15  C   UNL     1      -7.261 -43.984  32.347  1.00  0.00     0.000 A 
ENDBRANCH   9  10
ENDBRANCH   4   9
ENDBRANCH   1   2
BRANCH   1  16
ATOM     16  C   UNL     1     -14.267 -43.712  26.604  1.00  0.00     0.061 C 
BRANCH  16  17
ATOM     17  C   UNL     1     -15.141 -43.283  25.475  1.00  0.00     0.091 A 
ATOM     18  C   UNL     1     -16.470 -42.788  25.514  1.00  0.00     0.045 A 
ATOM     19  N   UNL     1     -14.672 -43.341  24.221  1.00  0.00    -0.084 NA
ATOM     20  C   UNL     1     -17.442 -42.505  26.490  1.00  0.00     0.020 A 
ATOM     21  C   UNL     1     -16.769 -42.545  24.185  1.00  0.00     0.169 A 
ATOM     22  O   UNL     1     -15.698 -42.876  23.414  1.00  0.00    -0.356 OA
ATOM     23  C   UNL     1     -18.689 -42.005  26.069  1.00  0.00    -0.023 A 
ATOM     24  C   UNL     1     -17.981 -42.036  23.726  1.00  0.00     0.077 A 
ATOM     25  C   UNL     1     -19.728 -41.597  27.079  1.00  0.00     0.047 C 
ATOM     26  C   UNL     1     -18.943 -41.782  24.706  1.00  0.00     0.048 A 
ATOM     27  C   UNL     1     -21.133 -41.746  26.520  1.00  0.00     0.105 C 
ATOM     28  N   UNL     1     -20.183 -41.265  24.315  1.00  0.00    -0.326 N 
ATOM     29  C   UNL     1     -21.260 -41.126  25.150  1.00  0.00     0.224 C 
ATOM     30  H   UNL     1     -20.335 -40.967  23.359  1.00  0.00     0.169 HD
ATOM     31  O   UNL     1     -22.302 -40.605  24.757  1.00  0.00    -0.275 OA
ENDBRANCH  16  17
ENDBRANCH   1  16
TORSDOF 5
ENDMDL
MODEL 2
REMARK VINA RESULT:   -12.760      3.996      9.028
REMARK INTER + INTRA:         -17.057
REMARK INTER:                 -16.727
REMARK INTRA:                  -0.331
REMARK UNBOUND:                -0.568
REMARK SMILES O=C1CCc2cc3c(CC[C@H]4CC[N@H+](Cc5ccccc5)CC4)noc3cc2N1
REMARK SMILES IDX 10 1 11 2 13 3 14 4 12 5 22 6 23 7 15 9 16 10 17 11 21 12
REMARK SMILES IDX 18 13 20 14 19 15 9 16 8 17 7 18 24 19 6 20 26 21 25 22 5 23
REMARK SMILES IDX 27 24 4 25 28 26 3 27 29 28 2 29 1 31
REMARK H PARENT 14 8 29 30
ROOT
ATOM      1  C   UNL     1     -11.019 -46.119  29.623  1.00  0.00     0.010 C 
ENDROOT
BRANCH   1   2
ATOM      2  C   UNL     1     -11.562 -45.411  28.367  1.00  0.00     0.000 C 
ATOM      3  C   UNL     1     -13.628 -45.100  26.931  1.00  0.00     0.262 C 
ATOM      4  N   UNL     1     -13.482 -43.609  27.077  1.00  0.00    -0.331 N 
ATOM      5  C   UNL     1     -13.033 -45.793  28.149  1.00  0.00     0.065 C 
ATOM      6  C   UNL     1     -12.038 -43.193  27.229  1.00  0.00     0.262 C 
ATOM      7  C   UNL     1     -11.427 -43.884  28.443  1.00  0.00     0.065 C 
ATOM      8  H   UNL     1     -13.970 -43.327  27.937  1.00  0.00     0.348 HD
BRANCH   4   9
ATOM      9  C   UNL     1     -14.183 -42.876  25.949  1.00  0.00     0.299 C 
BRANCH   9  10
ATOM     10  C   UNL     1     -15.663 -42.734  26.170  1.00  0.00     0.006 A 
ATOM     11  C   UNL     1     -16.180 -42.604  27.469  1.00  0.00     0.009 A 
ATOM     12  C   UNL     1     -16.549 -42.712  25.080  1.00  0.00     0.009 A 
ATOM     13  C   UNL     1     -17.551 -42.446  27.671  1.00  0.00     0.001 A 
ATOM     14  C   UNL     1     -17.920 -42.553  25.289  1.00  0.00     0.001 A 
ATOM     15  C   UNL     1     -18.419 -42.418  26.582  1.00  0.00     0.000 A 
ENDBRANCH   9  10
ENDBRANCH   4   9
ENDBRANCH   1   2
BRANCH   1  16
ATOM     16  C   UNL     1      -9.589 -45.703  29.996  1.00  0.00     0.061 C 
BRANCH  16  17
ATOM     17  C   UNL     1      -9.570 -44.729  31.124  1.00  0.00     0.091 A 
ATOM     18  C   UNL     1     -10.660 -44.115  31.793  1.00  0.00     0.045 A 
ATOM     19  N   UNL     1      -8.393 -44.334  31.633  1.00  0.00    -0.084 NA
ATOM     20  C   UNL     1     -12.064 -44.138  31.721  1.00  0.00     0.020 A 
ATOM     21  C   UNL     1     -10.054 -43.322  32.750  1.00  0.00     0.169 A 
ATOM     22  O   UNL     1      -8.704 -43.451  32.654  1.00  0.00    -0.356 OA
ATOM     23  C   UNL     1     -12.794 -43.334  32.617  1.00  0.00    -0.023 A 
ATOM     24  C   UNL     1     -10.736 -42.524  33.665  1.00  0.00     0.077 A 
ATOM     25  C   UNL     1     -14.298 -43.393  32.644  1.00  0.00     0.047 C 
ATOM     26  C   UNL     1     -12.129 -42.541  33.566  1.00  0.00     0.048 A 
ATOM     27  C   UNL     1     -14.898 -42.077  33.109  1.00  0.00     0.105 C 
ATOM     28  N   UNL     1     -12.878 -41.766  34.458  1.00  0.00    -0.326 N 
ATOM     29  C   UNL     1     -14.230 -41.568  34.364  1.00  0.00     0.224 C 
ATOM     30  H   UNL     1     -12.426 -41.299  35.235  1.00  0.00     0.169 HD
ATOM     31  O   UNL     1     -14.836 -40.927  35.218  1.00  0.00    -0.275 OA
ENDBRANCH  16  17
ENDBRANCH   1  16
TORSDOF 5
ENDMDL
MODEL 3
REMARK VINA RESULT:   -12.617      1.698      2.268
REMARK INTER + INTRA:         -16.873
REMARK INTER:                 -16.647
REMARK INTRA:                  -0.226
REMARK UNBOUND:                -0.568
REMARK SMILES O=C1CCc2cc3c(CC[C@H]4CC[N@H+](Cc5ccccc5)CC4)noc3cc2N1
REMARK SMILES IDX 10 1 11 2 13 3 14 4 12 5 22 6 23 7 15 9 16 10 17 11 21 12
REMARK SMILES IDX 18 13 20 14 19 15 9 16 8 17 7 18 24 19 6 20 26 21 25 22 5 23
REMARK SMILES IDX 27 24 4 25 28 26 3 27 29 28 2 29 1 31
REMARK H PARENT 14 8 29 30
ROOT
ATOM      1  C   UNL     1     -14.120 -44.660  26.305  1.00  0.00     0.010 C 
ENDROOT
BRANCH   1   2
ATOM      2  C   UNL     1     -13.279 -44.762  27.591  1.00  0.00     0.000 C 
ATOM      3  C   UNL     1     -13.414 -44.772  30.123  1.00  0.00     0.262 C 
ATOM      4  N   UNL     1     -12.653 -46.071  30.139  1.00  0.00    -0.331 N 
ATOM      5  C   UNL     1     -14.193 -44.653  28.821  1.00  0.00     0.065 C 
ATOM      6  C   UNL     1     -11.696 -46.183  28.977  1.00  0.00     0.262 C 
ATOM      7  C   UNL     1     -12.463 -46.059  27.664  1.00  0.00     0.065 C 
ATOM      8  H   UNL     1     -13.334 -46.836  30.046  1.00  0.00     0.348 HD
BRANCH   4   9
ATOM      9  C   UNL     1     -11.972 -46.290  31.477  1.00  0.00     0.299 C 
BRANCH   9  10
ATOM     10  C   UNL     1     -10.538 -45.839  31.488  1.00  0.00     0.006 A 
ATOM     11  C   UNL     1     -10.209 -44.520  31.841  1.00  0.00     0.009 A 
ATOM     12  C   UNL     1      -9.505 -46.733  31.164  1.00  0.00     0.009 A 
ATOM     13  C   UNL     1      -8.877 -44.109  31.877  1.00  0.00     0.001 A 
ATOM     14  C   UNL     1      -8.173 -46.316  31.201  1.00  0.00     0.001 A 
ATOM     15  C   UNL     1      -7.860 -45.007  31.560  1.00  0.00     0.000 A 
ENDBRANCH   9  10
ENDBRANCH   4   9
ENDBRANCH   1   2
BRANCH   1  16
ATOM     16  C   UNL     1     -15.191 -43.562  26.354  1.00  0.00     0.061 C 
BRANCH  16  17
ATOM     17  C   UNL     1     -15.265 -42.798  25.076  1.00  0.00     0.091 A 
ATOM     18  C   UNL     1     -16.410 -42.385  24.348  1.00  0.00     0.045 A 
ATOM     19  N   UNL     1     -14.131 -42.409  24.476  1.00  0.00    -0.084 NA
ATOM     20  C   UNL     1     -17.807 -42.483  24.472  1.00  0.00     0.020 A 
ATOM     21  C   UNL     1     -15.883 -41.711  23.261  1.00  0.00     0.169 A 
ATOM     22  O   UNL     1     -14.525 -41.726  23.336  1.00  0.00    -0.356 OA
ATOM     23  C   UNL     1     -18.611 -41.905  23.471  1.00  0.00    -0.023 A 
ATOM     24  C   UNL     1     -16.639 -41.112  22.258  1.00  0.00     0.077 A 
ATOM     25  C   UNL     1     -20.111 -41.899  23.605  1.00  0.00     0.047 C 
ATOM     26  C   UNL     1     -18.025 -41.236  22.385  1.00  0.00     0.048 A 
ATOM     27  C   UNL     1     -20.790 -41.888  22.246  1.00  0.00     0.105 C 
ATOM     28  N   UNL     1     -18.846 -40.654  21.413  1.00  0.00    -0.326 N 
ATOM     29  C   UNL     1     -20.201 -40.840  21.333  1.00  0.00     0.224 C 
ATOM     30  H   UNL     1     -18.450 -40.051  20.702  1.00  0.00     0.169 HD
ATOM     31  O   UNL     1     -20.872 -40.248  20.492  1.00  0.00    -0.275 OA
ENDBRANCH  16  17
ENDBRANCH   1  16
TORSDOF 5
ENDMDL
MODEL 4
REMARK VINA RESULT:   -11.462      1.617      2.319
REMARK INTER + INTRA:         -15.381
REMARK INTER:                 -15.715
REMARK INTRA:                   0.334
REMARK UNBOUND:                -0.568
REMARK SMILES O=C1CCc2cc3c(CC[C@H]4CC[N@H+](Cc5ccccc5)CC4)noc3cc2N1
REMARK SMILES IDX 10 1 11 2 13 3 14 4 12 5 22 6 23 7 15 9 16 10 17 11 21 12
REMARK SMILES IDX 18 13 20 14 19 15 9 16 8 17 7 18 24 19 6 20 26 21 25 22 5 23
REMARK SMILES IDX 27 24 4 25 28 26 3 27 29 28 2 29 1 31
REMARK H PARENT 14 8 29 30
ROOT
ATOM      1  C   UNL     1     -13.150 -43.186  26.454  1.00  0.00     0.010 C 
ENDROOT
BRANCH   1   2
ATOM      2  C   UNL     1     -12.745 -43.750  27.830  1.00  0.00     0.000 C 
ATOM      3  C   UNL     1     -12.500 -45.889  29.168  1.00  0.00     0.262 C 
ATOM      4  N   UNL     1     -11.078 -45.506  29.483  1.00  0.00    -0.331 N 
ATOM      5  C   UNL     1     -12.910 -45.276  27.837  1.00  0.00     0.065 C 
ATOM      6  C   UNL     1     -10.894 -44.009  29.548  1.00  0.00     0.262 C 
ATOM      7  C   UNL     1     -11.307 -43.380  28.221  1.00  0.00     0.065 C 
ATOM      8  H   UNL     1     -10.482 -45.852  28.719  1.00  0.00     0.348 HD
BRANCH   4   9
ATOM      9  C   UNL     1     -10.586 -46.208  30.735  1.00  0.00     0.299 C 
BRANCH   9  10
ATOM     10  C   UNL     1      -9.394 -45.534  31.358  1.00  0.00     0.006 A 
ATOM     11  C   UNL     1      -8.103 -46.051  31.164  1.00  0.00     0.009 A 
ATOM     12  C   UNL     1      -9.553 -44.370  32.126  1.00  0.00     0.009 A 
ATOM     13  C   UNL     1      -6.995 -45.410  31.720  1.00  0.00     0.001 A 
ATOM     14  C   UNL     1      -8.441 -43.733  32.680  1.00  0.00     0.001 A 
ATOM     15  C   UNL     1      -7.164 -44.252  32.475  1.00  0.00     0.000 A 
ENDBRANCH   9  10
ENDBRANCH   4   9
ENDBRANCH   1   2
BRANCH   1  16
ATOM     16  C   UNL     1     -14.419 -43.827  25.875  1.00  0.00     0.061 C 
BRANCH  16  17
ATOM     17  C   UNL     1     -15.656 -43.268  26.491  1.00  0.00     0.091 A 
ATOM     18  C   UNL     1     -16.819 -42.762  25.856  1.00  0.00     0.045 A 
ATOM     19  N   UNL     1     -15.756 -43.206  27.827  1.00  0.00    -0.084 NA
ATOM     20  C   UNL     1     -17.286 -42.581  24.542  1.00  0.00     0.020 A 
ATOM     21  C   UNL     1     -17.635 -42.394  26.910  1.00  0.00     0.169 A 
ATOM     22  O   UNL     1     -17.001 -42.657  28.085  1.00  0.00    -0.356 OA
ATOM     23  C   UNL     1     -18.560 -42.014  24.356  1.00  0.00    -0.023 A 
ATOM     24  C   UNL     1     -18.907 -41.844  26.773  1.00  0.00     0.077 A 
ATOM     25  C   UNL     1     -19.146 -41.887  22.974  1.00  0.00     0.047 C 
ATOM     26  C   UNL     1     -19.347 -41.652  25.461  1.00  0.00     0.048 A 
ATOM     27  C   UNL     1     -20.112 -40.718  22.886  1.00  0.00     0.105 C 
ATOM     28  N   UNL     1     -20.619 -41.107  25.250  1.00  0.00    -0.326 N 
ATOM     29  C   UNL     1     -21.100 -40.720  24.028  1.00  0.00     0.224 C 
ATOM     30  H   UNL     1     -21.253 -40.970  26.028  1.00  0.00     0.169 HD
ATOM     31  O   UNL     1     -22.251 -40.307  23.903  1.00  0.00    -0.275 OA
ENDBRANCH  16  17
ENDBRANCH   1  16
TORSDOF 5
ENDMDL
MODEL 5
REMARK VINA RESULT:   -11.405      3.323     10.573
REMARK INTER + INTRA:         -15.306
REMARK INTER:                 -14.776
REMARK INTRA:                  -0.531
REMARK UNBOUND:                -0.568
REMARK SMILES O=C1CCc2cc3c(CC[C@H]4CC[N@H+](Cc5ccccc5)CC4)noc3cc2N1
REMARK SMILES IDX 10 1 11 2 13 3 14 4 12 5 22 6 23 7 15 9 16 10 17 11 21 12
REMARK SMILES IDX 18 13 20 14 19 15 9 16 8 17 7 18 24 19 6 20 26 21 25 22 5 23
REMARK SMILES IDX 27 24 4 25 28 26 3 27 29 28 2 29 1 31
REMARK H PARENT 14 8 29 30
ROOT
ATOM      1  C   UNL     1     -13.185 -43.621  26.740  1.00  0.00     0.010 C 
ENDROOT
BRANCH   1   2
ATOM      2  C   UNL     1     -14.404 -42.898  26.135  1.00  0.00     0.000 C 
ATOM      3  C   UNL     1     -15.845 -42.716  24.057  1.00  0.00     0.262 C 
ATOM      4  N   UNL     1     -17.064 -42.965  24.904  1.00  0.00    -0.331 N 
ATOM      5  C   UNL     1     -14.635 -43.383  24.696  1.00  0.00     0.065 C 
ATOM      6  C   UNL     1     -16.894 -42.442  26.310  1.00  0.00     0.262 C 
ATOM      7  C   UNL     1     -15.681 -43.097  26.962  1.00  0.00     0.065 C 
ATOM      8  H   UNL     1     -17.198 -43.982  24.974  1.00  0.00     0.348 HD
BRANCH   4   9
ATOM      9  C   UNL     1     -18.316 -42.433  24.233  1.00  0.00     0.299 C 
BRANCH   9  10
ATOM     10  C   UNL     1     -19.534 -42.513  25.110  1.00  0.00     0.006 A 
ATOM     11  C   UNL     1     -20.141 -43.752  25.375  1.00  0.00     0.009 A 
ATOM     12  C   UNL     1     -20.073 -41.354  25.693  1.00  0.00     0.009 A 
ATOM     13  C   UNL     1     -21.256 -43.828  26.210  1.00  0.00     0.001 A 
ATOM     14  C   UNL     1     -21.188 -41.437  26.528  1.00  0.00     0.001 A 
ATOM     15  C   UNL     1     -21.776 -42.672  26.788  1.00  0.00     0.000 A 
ENDBRANCH   9  10
ENDBRANCH   4   9
ENDBRANCH   1   2
BRANCH   1  16
ATOM     16  C   UNL     1     -13.551 -44.862  27.566  1.00  0.00     0.061 C 
BRANCH  16  17
ATOM     17  C   UNL     1     -13.294 -44.658  29.020  1.00  0.00     0.091 A 
ATOM     18  C   UNL     1     -12.075 -44.350  29.676  1.00  0.00     0.045 A 
ATOM     19  N   UNL     1     -14.311 -44.760  29.888  1.00  0.00    -0.084 NA
ATOM     20  C   UNL     1     -10.735 -44.122  29.319  1.00  0.00     0.020 A 
ATOM     21  C   UNL     1     -12.433 -44.269  31.010  1.00  0.00     0.169 A 
ATOM     22  O   UNL     1     -13.764 -44.514  31.137  1.00  0.00    -0.356 OA
ATOM     23  C   UNL     1      -9.808 -43.837  30.339  1.00  0.00    -0.023 A 
ATOM     24  C   UNL     1     -11.553 -43.975  32.049  1.00  0.00     0.077 A 
ATOM     25  C   UNL     1      -8.382 -43.491  30.000  1.00  0.00     0.047 C 
ATOM     26  C   UNL     1     -10.222 -43.772  31.679  1.00  0.00     0.048 A 
ATOM     27  C   UNL     1      -7.435 -43.881  31.122  1.00  0.00     0.105 C 
ATOM     28  N   UNL     1      -9.284 -43.468  32.672  1.00  0.00    -0.326 N 
ATOM     29  C   UNL     1      -7.931 -43.407  32.466  1.00  0.00     0.224 C 
ATOM     30  H   UNL     1      -9.586 -43.279  33.620  1.00  0.00     0.169 HD
ATOM     31  O   UNL     1      -7.169 -43.073  33.369  1.00  0.00    -0.275 OA
ENDBRANCH  16  17
ENDBRANCH   1  16
TORSDOF 5
ENDMDL
MODEL 6
REMARK VINA RESULT:   -11.142      3.338     11.237
REMARK INTER + INTRA:         -14.967
REMARK INTER:                 -14.430
REMARK INTRA:                  -0.537
REMARK UNBOUND:                -0.568
REMARK SMILES O=C1CCc2cc3c(CC[C@H]4CC[N@H+](Cc5ccccc5)CC4)noc3cc2N1
REMARK SMILES IDX 10 1 11 2 13 3 14 4 12 5 22 6 23 7 15 9 16 10 17 11 21 12
REMARK SMILES IDX 18 13 20 14 19 15 9 16 8 17 7 18 24 19 6 20 26 21 25 22 5 23
REMARK SMILES IDX 27 24 4 25 28 26 3 27 29 28 2 29 1 31
REMARK H PARENT 14 8 29 30
ROOT
ATOM      1  C   UNL     1     -15.432 -42.694  26.780  1.00  0.00     0.010 C 
ENDROOT
BRANCH   1   2
ATOM      2  C   UNL     1     -16.380 -43.018  25.609  1.00  0.00     0.000 C 
ATOM      3  C   UNL     1     -18.738 -42.687  24.739  1.00  0.00     0.262 C 
ATOM      4  N   UNL     1     -18.168 -42.154  23.452  1.00  0.00    -0.331 N 
ATOM      5  C   UNL     1     -17.766 -42.416  25.879  1.00  0.00     0.065 C 
ATOM      6  C   UNL     1     -16.831 -42.776  23.123  1.00  0.00     0.262 C 
ATOM      7  C   UNL     1     -15.848 -42.517  24.260  1.00  0.00     0.065 C 
ATOM      8  H   UNL     1     -18.012 -41.145  23.570  1.00  0.00     0.348 HD
BRANCH   4   9
ATOM      9  C   UNL     1     -19.165 -42.284  22.316  1.00  0.00     0.299 C 
BRANCH   9  10
ATOM     10  C   UNL     1     -19.723 -40.961  21.869  1.00  0.00     0.006 A 
ATOM     11  C   UNL     1     -19.434 -40.463  20.588  1.00  0.00     0.009 A 
ATOM     12  C   UNL     1     -20.555 -40.213  22.717  1.00  0.00     0.009 A 
ATOM     13  C   UNL     1     -19.974 -39.249  20.164  1.00  0.00     0.001 A 
ATOM     14  C   UNL     1     -21.092 -38.999  22.288  1.00  0.00     0.001 A 
ATOM     15  C   UNL     1     -20.804 -38.519  21.012  1.00  0.00     0.000 A 
ENDBRANCH   9  10
ENDBRANCH   4   9
ENDBRANCH   1   2
BRANCH   1  16
ATOM     16  C   UNL     1     -13.945 -42.800  26.417  1.00  0.00     0.061 C 
BRANCH  16  17
ATOM     17  C   UNL     1     -13.344 -44.076  26.900  1.00  0.00     0.091 A 
ATOM     18  C   UNL     1     -12.281 -44.270  27.819  1.00  0.00     0.045 A 
ATOM     19  N   UNL     1     -13.827 -45.243  26.449  1.00  0.00    -0.084 NA
ATOM     20  C   UNL     1     -11.424 -43.471  28.596  1.00  0.00     0.020 A 
ATOM     21  C   UNL     1     -12.160 -45.646  27.895  1.00  0.00     0.169 A 
ATOM     22  O   UNL     1     -13.080 -46.226  27.078  1.00  0.00    -0.356 OA
ATOM     23  C   UNL     1     -10.465 -44.107  29.405  1.00  0.00    -0.023 A 
ATOM     24  C   UNL     1     -11.237 -46.317  28.693  1.00  0.00     0.077 A 
ATOM     25  C   UNL     1      -9.588 -43.301  30.327  1.00  0.00     0.047 C 
ATOM     26  C   UNL     1     -10.380 -45.508  29.442  1.00  0.00     0.048 A 
ATOM     27  C   UNL     1      -8.255 -43.989  30.568  1.00  0.00     0.105 C 
ATOM     28  N   UNL     1      -9.430 -46.116  30.270  1.00  0.00    -0.326 N 
ATOM     29  C   UNL     1      -8.432 -45.445  30.925  1.00  0.00     0.224 C 
ATOM     30  H   UNL     1      -9.445 -47.118  30.416  1.00  0.00     0.169 HD
ATOM     31  O   UNL     1      -7.669 -46.033  31.687  1.00  0.00    -0.275 OA
ENDBRANCH  16  17
ENDBRANCH   1  16
TORSDOF 5
ENDMDL
MODEL 7
REMARK VINA RESULT:   -11.033      1.297      2.033
REMARK INTER + INTRA:         -14.826
REMARK INTER:                 -14.323
REMARK INTRA:                  -0.502
REMARK UNBOUND:                -0.568
REMARK SMILES O=C1CCc2cc3c(CC[C@H]4CC[N@H+](Cc5ccccc5)CC4)noc3cc2N1
REMARK SMILES IDX 10 1 11 2 13 3 14 4 12 5 22 6 23 7 15 9 16 10 17 11 21 12
REMARK SMILES IDX 18 13 20 14 19 15 9 16 8 17 7 18 24 19 6 20 26 21 25 22 5 23
REMARK SMILES IDX 27 24 4 25 28 26 3 27 29 28 2 29 1 31
REMARK H PARENT 14 8 29 30
ROOT
ATOM      1  C   UNL     1     -14.500 -42.705  26.099  1.00  0.00     0.010 C 
ENDROOT
BRANCH   1   2
ATOM      2  C   UNL     1     -13.893 -43.298  27.384  1.00  0.00     0.000 C 
ATOM      3  C   UNL     1     -14.464 -44.455  29.567  1.00  0.00     0.262 C 
ATOM      4  N   UNL     1     -13.491 -45.550  29.219  1.00  0.00    -0.331 N 
ATOM      5  C   UNL     1     -15.011 -43.834  28.290  1.00  0.00     0.065 C 
ATOM      6  C   UNL     1     -12.342 -45.043  28.382  1.00  0.00     0.262 C 
ATOM      7  C   UNL     1     -12.876 -44.412  27.100  1.00  0.00     0.065 C 
ATOM      8  H   UNL     1     -13.992 -46.249  28.655  1.00  0.00     0.348 HD
BRANCH   4   9
ATOM      9  C   UNL     1     -13.026 -46.284  30.462  1.00  0.00     0.299 C 
BRANCH   9  10
ATOM     10  C   UNL     1     -11.734 -45.748  31.014  1.00  0.00     0.006 A 
ATOM     11  C   UNL     1     -11.712 -44.539  31.727  1.00  0.00     0.009 A 
ATOM     12  C   UNL     1     -10.534 -46.457  30.840  1.00  0.00     0.009 A 
ATOM     13  C   UNL     1     -10.517 -44.055  32.261  1.00  0.00     0.001 A 
ATOM     14  C   UNL     1      -9.342 -45.968  31.376  1.00  0.00     0.001 A 
ATOM     15  C   UNL     1      -9.335 -44.771  32.088  1.00  0.00     0.000 A 
ENDBRANCH   9  10
ENDBRANCH   4   9
ENDBRANCH   1   2
BRANCH   1  16
ATOM     16  C   UNL     1     -15.205 -43.742  25.214  1.00  0.00     0.061 C 
BRANCH  16  17
ATOM     17  C   UNL     1     -16.243 -43.119  24.345  1.00  0.00     0.091 A 
ATOM     18  C   UNL     1     -17.488 -42.548  24.712  1.00  0.00     0.045 A 
ATOM     19  N   UNL     1     -16.038 -43.049  23.021  1.00  0.00    -0.084 NA
ATOM     20  C   UNL     1     -18.219 -42.328  25.892  1.00  0.00     0.020 A 
ATOM     21  C   UNL     1     -18.021 -42.121  23.508  1.00  0.00     0.169 A 
ATOM     22  O   UNL     1     -17.158 -42.422  22.501  1.00  0.00    -0.356 OA
ATOM     23  C   UNL     1     -19.475 -41.699  25.796  1.00  0.00    -0.023 A 
ATOM     24  C   UNL     1     -19.250 -41.482  23.368  1.00  0.00     0.077 A 
ATOM     25  C   UNL     1     -20.254 -41.355  27.038  1.00  0.00     0.047 C 
ATOM     26  C   UNL     1     -19.973 -41.290  24.548  1.00  0.00     0.048 A 
ATOM     27  C   UNL     1     -21.749 -41.341  26.769  1.00  0.00     0.105 C 
ATOM     28  N   UNL     1     -21.215 -40.650  24.482  1.00  0.00    -0.326 N 
ATOM     29  C   UNL     1     -22.089 -40.547  25.531  1.00  0.00     0.224 C 
ATOM     30  H   UNL     1     -21.526 -40.226  23.616  1.00  0.00     0.169 HD
ATOM     31  O   UNL     1     -23.137 -39.915  25.422  1.00  0.00    -0.275 OA
ENDBRANCH  16  17
ENDBRANCH   1  16
TORSDOF 5
ENDMDL
MODEL 8
REMARK VINA RESULT:   -10.555      2.426      4.069
REMARK INTER + INTRA:         -14.208
REMARK INTER:                 -14.036
REMARK INTRA:                  -0.172
REMARK UNBOUND:                -0.568
REMARK SMILES O=C1CCc2cc3c(CC[C@H]4CC[N@H+](Cc5ccccc5)CC4)noc3cc2N1
REMARK SMILES IDX 10 1 11 2 13 3 14 4 12 5 22 6 23 7 15 9 16 10 17 11 21 12
REMARK SMILES IDX 18 13 20 14 19 15 9 16 8 17 7 18 24 19 6 20 26 21 25 22 5 23
REMARK SMILES IDX 27 24 4 25 28 26 3 27 29 28 2 29 1 31
REMARK H PARENT 14 8 29 30
ROOT
ATOM      1  C   UNL     1     -15.112 -41.930  24.024  1.00  0.00     0.010 C 
ENDROOT
BRANCH   1   2
ATOM      2  C   UNL     1     -14.774 -42.261  25.491  1.00  0.00     0.000 C 
ATOM      3  C   UNL     1     -15.600 -43.490  27.549  1.00  0.00     0.262 C 
ATOM      4  N   UNL     1     -14.282 -44.214  27.622  1.00  0.00    -0.331 N 
ATOM      5  C   UNL     1     -15.895 -43.113  26.104  1.00  0.00     0.065 C 
ATOM      6  C   UNL     1     -13.145 -43.378  27.085  1.00  0.00     0.262 C 
ATOM      7  C   UNL     1     -13.430 -42.987  25.639  1.00  0.00     0.065 C 
ATOM      8  H   UNL     1     -14.348 -45.051  27.029  1.00  0.00     0.348 HD
BRANCH   4   9
ATOM      9  C   UNL     1     -14.015 -44.726  29.025  1.00  0.00     0.299 C 
BRANCH   9  10
ATOM     10  C   UNL     1     -12.666 -45.375  29.169  1.00  0.00     0.006 A 
ATOM     11  C   UNL     1     -12.040 -45.969  28.061  1.00  0.00     0.009 A 
ATOM     12  C   UNL     1     -12.004 -45.380  30.407  1.00  0.00     0.009 A 
ATOM     13  C   UNL     1     -10.778 -46.548  28.189  1.00  0.00     0.001 A 
ATOM     14  C   UNL     1     -10.741 -45.960  30.529  1.00  0.00     0.001 A 
ATOM     15  C   UNL     1     -10.128 -46.540  29.421  1.00  0.00     0.000 A 
ENDBRANCH   9  10
ENDBRANCH   4   9
ENDBRANCH   1   2
BRANCH   1  16
ATOM     16  C   UNL     1     -16.411 -42.581  23.529  1.00  0.00     0.061 C 
BRANCH  16  17
ATOM     17  C   UNL     1     -17.260 -41.621  22.768  1.00  0.00     0.091 A 
ATOM     18  C   UNL     1     -18.605 -41.238  23.003  1.00  0.00     0.045 A 
ATOM     19  N   UNL     1     -16.746 -40.990  21.702  1.00  0.00    -0.084 NA
ATOM     20  C   UNL     1     -19.619 -41.535  23.931  1.00  0.00     0.020 A 
ATOM     21  C   UNL     1     -18.866 -40.322  22.001  1.00  0.00     0.169 A 
ATOM     22  O   UNL     1     -17.759 -40.175  21.224  1.00  0.00    -0.356 OA
ATOM     23  C   UNL     1     -20.867 -40.900  23.786  1.00  0.00    -0.023 A 
ATOM     24  C   UNL     1     -20.078 -39.659  21.829  1.00  0.00     0.077 A 
ATOM     25  C   UNL     1     -21.954 -41.111  24.807  1.00  0.00     0.047 C 
ATOM     26  C   UNL     1     -21.082 -39.981  22.746  1.00  0.00     0.048 A 
ATOM     27  C   UNL     1     -23.333 -40.950  24.190  1.00  0.00     0.105 C 
ATOM     28  N   UNL     1     -22.325 -39.348  22.636  1.00  0.00    -0.326 N 
ATOM     29  C   UNL     1     -23.434 -39.691  23.363  1.00  0.00     0.224 C 
ATOM     30  H   UNL     1     -22.454 -38.585  21.983  1.00  0.00     0.169 HD
ATOM     31  O   UNL     1     -24.478 -39.052  23.262  1.00  0.00    -0.275 OA
ENDBRANCH  16  17
ENDBRANCH   1  16
TORSDOF 5
ENDMDL
MODEL 9
REMARK VINA RESULT:   -10.439      3.870      6.364
REMARK INTER + INTRA:         -14.059
REMARK INTER:                 -13.841
REMARK INTRA:                  -0.218
REMARK UNBOUND:                -0.568
REMARK SMILES O=C1CCc2cc3c(CC[C@H]4CC[N@H+](Cc5ccccc5)CC4)noc3cc2N1
REMARK SMILES IDX 10 1 11 2 13 3 14 4 12 5 22 6 23 7 15 9 16 10 17 11 21 12
REMARK SMILES IDX 18 13 20 14 19 15 9 16 8 17 7 18 24 19 6 20 26 21 25 22 5 23
REMARK SMILES IDX 27 24 4 25 28 26 3 27 29 28 2 29 1 31
REMARK H PARENT 14 8 29 30
ROOT
ATOM      1  C   UNL     1     -18.761 -42.749  24.333  1.00  0.00     0.010 C 
ENDROOT
BRANCH   1   2
ATOM      2  C   UNL     1     -17.394 -42.348  24.920  1.00  0.00     0.000 C 
ATOM      3  C   UNL     1     -15.967 -42.433  27.014  1.00  0.00     0.262 C 
ATOM      4  N   UNL     1     -14.858 -43.057  26.210  1.00  0.00    -0.331 N 
ATOM      5  C   UNL     1     -17.310 -42.785  26.390  1.00  0.00     0.065 C 
ATOM      6  C   UNL     1     -14.872 -42.598  24.772  1.00  0.00     0.262 C 
ATOM      7  C   UNL     1     -16.215 -42.938  24.134  1.00  0.00     0.065 C 
ATOM      8  H   UNL     1     -15.007 -44.075  26.204  1.00  0.00     0.348 HD
BRANCH   4   9
ATOM      9  C   UNL     1     -13.512 -42.844  26.876  1.00  0.00     0.299 C 
BRANCH   9  10
ATOM     10  C   UNL     1     -12.849 -44.129  27.288  1.00  0.00     0.006 A 
ATOM     11  C   UNL     1     -13.384 -45.366  26.892  1.00  0.00     0.009 A 
ATOM     12  C   UNL     1     -11.676 -44.112  28.060  1.00  0.00     0.009 A 
ATOM     13  C   UNL     1     -12.753 -46.556  27.252  1.00  0.00     0.001 A 
ATOM     14  C   UNL     1     -11.049 -45.307  28.417  1.00  0.00     0.001 A 
ATOM     15  C   UNL     1     -11.586 -46.527  28.012  1.00  0.00     0.000 A 
ENDBRANCH   9  10
ENDBRANCH   4   9
ENDBRANCH   1   2
BRANCH   1  16
ATOM     16  C   UNL     1     -19.677 -41.554  24.033  1.00  0.00     0.061 C 
BRANCH  16  17
ATOM     17  C   UNL     1     -19.377 -40.940  22.709  1.00  0.00     0.091 A 
ATOM     18  C   UNL     1     -20.211 -40.142  21.886  1.00  0.00     0.045 A 
ATOM     19  N   UNL     1     -18.168 -41.121  22.159  1.00  0.00    -0.084 NA
ATOM     20  C   UNL     1     -21.518 -39.625  21.927  1.00  0.00     0.020 A 
ATOM     21  C   UNL     1     -19.412 -39.848  20.795  1.00  0.00     0.169 A 
ATOM     22  O   UNL     1     -18.195 -40.433  20.957  1.00  0.00    -0.356 OA
ATOM     23  C   UNL     1     -21.966 -38.846  20.844  1.00  0.00    -0.023 A 
ATOM     24  C   UNL     1     -19.807 -39.069  19.711  1.00  0.00     0.077 A 
ATOM     25  C   UNL     1     -23.321 -38.192  20.882  1.00  0.00     0.047 C 
ATOM     26  C   UNL     1     -21.116 -38.582  19.757  1.00  0.00     0.048 A 
ATOM     27  C   UNL     1     -23.888 -38.005  19.485  1.00  0.00     0.105 C 
ATOM     28  N   UNL     1     -21.578 -37.788  18.702  1.00  0.00    -0.326 N 
ATOM     29  C   UNL     1     -22.878 -37.387  18.548  1.00  0.00     0.224 C 
ATOM     30  H   UNL     1     -20.940 -37.472  17.982  1.00  0.00     0.169 HD
ATOM     31  O   UNL     1     -23.204 -36.637  17.631  1.00  0.00    -0.275 OA
ENDBRANCH  16  17
ENDBRANCH   1  16
TORSDOF 5
ENDMDL
