MODEL 1
REMARK VINA RESULT:   -12.791      0.000      0.000
REMARK INTER + INTRA:         -18.245
REMARK INTER:                 -17.651
REMARK INTRA:                  -0.593
REMARK UNBOUND:                -0.593
REMARK SMILES O=C1CCc2cc(C(O)=CC[C@H]3CC[N@H+](Cc4ccccc4)CC3)cc3c2N1CC3
REMARK SMILES IDX 10 1 8 2 9 3 7 5 6 6 25 7 5 8 26 9 27 10 4 11 30 12 28 13
REMARK SMILES IDX 3 14 29 15 2 16 1 17 11 18 12 19 24 20 13 21 23 22 14 23
REMARK SMILES IDX 15 24 16 26 17 27 18 28 22 29 19 30 21 31 20 32
REMARK H PARENT 9 4 15 25
ROOT
ATOM      1  C   UNL     1     -14.296 -43.755  25.888  1.00  0.00     0.020 C 
ENDROOT
BRANCH   1   2
ATOM      2  C   UNL     1     -15.071 -43.495  24.826  1.00  0.00     0.118 C 
BRANCH   2   3
ATOM      3  O   UNL     1     -14.584 -43.762  23.563  1.00  0.00    -0.508 OA
ATOM      4  H   UNL     1     -14.807 -43.006  22.989  1.00  0.00     0.293 HD
ENDBRANCH   2   3
BRANCH   2   5
ATOM      5  C   UNL     1     -16.418 -42.909  24.876  1.00  0.00     0.017 A 
ATOM      6  C   UNL     1     -17.061 -42.501  23.682  1.00  0.00     0.017 A 
ATOM      7  C   UNL     1     -17.050 -42.743  26.127  1.00  0.00     0.018 A 
ATOM      8  C   UNL     1     -18.333 -41.929  23.725  1.00  0.00    -0.023 A 
ATOM      9  C   UNL     1     -18.316 -42.189  26.156  1.00  0.00    -0.021 A 
ATOM     10  C   UNL     1     -18.906 -41.789  24.970  1.00  0.00     0.050 A 
ATOM     11  C   UNL     1     -19.158 -41.566  22.530  1.00  0.00     0.047 C 
ATOM     12  C   UNL     1     -19.228 -41.895  27.309  1.00  0.00     0.059 C 
ATOM     13  N   UNL     1     -20.167 -41.264  25.184  1.00  0.00    -0.312 N 
ATOM     14  C   UNL     1     -20.222 -40.512  22.863  1.00  0.00     0.105 C 
ATOM     15  C   UNL     1     -20.518 -41.414  26.596  1.00  0.00     0.130 C 
ATOM     16  C   UNL     1     -20.946 -40.742  24.186  1.00  0.00     0.227 C 
ATOM     17  O   UNL     1     -22.110 -40.390  24.359  1.00  0.00    -0.275 OA
ENDBRANCH   2   5
ENDBRANCH   1   2
BRANCH   1  18
ATOM     18  C   UNL     1     -13.839 -45.095  26.394  1.00  0.00     0.035 C 
BRANCH  18  19
ATOM     19  C   UNL     1     -12.952 -45.036  27.655  1.00  0.00     0.004 C 
ATOM     20  C   UNL     1     -13.769 -44.956  28.954  1.00  0.00     0.065 C 
ATOM     21  C   UNL     1     -11.952 -46.202  27.717  1.00  0.00     0.065 C 
ATOM     22  C   UNL     1     -12.866 -44.887  30.181  1.00  0.00     0.262 C 
ATOM     23  C   UNL     1     -11.072 -46.119  28.958  1.00  0.00     0.262 C 
ATOM     24  N   UNL     1     -11.950 -46.084  30.184  1.00  0.00    -0.331 N 
ATOM     25  H   UNL     1     -12.555 -46.914  30.131  1.00  0.00     0.348 HD
BRANCH  24  26
ATOM     26  C   UNL     1     -11.185 -46.256  31.482  1.00  0.00     0.299 C 
BRANCH  26  27
ATOM     27  C   UNL     1      -9.867 -45.536  31.568  1.00  0.00     0.006 A 
ATOM     28  C   UNL     1      -9.817 -44.169  31.882  1.00  0.00     0.009 A 
ATOM     29  C   UNL     1      -8.662 -46.220  31.338  1.00  0.00     0.009 A 
ATOM     30  C   UNL     1      -8.592 -43.508  31.981  1.00  0.00     0.001 A 
ATOM     31  C   UNL     1      -7.439 -45.555  31.437  1.00  0.00     0.001 A 
ATOM     32  C   UNL     1      -7.405 -44.202  31.762  1.00  0.00     0.000 A 
ENDBRANCH  26  27
ENDBRANCH  24  26
ENDBRANCH  18  19
ENDBRANCH   1  18
TORSDOF 7
ENDMDL
MODEL 2
REMARK VINA RESULT:   -12.729      0.360      1.861
REMARK INTER + INTRA:         -18.159
REMARK INTER:                 -17.590
REMARK INTRA:                  -0.569
REMARK UNBOUND:                -0.593
REMARK SMILES O=C1CCc2cc(C(O)=CC[C@H]3CC[N@H+](Cc4ccccc4)CC3)cc3c2N1CC3
REMARK SMILES IDX 10 1 8 2 9 3 7 5 6 6 25 7 5 8 26 9 27 10 4 11 30 12 28 13
REMARK SMILES IDX 3 14 29 15 2 16 1 17 11 18 12 19 24 20 13 21 23 22 14 23
REMARK SMILES IDX 15 24 16 26 17 27 18 28 22 29 19 30 21 31 20 32
REMARK H PARENT 9 4 15 25
ROOT
ATOM      1  C   UNL     1     -14.408 -43.797  25.886  1.00  0.00     0.020 C 
ENDROOT
BRANCH   1   2
ATOM      2  C   UNL     1     -15.133 -43.540  24.789  1.00  0.00     0.118 C 
BRANCH   2   3
ATOM      3  O   UNL     1     -14.602 -43.842  23.552  1.00  0.00    -0.508 OA
ATOM      4  H   UNL     1     -14.310 -43.009  23.138  1.00  0.00     0.293 HD
ENDBRANCH   2   3
BRANCH   2   5
ATOM      5  C   UNL     1     -16.466 -42.922  24.774  1.00  0.00     0.017 A 
ATOM      6  C   UNL     1     -17.180 -42.738  25.984  1.00  0.00     0.017 A 
ATOM      7  C   UNL     1     -17.029 -42.532  23.540  1.00  0.00     0.018 A 
ATOM      8  C   UNL     1     -18.452 -42.167  25.972  1.00  0.00    -0.023 A 
ATOM      9  C   UNL     1     -18.284 -41.953  23.543  1.00  0.00    -0.021 A 
ATOM     10  C   UNL     1     -18.957 -41.804  24.744  1.00  0.00     0.050 A 
ATOM     11  C   UNL     1     -19.252 -41.816  27.188  1.00  0.00     0.047 C 
ATOM     12  C   UNL     1     -19.128 -41.442  22.414  1.00  0.00     0.059 C 
ATOM     13  N   UNL     1     -20.189 -41.205  24.561  1.00  0.00    -0.312 N 
ATOM     14  C   UNL     1     -20.752 -41.714  26.881  1.00  0.00     0.105 C 
ATOM     15  C   UNL     1     -20.332 -40.813  23.159  1.00  0.00     0.130 C 
ATOM     16  C   UNL     1     -21.082 -40.991  25.578  1.00  0.00     0.227 C 
ATOM     17  O   UNL     1     -22.120 -40.351  25.435  1.00  0.00    -0.275 OA
ENDBRANCH   2   5
ENDBRANCH   1   2
BRANCH   1  18
ATOM     18  C   UNL     1     -13.823 -45.112  26.322  1.00  0.00     0.035 C 
BRANCH  18  19
ATOM     19  C   UNL     1     -12.962 -45.039  27.599  1.00  0.00     0.004 C 
ATOM     20  C   UNL     1     -13.804 -44.934  28.881  1.00  0.00     0.065 C 
ATOM     21  C   UNL     1     -11.971 -46.211  27.700  1.00  0.00     0.065 C 
ATOM     22  C   UNL     1     -12.926 -44.852  30.124  1.00  0.00     0.262 C 
ATOM     23  C   UNL     1     -11.115 -46.114  28.957  1.00  0.00     0.262 C 
ATOM     24  N   UNL     1     -12.018 -46.055  30.164  1.00  0.00    -0.331 N 
ATOM     25  H   UNL     1     -12.627 -46.881  30.112  1.00  0.00     0.348 HD
BRANCH  24  26
ATOM     26  C   UNL     1     -11.280 -46.211  31.480  1.00  0.00     0.299 C 
BRANCH  26  27
ATOM     27  C   UNL     1      -9.937 -45.540  31.564  1.00  0.00     0.006 A 
ATOM     28  C   UNL     1      -9.837 -44.175  31.875  1.00  0.00     0.009 A 
ATOM     29  C   UNL     1      -8.758 -46.268  31.334  1.00  0.00     0.009 A 
ATOM     30  C   UNL     1      -8.589 -43.558  31.973  1.00  0.00     0.001 A 
ATOM     31  C   UNL     1      -7.512 -45.647  31.432  1.00  0.00     0.001 A 
ATOM     32  C   UNL     1      -7.428 -44.296  31.754  1.00  0.00     0.000 A 
ENDBRANCH  26  27
ENDBRANCH  24  26
ENDBRANCH  18  19
ENDBRANCH   1  18
TORSDOF 7
ENDMDL
MODEL 3
REMARK VINA RESULT:   -12.334      1.781      3.281
REMARK INTER + INTRA:         -17.615
REMARK INTER:                 -17.060
REMARK INTRA:                  -0.555
REMARK UNBOUND:                -0.593
REMARK SMILES O=C1CCc2cc(C(O)=CC[C@H]3CC[N@H+](Cc4ccccc4)CC3)cc3c2N1CC3
REMARK SMILES IDX 10 1 8 2 9 3 7 5 6 6 25 7 5 8 26 9 27 10 4 11 30 12 28 13
REMARK SMILES IDX 3 14 29 15 2 16 1 17 11 18 12 19 24 20 13 21 23 22 14 23
REMARK SMILES IDX 15 24 16 26 17 27 18 28 22 29 19 30 21 31 20 32
REMARK H PARENT 9 4 15 25
ROOT
ATOM      1  C   UNL     1     -13.566 -45.249  27.659  1.00  0.00     0.020 C 
ENDROOT
BRANCH   1   2
ATOM      2  C   UNL     1     -13.740 -44.012  27.173  1.00  0.00     0.118 C 
BRANCH   2   3
ATOM      3  O   UNL     1     -12.696 -43.112  27.249  1.00  0.00    -0.508 OA
ATOM      4  H   UNL     1     -12.309 -43.024  26.358  1.00  0.00     0.293 HD
ENDBRANCH   2   3
BRANCH   2   5
ATOM      5  C   UNL     1     -14.980 -43.496  26.577  1.00  0.00     0.017 A 
ATOM      6  C   UNL     1     -16.039 -43.054  27.409  1.00  0.00     0.017 A 
ATOM      7  C   UNL     1     -15.106 -43.464  25.172  1.00  0.00     0.018 A 
ATOM      8  C   UNL     1     -17.225 -42.579  26.847  1.00  0.00    -0.023 A 
ATOM      9  C   UNL     1     -16.280 -42.977  24.629  1.00  0.00    -0.021 A 
ATOM     10  C   UNL     1     -17.298 -42.568  25.472  1.00  0.00     0.050 A 
ATOM     11  C   UNL     1     -18.363 -41.980  27.613  1.00  0.00     0.047 C 
ATOM     12  C   UNL     1     -16.702 -42.817  23.198  1.00  0.00     0.059 C 
ATOM     13  N   UNL     1     -18.390 -42.108  24.761  1.00  0.00    -0.312 N 
ATOM     14  C   UNL     1     -19.681 -42.045  26.831  1.00  0.00     0.105 C 
ATOM     15  C   UNL     1     -18.065 -42.091  23.335  1.00  0.00     0.130 C 
ATOM     16  C   UNL     1     -19.556 -41.696  25.351  1.00  0.00     0.227 C 
ATOM     17  O   UNL     1     -20.475 -41.174  24.726  1.00  0.00    -0.275 OA
ENDBRANCH   2   5
ENDBRANCH   1   2
BRANCH   1  18
ATOM     18  C   UNL     1     -12.402 -46.175  27.437  1.00  0.00     0.035 C 
BRANCH  18  19
ATOM     19  C   UNL     1     -11.301 -46.088  28.514  1.00  0.00     0.004 C 
ATOM     20  C   UNL     1     -10.405 -44.850  28.351  1.00  0.00     0.065 C 
ATOM     21  C   UNL     1     -11.875 -46.155  29.939  1.00  0.00     0.065 C 
ATOM     22  C   UNL     1      -9.321 -44.798  29.422  1.00  0.00     0.262 C 
ATOM     23  C   UNL     1     -10.774 -46.086  30.990  1.00  0.00     0.262 C 
ATOM     24  N   UNL     1      -9.971 -44.826  30.781  1.00  0.00    -0.331 N 
ATOM     25  H   UNL     1     -10.642 -44.048  30.799  1.00  0.00     0.348 HD
BRANCH  24  26
ATOM     26  C   UNL     1      -9.012 -44.525  31.917  1.00  0.00     0.299 C 
BRANCH  26  27
ATOM     27  C   UNL     1      -9.470 -43.490  32.906  1.00  0.00     0.006 A 
ATOM     28  C   UNL     1     -10.807 -43.064  32.931  1.00  0.00     0.009 A 
ATOM     29  C   UNL     1      -8.567 -42.931  33.826  1.00  0.00     0.009 A 
ATOM     30  C   UNL     1     -11.234 -42.117  33.864  1.00  0.00     0.001 A 
ATOM     31  C   UNL     1      -8.998 -41.984  34.757  1.00  0.00     0.001 A 
ATOM     32  C   UNL     1     -10.330 -41.581  34.777  1.00  0.00     0.000 A 
ENDBRANCH  26  27
ENDBRANCH  24  26
ENDBRANCH  18  19
ENDBRANCH   1  18
TORSDOF 7
ENDMDL
MODEL 4
REMARK VINA RESULT:   -12.291      3.774      9.334
REMARK INTER + INTRA:         -17.554
REMARK INTER:                 -16.316
REMARK INTRA:                  -1.238
REMARK UNBOUND:                -0.593
REMARK SMILES O=C1CCc2cc(C(O)=CC[C@H]3CC[N@H+](Cc4ccccc4)CC3)cc3c2N1CC3
REMARK SMILES IDX 10 1 8 2 9 3 7 5 6 6 25 7 5 8 26 9 27 10 4 11 30 12 28 13
REMARK SMILES IDX 3 14 29 15 2 16 1 17 11 18 12 19 24 20 13 21 23 22 14 23
REMARK SMILES IDX 15 24 16 26 17 27 18 28 22 29 19 30 21 31 20 32
REMARK H PARENT 9 4 15 25
ROOT
ATOM      1  C   UNL     1      -9.986 -46.056  29.250  1.00  0.00     0.020 C 
ENDROOT
BRANCH   1   2
ATOM      2  C   UNL     1      -9.869 -45.961  30.582  1.00  0.00     0.118 C 
BRANCH   2   3
ATOM      3  O   UNL     1      -9.039 -46.843  31.244  1.00  0.00    -0.508 OA
ATOM      4  H   UNL     1      -8.848 -46.472  32.125  1.00  0.00     0.293 HD
ENDBRANCH   2   3
BRANCH   2   5
ATOM      5  C   UNL     1     -10.582 -44.999  31.433  1.00  0.00     0.017 A 
ATOM      6  C   UNL     1     -11.999 -44.992  31.467  1.00  0.00     0.017 A 
ATOM      7  C   UNL     1      -9.839 -44.076  32.200  1.00  0.00     0.018 A 
ATOM      8  C   UNL     1     -12.680 -44.070  32.262  1.00  0.00    -0.023 A 
ATOM      9  C   UNL     1     -10.526 -43.178  32.995  1.00  0.00    -0.021 A 
ATOM     10  C   UNL     1     -11.910 -43.191  32.990  1.00  0.00     0.050 A 
ATOM     11  C   UNL     1     -14.163 -44.039  32.470  1.00  0.00     0.047 C 
ATOM     12  C   UNL     1     -10.025 -42.098  33.907  1.00  0.00     0.059 C 
ATOM     13  N   UNL     1     -12.427 -42.234  33.842  1.00  0.00    -0.312 N 
ATOM     14  C   UNL     1     -14.651 -42.659  32.930  1.00  0.00     0.105 C 
ATOM     15  C   UNL     1     -11.332 -41.592  34.569  1.00  0.00     0.130 C 
ATOM     16  C   UNL     1     -13.769 -41.996  33.984  1.00  0.00     0.227 C 
ATOM     17  O   UNL     1     -14.229 -41.232  34.829  1.00  0.00    -0.275 OA
ENDBRANCH   2   5
ENDBRANCH   1   2
BRANCH   1  18
ATOM     18  C   UNL     1     -11.155 -46.575  28.459  1.00  0.00     0.035 C 
BRANCH  18  19
ATOM     19  C   UNL     1     -11.826 -45.527  27.547  1.00  0.00     0.004 C 
ATOM     20  C   UNL     1     -13.296 -45.857  27.242  1.00  0.00     0.065 C 
ATOM     21  C   UNL     1     -11.698 -44.101  28.108  1.00  0.00     0.065 C 
ATOM     22  C   UNL     1     -13.928 -44.811  26.331  1.00  0.00     0.262 C 
ATOM     23  C   UNL     1     -12.349 -43.077  27.187  1.00  0.00     0.262 C 
ATOM     24  N   UNL     1     -13.794 -43.454  26.974  1.00  0.00    -0.331 N 
ATOM     25  H   UNL     1     -14.215 -43.532  27.908  1.00  0.00     0.348 HD
BRANCH  24  26
ATOM     26  C   UNL     1     -14.606 -42.375  26.282  1.00  0.00     0.299 C 
BRANCH  26  27
ATOM     27  C   UNL     1     -16.092 -42.428  26.503  1.00  0.00     0.006 A 
ATOM     28  C   UNL     1     -16.978 -42.452  25.415  1.00  0.00     0.009 A 
ATOM     29  C   UNL     1     -16.621 -42.457  27.804  1.00  0.00     0.009 A 
ATOM     30  C   UNL     1     -18.356 -42.521  25.622  1.00  0.00     0.001 A 
ATOM     31  C   UNL     1     -18.000 -42.526  28.008  1.00  0.00     0.001 A 
ATOM     32  C   UNL     1     -18.865 -42.561  26.918  1.00  0.00     0.000 A 
ENDBRANCH  26  27
ENDBRANCH  24  26
ENDBRANCH  18  19
ENDBRANCH   1  18
TORSDOF 7
ENDMDL
MODEL 5
REMARK VINA RESULT:   -12.280      1.776      2.722
REMARK INTER + INTRA:         -17.539
REMARK INTER:                 -16.948
REMARK INTRA:                  -0.591
REMARK UNBOUND:                -0.593
REMARK SMILES O=C1CCc2cc(C(O)=CC[C@H]3CC[N@H+](Cc4ccccc4)CC3)cc3c2N1CC3
REMARK SMILES IDX 10 1 8 2 9 3 7 5 6 6 25 7 5 8 26 9 27 10 4 11 30 12 28 13
REMARK SMILES IDX 3 14 29 15 2 16 1 17 11 18 12 19 24 20 13 21 23 22 14 23
REMARK SMILES IDX 15 24 16 26 17 27 18 28 22 29 19 30 21 31 20 32
REMARK H PARENT 9 4 15 25
ROOT
ATOM      1  C   UNL     1     -13.756 -45.009  27.664  1.00  0.00     0.020 C 
ENDROOT
BRANCH   1   2
ATOM      2  C   UNL     1     -13.924 -43.840  27.031  1.00  0.00     0.118 C 
BRANCH   2   3
ATOM      3  O   UNL     1     -12.852 -42.978  26.923  1.00  0.00    -0.508 OA
ATOM      4  H   UNL     1     -13.201 -42.069  26.869  1.00  0.00     0.293 HD
ENDBRANCH   2   3
BRANCH   2   5
ATOM      5  C   UNL     1     -15.185 -43.360  26.448  1.00  0.00     0.017 A 
ATOM      6  C   UNL     1     -15.328 -43.262  25.042  1.00  0.00     0.017 A 
ATOM      7  C   UNL     1     -16.240 -42.983  27.306  1.00  0.00     0.018 A 
ATOM      8  C   UNL     1     -16.517 -42.792  24.484  1.00  0.00    -0.023 A 
ATOM      9  C   UNL     1     -17.419 -42.533  26.741  1.00  0.00    -0.021 A 
ATOM     10  C   UNL     1     -17.515 -42.437  25.364  1.00  0.00     0.050 A 
ATOM     11  C   UNL     1     -16.828 -42.753  23.020  1.00  0.00     0.047 C 
ATOM     12  C   UNL     1     -18.695 -42.073  27.380  1.00  0.00     0.059 C 
ATOM     13  N   UNL     1     -18.759 -41.976  24.976  1.00  0.00    -0.312 N 
ATOM     14  C   UNL     1     -17.929 -41.736  22.693  1.00  0.00     0.105 C 
ATOM     15  C   UNL     1     -19.617 -41.852  26.154  1.00  0.00     0.130 C 
ATOM     16  C   UNL     1     -19.101 -41.736  23.671  1.00  0.00     0.227 C 
ATOM     17  O   UNL     1     -20.241 -41.445  23.319  1.00  0.00    -0.275 OA
ENDBRANCH   2   5
ENDBRANCH   1   2
BRANCH   1  18
ATOM     18  C   UNL     1     -12.668 -46.025  27.455  1.00  0.00     0.035 C 
BRANCH  18  19
ATOM     19  C   UNL     1     -11.529 -45.969  28.495  1.00  0.00     0.004 C 
ATOM     20  C   UNL     1     -10.669 -44.701  28.367  1.00  0.00     0.065 C 
ATOM     21  C   UNL     1     -12.049 -46.125  29.934  1.00  0.00     0.065 C 
ATOM     22  C   UNL     1      -9.548 -44.679  29.400  1.00  0.00     0.262 C 
ATOM     23  C   UNL     1     -10.912 -46.085  30.947  1.00  0.00     0.262 C 
ATOM     24  N   UNL     1     -10.146 -44.796  30.778  1.00  0.00    -0.331 N 
ATOM     25  H   UNL     1     -10.834 -44.037  30.862  1.00  0.00     0.348 HD
BRANCH  24  26
ATOM     26  C   UNL     1      -9.153 -44.532  31.893  1.00  0.00     0.299 C 
BRANCH  26  27
ATOM     27  C   UNL     1      -9.566 -43.505  32.911  1.00  0.00     0.006 A 
ATOM     28  C   UNL     1      -8.621 -42.939  33.781  1.00  0.00     0.009 A 
ATOM     29  C   UNL     1     -10.904 -43.092  33.008  1.00  0.00     0.009 A 
ATOM     30  C   UNL     1      -9.003 -41.971  34.712  1.00  0.00     0.001 A 
ATOM     31  C   UNL     1     -11.283 -42.125  33.940  1.00  0.00     0.001 A 
ATOM     32  C   UNL     1     -10.332 -41.563  34.788  1.00  0.00     0.000 A 
ENDBRANCH  26  27
ENDBRANCH  24  26
ENDBRANCH  18  19
ENDBRANCH   1  18
TORSDOF 7
ENDMDL
MODEL 6
REMARK VINA RESULT:   -11.727      3.223     11.000
REMARK INTER + INTRA:         -16.776
REMARK INTER:                 -16.274
REMARK INTRA:                  -0.502
REMARK UNBOUND:                -0.593
REMARK SMILES O=C1CCc2cc(C(O)=CC[C@H]3CC[N@H+](Cc4ccccc4)CC3)cc3c2N1CC3
REMARK SMILES IDX 10 1 8 2 9 3 7 5 6 6 25 7 5 8 26 9 27 10 4 11 30 12 28 13
REMARK SMILES IDX 3 14 29 15 2 16 1 17 11 18 12 19 24 20 13 21 23 22 14 23
REMARK SMILES IDX 15 24 16 26 17 27 18 28 22 29 19 30 21 31 20 32
REMARK H PARENT 9 4 15 25
ROOT
ATOM      1  C   UNL     1     -13.704 -44.855  29.103  1.00  0.00     0.020 C 
ENDROOT
BRANCH   1   2
ATOM      2  C   UNL     1     -13.231 -45.293  30.278  1.00  0.00     0.118 C 
BRANCH   2   3
ATOM      3  O   UNL     1     -13.928 -46.272  30.956  1.00  0.00    -0.508 OA
ATOM      4  H   UNL     1     -14.387 -45.850  31.706  1.00  0.00     0.293 HD
ENDBRANCH   2   3
BRANCH   2   5
ATOM      5  C   UNL     1     -12.021 -44.798  30.948  1.00  0.00     0.017 A 
ATOM      6  C   UNL     1     -10.746 -45.287  30.570  1.00  0.00     0.017 A 
ATOM      7  C   UNL     1     -12.148 -43.845  31.981  1.00  0.00     0.018 A 
ATOM      8  C   UNL     1      -9.595 -44.832  31.214  1.00  0.00    -0.023 A 
ATOM      9  C   UNL     1     -10.999 -43.390  32.601  1.00  0.00    -0.021 A 
ATOM     10  C   UNL     1      -9.773 -43.902  32.215  1.00  0.00     0.050 A 
ATOM     11  C   UNL     1      -8.192 -45.184  30.829  1.00  0.00     0.047 C 
ATOM     12  C   UNL     1     -10.815 -42.395  33.709  1.00  0.00     0.059 C 
ATOM     13  N   UNL     1      -8.739 -43.334  32.934  1.00  0.00    -0.312 N 
ATOM     14  C   UNL     1      -7.209 -44.985  31.989  1.00  0.00     0.105 C 
ATOM     15  C   UNL     1      -9.272 -42.279  33.795  1.00  0.00     0.130 C 
ATOM     16  C   UNL     1      -7.427 -43.704  32.789  1.00  0.00     0.227 C 
ATOM     17  O   UNL     1      -6.500 -43.114  33.338  1.00  0.00    -0.275 OA
ENDBRANCH   2   5
ENDBRANCH   1   2
BRANCH   1  18
ATOM     18  C   UNL     1     -13.411 -45.392  27.730  1.00  0.00     0.035 C 
BRANCH  18  19
ATOM     19  C   UNL     1     -13.793 -44.441  26.576  1.00  0.00     0.004 C 
ATOM     20  C   UNL     1     -14.176 -45.191  25.289  1.00  0.00     0.065 C 
ATOM     21  C   UNL     1     -14.904 -43.457  26.977  1.00  0.00     0.065 C 
ATOM     22  C   UNL     1     -14.537 -44.227  24.165  1.00  0.00     0.262 C 
ATOM     23  C   UNL     1     -15.257 -42.514  25.834  1.00  0.00     0.262 C 
ATOM     24  N   UNL     1     -15.656 -43.330  24.629  1.00  0.00    -0.331 N 
ATOM     25  H   UNL     1     -16.417 -43.949  24.936  1.00  0.00     0.348 HD
BRANCH  24  26
ATOM     26  C   UNL     1     -16.269 -42.502  23.515  1.00  0.00     0.299 C 
BRANCH  26  27
ATOM     27  C   UNL     1     -17.687 -42.054  23.733  1.00  0.00     0.006 A 
ATOM     28  C   UNL     1     -18.351 -42.337  24.938  1.00  0.00     0.009 A 
ATOM     29  C   UNL     1     -18.374 -41.342  22.736  1.00  0.00     0.009 A 
ATOM     30  C   UNL     1     -19.661 -41.902  25.146  1.00  0.00     0.001 A 
ATOM     31  C   UNL     1     -19.684 -40.910  22.948  1.00  0.00     0.001 A 
ATOM     32  C   UNL     1     -20.324 -41.187  24.152  1.00  0.00     0.000 A 
ENDBRANCH  26  27
ENDBRANCH  24  26
ENDBRANCH  18  19
ENDBRANCH   1  18
TORSDOF 7
ENDMDL
MODEL 7
REMARK VINA RESULT:   -11.656      3.958      9.794
REMARK INTER + INTRA:         -16.678
REMARK INTER:                 -15.932
REMARK INTRA:                  -0.746
REMARK UNBOUND:                -0.593
REMARK SMILES O=C1CCc2cc(C(O)=CC[C@H]3CC[N@H+](Cc4ccccc4)CC3)cc3c2N1CC3
REMARK SMILES IDX 10 1 8 2 9 3 7 5 6 6 25 7 5 8 26 9 27 10 4 11 30 12 28 13
REMARK SMILES IDX 3 14 29 15 2 16 1 17 11 18 12 19 24 20 13 21 23 22 14 23
REMARK SMILES IDX 15 24 16 26 17 27 18 28 22 29 19 30 21 31 20 32
REMARK H PARENT 9 4 15 25
ROOT
ATOM      1  C   UNL     1     -10.203 -46.299  28.548  1.00  0.00     0.020 C 
ENDROOT
BRANCH   1   2
ATOM      2  C   UNL     1      -9.774 -46.232  29.816  1.00  0.00     0.118 C 
BRANCH   2   3
ATOM      3  O   UNL     1      -8.877 -47.177  30.268  1.00  0.00    -0.508 OA
ATOM      4  H   UNL     1      -8.254 -46.735  30.875  1.00  0.00     0.293 HD
ENDBRANCH   2   3
BRANCH   2   5
ATOM      5  C   UNL     1     -10.202 -45.237  30.809  1.00  0.00     0.017 A 
ATOM      6  C   UNL     1      -9.239 -44.547  31.586  1.00  0.00     0.017 A 
ATOM      7  C   UNL     1     -11.580 -44.993  30.988  1.00  0.00     0.018 A 
ATOM      8  C   UNL     1      -9.641 -43.614  32.542  1.00  0.00    -0.023 A 
ATOM      9  C   UNL     1     -11.965 -44.054  31.927  1.00  0.00    -0.021 A 
ATOM     10  C   UNL     1     -10.997 -43.412  32.678  1.00  0.00     0.050 A 
ATOM     11  C   UNL     1      -8.721 -42.742  33.339  1.00  0.00     0.047 C 
ATOM     12  C   UNL     1     -13.329 -43.583  32.335  1.00  0.00     0.059 C 
ATOM     13  N   UNL     1     -11.558 -42.508  33.560  1.00  0.00    -0.312 N 
ATOM     14  C   UNL     1      -9.380 -42.235  34.628  1.00  0.00     0.105 C 
ATOM     15  C   UNL     1     -13.000 -42.438  33.326  1.00  0.00     0.130 C 
ATOM     16  C   UNL     1     -10.827 -41.779  34.460  1.00  0.00     0.227 C 
ATOM     17  O   UNL     1     -11.312 -40.890  35.155  1.00  0.00    -0.275 OA
ENDBRANCH   2   5
ENDBRANCH   1   2
BRANCH   1  18
ATOM     18  C   UNL     1     -11.539 -46.772  28.047  1.00  0.00     0.035 C 
BRANCH  18  19
ATOM     19  C   UNL     1     -12.546 -45.643  27.742  1.00  0.00     0.004 C 
ATOM     20  C   UNL     1     -11.879 -44.261  27.647  1.00  0.00     0.065 C 
ATOM     21  C   UNL     1     -13.375 -45.930  26.480  1.00  0.00     0.065 C 
ATOM     22  C   UNL     1     -12.900 -43.166  27.357  1.00  0.00     0.262 C 
ATOM     23  C   UNL     1     -14.376 -44.816  26.203  1.00  0.00     0.262 C 
ATOM     24  N   UNL     1     -13.636 -43.506  26.087  1.00  0.00    -0.331 N 
ATOM     25  H   UNL     1     -12.920 -43.641  25.362  1.00  0.00     0.348 HD
BRANCH  24  26
ATOM     26  C   UNL     1     -14.495 -42.370  25.563  1.00  0.00     0.299 C 
BRANCH  26  27
ATOM     27  C   UNL     1     -15.954 -42.430  25.922  1.00  0.00     0.006 A 
ATOM     28  C   UNL     1     -16.361 -42.437  27.266  1.00  0.00     0.009 A 
ATOM     29  C   UNL     1     -16.935 -42.478  24.919  1.00  0.00     0.009 A 
ATOM     30  C   UNL     1     -17.717 -42.472  27.596  1.00  0.00     0.001 A 
ATOM     31  C   UNL     1     -18.290 -42.514  25.254  1.00  0.00     0.001 A 
ATOM     32  C   UNL     1     -18.679 -42.507  26.590  1.00  0.00     0.000 A 
ENDBRANCH  26  27
ENDBRANCH  24  26
ENDBRANCH  18  19
ENDBRANCH   1  18
TORSDOF 7
ENDMDL
MODEL 8
REMARK VINA RESULT:   -11.375      2.705     11.311
REMARK INTER + INTRA:         -16.291
REMARK INTER:                 -15.515
REMARK INTRA:                  -0.776
REMARK UNBOUND:                -0.593
REMARK SMILES O=C1CCc2cc(C(O)=CC[C@H]3CC[N@H+](Cc4ccccc4)CC3)cc3c2N1CC3
REMARK SMILES IDX 10 1 8 2 9 3 7 5 6 6 25 7 5 8 26 9 27 10 4 11 30 12 28 13
REMARK SMILES IDX 3 14 29 15 2 16 1 17 11 18 12 19 24 20 13 21 23 22 14 23
REMARK SMILES IDX 15 24 16 26 17 27 18 28 22 29 19 30 21 31 20 32
REMARK H PARENT 9 4 15 25
ROOT
ATOM      1  C   UNL     1     -14.529 -42.703  26.248  1.00  0.00     0.020 C 
ENDROOT
BRANCH   1   2
ATOM      2  C   UNL     1     -13.808 -43.816  26.441  1.00  0.00     0.118 C 
BRANCH   2   3
ATOM      3  O   UNL     1     -14.126 -44.951  25.723  1.00  0.00    -0.508 OA
ATOM      4  H   UNL     1     -13.326 -45.241  25.248  1.00  0.00     0.293 HD
ENDBRANCH   2   3
BRANCH   2   5
ATOM      5  C   UNL     1     -12.697 -43.959  27.392  1.00  0.00     0.017 A 
ATOM      6  C   UNL     1     -12.702 -45.012  28.341  1.00  0.00     0.017 A 
ATOM      7  C   UNL     1     -11.639 -43.025  27.360  1.00  0.00     0.018 A 
ATOM      8  C   UNL     1     -11.658 -45.142  29.257  1.00  0.00    -0.023 A 
ATOM      9  C   UNL     1     -10.603 -43.174  28.262  1.00  0.00    -0.021 A 
ATOM     10  C   UNL     1     -10.650 -44.206  29.183  1.00  0.00     0.050 A 
ATOM     11  C   UNL     1     -11.494 -46.272  30.224  1.00  0.00     0.047 C 
ATOM     12  C   UNL     1      -9.360 -42.359  28.467  1.00  0.00     0.059 C 
ATOM     13  N   UNL     1      -9.536 -44.207  30.000  1.00  0.00    -0.312 N 
ATOM     14  C   UNL     1     -10.600 -45.889  31.411  1.00  0.00     0.105 C 
ATOM     15  C   UNL     1      -8.602 -43.177  29.543  1.00  0.00     0.130 C 
ATOM     16  C   UNL     1      -9.358 -45.088  31.034  1.00  0.00     0.227 C 
ATOM     17  O   UNL     1      -8.315 -45.165  31.677  1.00  0.00    -0.275 OA
ENDBRANCH   2   5
ENDBRANCH   1   2
BRANCH   1  18
ATOM     18  C   UNL     1     -15.964 -42.454  26.622  1.00  0.00     0.035 C 
BRANCH  18  19
ATOM     19  C   UNL     1     -16.984 -42.819  25.524  1.00  0.00     0.004 C 
ATOM     20  C   UNL     1     -18.403 -42.318  25.839  1.00  0.00     0.065 C 
ATOM     21  C   UNL     1     -16.538 -42.336  24.134  1.00  0.00     0.065 C 
ATOM     22  C   UNL     1     -19.389 -42.702  24.743  1.00  0.00     0.262 C 
ATOM     23  C   UNL     1     -17.547 -42.719  23.058  1.00  0.00     0.262 C 
ATOM     24  N   UNL     1     -18.897 -42.157  23.426  1.00  0.00    -0.331 N 
ATOM     25  H   UNL     1     -18.765 -41.146  23.561  1.00  0.00     0.348 HD
BRANCH  24  26
ATOM     26  C   UNL     1     -19.920 -42.257  22.310  1.00  0.00     0.299 C 
BRANCH  26  27
ATOM     27  C   UNL     1     -20.234 -40.976  21.589  1.00  0.00     0.006 A 
ATOM     28  C   UNL     1     -20.320 -39.762  22.289  1.00  0.00     0.009 A 
ATOM     29  C   UNL     1     -20.444 -40.970  20.201  1.00  0.00     0.009 A 
ATOM     30  C   UNL     1     -20.592 -38.571  21.615  1.00  0.00     0.001 A 
ATOM     31  C   UNL     1     -20.716 -39.776  19.529  1.00  0.00     0.001 A 
ATOM     32  C   UNL     1     -20.786 -38.579  20.236  1.00  0.00     0.000 A 
ENDBRANCH  26  27
ENDBRANCH  24  26
ENDBRANCH  18  19
ENDBRANCH   1  18
TORSDOF 7
ENDMDL
MODEL 9
REMARK VINA RESULT:   -11.203      2.481     11.161
REMARK INTER + INTRA:         -16.053
REMARK INTER:                 -15.286
REMARK INTRA:                  -0.767
REMARK UNBOUND:                -0.593
REMARK SMILES O=C1CCc2cc(C(O)=CC[C@H]3CC[N@H+](Cc4ccccc4)CC3)cc3c2N1CC3
REMARK SMILES IDX 10 1 8 2 9 3 7 5 6 6 25 7 5 8 26 9 27 10 4 11 30 12 28 13
REMARK SMILES IDX 3 14 29 15 2 16 1 17 11 18 12 19 24 20 13 21 23 22 14 23
REMARK SMILES IDX 15 24 16 26 17 27 18 28 22 29 19 30 21 31 20 32
REMARK H PARENT 9 4 15 25
ROOT
ATOM      1  C   UNL     1     -15.827 -42.567  25.357  1.00  0.00     0.020 C 
ENDROOT
BRANCH   1   2
ATOM      2  C   UNL     1     -14.781 -43.387  25.188  1.00  0.00     0.118 C 
BRANCH   2   3
ATOM      3  O   UNL     1     -14.629 -44.036  23.980  1.00  0.00    -0.508 OA
ATOM      4  H   UNL     1     -14.343 -44.950  24.163  1.00  0.00     0.293 HD
ENDBRANCH   2   3
BRANCH   2   5
ATOM      5  C   UNL     1     -13.766 -43.695  26.205  1.00  0.00     0.017 A 
ATOM      6  C   UNL     1     -12.766 -42.743  26.524  1.00  0.00     0.017 A 
ATOM      7  C   UNL     1     -13.792 -44.953  26.844  1.00  0.00     0.018 A 
ATOM      8  C   UNL     1     -11.791 -43.036  27.477  1.00  0.00    -0.023 A 
ATOM      9  C   UNL     1     -12.829 -45.226  27.798  1.00  0.00    -0.021 A 
ATOM     10  C   UNL     1     -11.860 -44.277  28.071  1.00  0.00     0.050 A 
ATOM     11  C   UNL     1     -10.759 -42.076  27.981  1.00  0.00     0.047 C 
ATOM     12  C   UNL     1     -12.602 -46.449  28.635  1.00  0.00     0.059 C 
ATOM     13  N   UNL     1     -10.986 -44.714  29.049  1.00  0.00    -0.312 N 
ATOM     14  C   UNL     1      -9.548 -42.797  28.586  1.00  0.00     0.105 C 
ATOM     15  C   UNL     1     -11.447 -46.003  29.566  1.00  0.00     0.130 C 
ATOM     16  C   UNL     1      -9.900 -43.992  29.468  1.00  0.00     0.227 C 
ATOM     17  O   UNL     1      -9.199 -44.326  30.420  1.00  0.00    -0.275 OA
ENDBRANCH   2   5
ENDBRANCH   1   2
BRANCH   1  18
ATOM     18  C   UNL     1     -17.027 -42.768  26.240  1.00  0.00     0.035 C 
BRANCH  18  19
ATOM     19  C   UNL     1     -18.384 -42.574  25.532  1.00  0.00     0.004 C 
ATOM     20  C   UNL     1     -19.335 -41.649  26.309  1.00  0.00     0.065 C 
ATOM     21  C   UNL     1     -18.219 -42.084  24.084  1.00  0.00     0.065 C 
ATOM     22  C   UNL     1     -20.669 -41.485  25.591  1.00  0.00     0.262 C 
ATOM     23  C   UNL     1     -19.566 -41.914  23.392  1.00  0.00     0.262 C 
ATOM     24  N   UNL     1     -20.417 -40.965  24.199  1.00  0.00    -0.331 N 
ATOM     25  H   UNL     1     -19.869 -40.102  24.305  1.00  0.00     0.348 HD
BRANCH  24  26
ATOM     26  C   UNL     1     -21.678 -40.525  23.480  1.00  0.00     0.299 C 
BRANCH  26  27
ATOM     27  C   UNL     1     -21.506 -40.107  22.046  1.00  0.00     0.006 A 
ATOM     28  C   UNL     1     -20.721 -38.991  21.715  1.00  0.00     0.009 A 
ATOM     29  C   UNL     1     -22.126 -40.827  21.012  1.00  0.00     0.009 A 
ATOM     30  C   UNL     1     -20.546 -38.617  20.381  1.00  0.00     0.001 A 
ATOM     31  C   UNL     1     -21.948 -40.449  19.680  1.00  0.00     0.001 A 
ATOM     32  C   UNL     1     -21.157 -39.348  19.366  1.00  0.00     0.000 A 
ENDBRANCH  26  27
ENDBRANCH  24  26
ENDBRANCH  18  19
ENDBRANCH   1  18
TORSDOF 7
ENDMDL
