MODEL 1
REMARK VINA RESULT:   -10.460      0.000      0.000
REMARK INTER + INTRA:         -14.852
REMARK INTER:                 -13.823
REMARK INTRA:                  -1.029
REMARK UNBOUND:                -1.029
REMARK SMILES COc1ccc([C@H]2O[C@@H](O)[C@H]3[C@@H]2C(=O)O[C@@H]3c2cc(OC)c3c(c2)OCO3)cc1OC
REMARK SMILES IDX 7 1 8 2 9 3 11 4 12 5 13 6 14 7 15 8 16 9 6 10 3 11 4 12
REMARK SMILES IDX 29 13 5 14 28 15 2 16 1 17 30 18 31 19 10 20 17 22 18 23
REMARK SMILES IDX 24 24 19 25 23 26 22 27 25 28 27 29 26 30 20 31 21 32
REMARK H PARENT 10 21
ROOT
ATOM      1  C   UNL     1     -11.579 -44.629  31.039  1.00  0.00     0.166 C 
ATOM      2  O   UNL     1     -12.021 -45.961  31.373  1.00  0.00    -0.344 OA
ATOM      3  C   UNL     1     -12.710 -46.506  30.257  1.00  0.00     0.255 C 
ATOM      4  C   UNL     1     -13.180 -45.334  29.413  1.00  0.00     0.108 C 
ATOM      5  C   UNL     1     -12.111 -44.307  29.658  1.00  0.00     0.145 C 
ATOM      6  C   UNL     1     -11.118 -44.628  28.583  1.00  0.00     0.313 C 
ATOM      7  O   UNL     1      -9.957 -44.254  28.553  1.00  0.00    -0.252 OA
ATOM      8  O   UNL     1     -11.698 -45.398  27.616  1.00  0.00    -0.457 OA
ATOM      9  C   UNL     1     -13.083 -45.618  27.929  1.00  0.00     0.216 C 
ENDROOT
BRANCH   1  10
ATOM     10  C   UNL     1     -12.088 -43.642  32.072  1.00  0.00    -0.014 A 
ATOM     11  C   UNL     1     -13.098 -41.882  34.034  1.00  0.00     0.160 A 
ATOM     12  C   UNL     1     -13.969 -42.645  33.250  1.00  0.00     0.051 A 
ATOM     13  C   UNL     1     -11.708 -41.996  33.836  1.00  0.00     0.161 A 
ATOM     14  C   UNL     1     -13.468 -43.518  32.279  1.00  0.00     0.010 A 
ATOM     15  C   UNL     1     -11.217 -42.876  32.864  1.00  0.00     0.056 A 
BRANCH  11  16
ATOM     16  O   UNL     1     -13.500 -41.003  35.009  1.00  0.00    -0.493 OA
ATOM     17  C   UNL     1     -14.896 -40.799  35.178  1.00  0.00     0.278 C 
ENDBRANCH  11  16
BRANCH  13  18
ATOM     18  O   UNL     1     -10.918 -41.218  34.648  1.00  0.00    -0.493 OA
ATOM     19  C   UNL     1      -9.650 -41.737  35.024  1.00  0.00     0.278 C 
ENDBRANCH  13  18
ENDBRANCH   1  10
BRANCH   3  20
ATOM     20  O   UNL     1     -13.832 -47.228  30.713  1.00  0.00    -0.368 OA
ATOM     21  H   UNL     1     -13.604 -47.491  31.623  1.00  0.00     0.213 HD
ENDBRANCH   3  20
BRANCH   9  22
ATOM     22  C   UNL     1     -14.000 -44.749  27.086  1.00  0.00     0.001 A 
ATOM     23  C   UNL     1     -14.947 -43.914  27.741  1.00  0.00     0.058 A 
ATOM     24  C   UNL     1     -13.958 -44.759  25.683  1.00  0.00     0.058 A 
ATOM     25  C   UNL     1     -15.822 -43.089  27.022  1.00  0.00     0.165 A 
ATOM     26  C   UNL     1     -14.831 -43.941  24.997  1.00  0.00     0.170 A 
ATOM     27  C   UNL     1     -15.734 -43.129  25.642  1.00  0.00     0.207 A 
ATOM     28  O   UNL     1     -14.906 -43.837  23.642  1.00  0.00    -0.453 OA
ATOM     29  O   UNL     1     -16.491 -42.411  24.763  1.00  0.00    -0.450 OA
ATOM     30  C   UNL     1     -15.964 -42.866  23.504  1.00  0.00     0.468 C 
BRANCH  25  31
ATOM     31  O   UNL     1     -16.758 -42.251  27.553  1.00  0.00    -0.493 OA
ATOM     32  C   UNL     1     -17.208 -42.529  28.872  1.00  0.00     0.278 C 
ENDBRANCH  25  31
ENDBRANCH   9  22
TORSDOF 6
ENDMDL
MODEL 2
REMARK VINA RESULT:   -10.065      1.154      2.174
REMARK INTER + INTRA:         -14.330
REMARK INTER:                 -13.150
REMARK INTRA:                  -1.180
REMARK UNBOUND:                -1.029
REMARK SMILES COc1ccc([C@H]2O[C@@H](O)[C@H]3[C@@H]2C(=O)O[C@@H]3c2cc(OC)c3c(c2)OCO3)cc1OC
REMARK SMILES IDX 7 1 8 2 9 3 11 4 12 5 13 6 14 7 15 8 16 9 6 10 3 11 4 12
REMARK SMILES IDX 29 13 5 14 28 15 2 16 1 17 30 18 31 19 10 20 17 22 18 23
REMARK SMILES IDX 24 24 19 25 23 26 22 27 25 28 27 29 26 30 20 31 21 32
REMARK H PARENT 10 21
ROOT
ATOM      1  C   UNL     1     -10.982 -45.784  30.904  1.00  0.00     0.166 C 
ATOM      2  O   UNL     1     -11.898 -46.707  31.525  1.00  0.00    -0.344 OA
ATOM      3  C   UNL     1     -12.999 -46.915  30.652  1.00  0.00     0.255 C 
ATOM      4  C   UNL     1     -13.055 -45.716  29.721  1.00  0.00     0.108 C 
ATOM      5  C   UNL     1     -11.609 -45.328  29.602  1.00  0.00     0.145 C 
ATOM      6  C   UNL     1     -11.158 -46.158  28.439  1.00  0.00     0.313 C 
ATOM      7  O   UNL     1      -9.999 -46.400  28.145  1.00  0.00    -0.252 OA
ATOM      8  O   UNL     1     -12.236 -46.605  27.730  1.00  0.00    -0.457 OA
ATOM      9  C   UNL     1     -13.449 -46.103  28.311  1.00  0.00     0.216 C 
ENDROOT
BRANCH   1  10
ATOM     10  C   UNL     1     -10.720 -44.613  31.831  1.00  0.00    -0.014 A 
ATOM     11  C   UNL     1     -10.161 -42.395  33.485  1.00  0.00     0.160 A 
ATOM     12  C   UNL     1      -9.120 -43.157  32.946  1.00  0.00     0.051 A 
ATOM     13  C   UNL     1     -11.495 -42.743  33.197  1.00  0.00     0.161 A 
ATOM     14  C   UNL     1      -9.398 -44.255  32.126  1.00  0.00     0.010 A 
ATOM     15  C   UNL     1     -11.762 -43.842  32.372  1.00  0.00     0.056 A 
BRANCH  11  16
ATOM     16  O   UNL     1      -9.982 -41.302  34.296  1.00  0.00    -0.493 OA
ATOM     17  C   UNL     1      -9.302 -41.498  35.527  1.00  0.00     0.278 C 
ENDBRANCH  11  16
BRANCH  13  18
ATOM     18  O   UNL     1     -12.461 -41.943  33.759  1.00  0.00    -0.493 OA
ATOM     19  C   UNL     1     -13.810 -42.380  33.669  1.00  0.00     0.278 C 
ENDBRANCH  13  18
ENDBRANCH   1  10
BRANCH   3  20
ATOM     20  O   UNL     1     -14.187 -46.969  31.411  1.00  0.00    -0.368 OA
ATOM     21  H   UNL     1     -14.250 -46.095  31.836  1.00  0.00     0.213 HD
ENDBRANCH   3  20
BRANCH   9  22
ATOM     22  C   UNL     1     -14.028 -44.950  27.509  1.00  0.00     0.001 A 
ATOM     23  C   UNL     1     -14.963 -44.079  28.134  1.00  0.00     0.058 A 
ATOM     24  C   UNL     1     -13.687 -44.728  26.165  1.00  0.00     0.058 A 
ATOM     25  C   UNL     1     -15.534 -42.998  27.450  1.00  0.00     0.165 A 
ATOM     26  C   UNL     1     -14.264 -43.660  25.511  1.00  0.00     0.170 A 
ATOM     27  C   UNL     1     -15.158 -42.819  26.131  1.00  0.00     0.207 A 
ATOM     28  O   UNL     1     -14.030 -43.315  24.216  1.00  0.00    -0.453 OA
ATOM     29  O   UNL     1     -15.596 -41.836  25.293  1.00  0.00    -0.450 OA
ATOM     30  C   UNL     1     -14.882 -42.159  24.086  1.00  0.00     0.468 C 
BRANCH  25  31
ATOM     31  O   UNL     1     -16.431 -42.105  27.959  1.00  0.00    -0.493 OA
ATOM     32  C   UNL     1     -17.796 -42.498  27.987  1.00  0.00     0.278 C 
ENDBRANCH  25  31
ENDBRANCH   9  22
TORSDOF 6
ENDMDL
MODEL 3
REMARK VINA RESULT:    -8.836      0.828      2.026
REMARK INTER + INTRA:         -12.706
REMARK INTER:                 -11.989
REMARK INTRA:                  -0.717
REMARK UNBOUND:                -1.029
REMARK SMILES COc1ccc([C@H]2O[C@@H](O)[C@H]3[C@@H]2C(=O)O[C@@H]3c2cc(OC)c3c(c2)OCO3)cc1OC
REMARK SMILES IDX 7 1 8 2 9 3 11 4 12 5 13 6 14 7 15 8 16 9 6 10 3 11 4 12
REMARK SMILES IDX 29 13 5 14 28 15 2 16 1 17 30 18 31 19 10 20 17 22 18 23
REMARK SMILES IDX 24 24 19 25 23 26 22 27 25 28 27 29 26 30 20 31 21 32
REMARK H PARENT 10 21
ROOT
ATOM      1  C   UNL     1     -11.794 -44.218  30.770  1.00  0.00     0.166 C 
ATOM      2  O   UNL     1     -12.017 -45.625  30.996  1.00  0.00    -0.344 OA
ATOM      3  C   UNL     1     -12.716 -46.161  29.881  1.00  0.00     0.255 C 
ATOM      4  C   UNL     1     -13.414 -44.998  29.198  1.00  0.00     0.108 C 
ATOM      5  C   UNL     1     -12.481 -43.852  29.470  1.00  0.00     0.145 C 
ATOM      6  C   UNL     1     -11.549 -43.925  28.300  1.00  0.00     0.313 C 
ATOM      7  O   UNL     1     -10.458 -43.385  28.226  1.00  0.00    -0.252 OA
ATOM      8  O   UNL     1     -12.096 -44.681  27.303  1.00  0.00    -0.457 OA
ATOM      9  C   UNL     1     -13.405 -45.129  27.690  1.00  0.00     0.216 C 
ENDROOT
BRANCH   1  10
ATOM     10  C   UNL     1     -12.345 -43.414  31.932  1.00  0.00    -0.014 A 
ATOM     11  C   UNL     1     -13.425 -42.005  34.126  1.00  0.00     0.160 A 
ATOM     12  C   UNL     1     -14.256 -42.745  33.280  1.00  0.00     0.051 A 
ATOM     13  C   UNL     1     -12.040 -41.966  33.874  1.00  0.00     0.161 A 
ATOM     14  C   UNL     1     -13.721 -43.444  32.194  1.00  0.00     0.010 A 
ATOM     15  C   UNL     1     -11.513 -42.672  32.786  1.00  0.00     0.056 A 
BRANCH  11  16
ATOM     16  O   UNL     1     -13.863 -41.292  35.215  1.00  0.00    -0.493 OA
ATOM     17  C   UNL     1     -15.137 -40.670  35.127  1.00  0.00     0.278 C 
ENDBRANCH  11  16
BRANCH  13  18
ATOM     18  O   UNL     1     -11.288 -41.223  34.752  1.00  0.00    -0.493 OA
ATOM     19  C   UNL     1      -9.947 -41.632  34.980  1.00  0.00     0.278 C 
ENDBRANCH  13  18
ENDBRANCH   1  10
BRANCH   3  20
ATOM     20  O   UNL     1     -13.684 -47.078  30.341  1.00  0.00    -0.368 OA
ATOM     21  H   UNL     1     -13.265 -47.521  31.100  1.00  0.00     0.213 HD
ENDBRANCH   3  20
BRANCH   9  22
ATOM     22  C   UNL     1     -14.503 -44.330  27.008  1.00  0.00     0.001 A 
ATOM     23  C   UNL     1     -14.418 -44.104  25.606  1.00  0.00     0.058 A 
ATOM     24  C   UNL     1     -15.586 -43.789  27.719  1.00  0.00     0.058 A 
ATOM     25  C   UNL     1     -15.397 -43.375  24.918  1.00  0.00     0.165 A 
ATOM     26  C   UNL     1     -16.535 -43.073  27.020  1.00  0.00     0.170 A 
ATOM     27  C   UNL     1     -16.447 -42.871  25.663  1.00  0.00     0.207 A 
ATOM     28  O   UNL     1     -17.639 -42.494  27.566  1.00  0.00    -0.453 OA
ATOM     29  O   UNL     1     -17.495 -42.138  25.189  1.00  0.00    -0.450 OA
ATOM     30  C   UNL     1     -18.240 -41.902  26.397  1.00  0.00     0.468 C 
BRANCH  25  31
ATOM     31  O   UNL     1     -15.410 -43.110  23.579  1.00  0.00    -0.493 OA
ATOM     32  C   UNL     1     -15.325 -41.748  23.185  1.00  0.00     0.278 C 
ENDBRANCH  25  31
ENDBRANCH   9  22
TORSDOF 6
ENDMDL
MODEL 4
REMARK VINA RESULT:    -8.560      5.707     10.568
REMARK INTER + INTRA:         -12.341
REMARK INTER:                 -11.082
REMARK INTRA:                  -1.259
REMARK UNBOUND:                -1.029
REMARK SMILES COc1ccc([C@H]2O[C@@H](O)[C@H]3[C@@H]2C(=O)O[C@@H]3c2cc(OC)c3c(c2)OCO3)cc1OC
REMARK SMILES IDX 7 1 8 2 9 3 11 4 12 5 13 6 14 7 15 8 16 9 6 10 3 11 4 12
REMARK SMILES IDX 29 13 5 14 28 15 2 16 1 17 30 18 31 19 10 20 17 22 18 23
REMARK SMILES IDX 24 24 19 25 23 26 22 27 25 28 27 29 26 30 20 31 21 32
REMARK H PARENT 10 21
ROOT
ATOM      1  C   UNL     1     -19.224 -41.615  22.794  1.00  0.00     0.166 C 
ATOM      2  O   UNL     1     -19.864 -42.746  22.170  1.00  0.00    -0.344 OA
ATOM      3  C   UNL     1     -21.258 -42.686  22.435  1.00  0.00     0.255 C 
ATOM      4  C   UNL     1     -21.434 -41.826  23.675  1.00  0.00     0.108 C 
ATOM      5  C   UNL     1     -20.287 -40.862  23.568  1.00  0.00     0.145 C 
ATOM      6  C   UNL     1     -20.888 -39.751  22.763  1.00  0.00     0.313 C 
ATOM      7  O   UNL     1     -20.267 -38.878  22.180  1.00  0.00    -0.252 OA
ATOM      8  O   UNL     1     -22.251 -39.837  22.779  1.00  0.00    -0.457 OA
ATOM      9  C   UNL     1     -22.663 -40.946  23.594  1.00  0.00     0.216 C 
ENDROOT
BRANCH   1  10
ATOM     10  C   UNL     1     -18.109 -42.090  23.705  1.00  0.00    -0.014 A 
ATOM     11  C   UNL     1     -15.965 -42.908  25.349  1.00  0.00     0.160 A 
ATOM     12  C   UNL     1     -15.824 -42.889  23.959  1.00  0.00     0.051 A 
ATOM     13  C   UNL     1     -17.188 -42.516  25.927  1.00  0.00     0.161 A 
ATOM     14  C   UNL     1     -16.886 -42.482  23.145  1.00  0.00     0.010 A 
ATOM     15  C   UNL     1     -18.244 -42.107  25.103  1.00  0.00     0.056 A 
BRANCH  11  16
ATOM     16  O   UNL     1     -14.978 -43.289  26.224  1.00  0.00    -0.493 OA
ATOM     17  C   UNL     1     -14.295 -44.506  25.958  1.00  0.00     0.278 C 
ENDBRANCH  11  16
BRANCH  13  18
ATOM     18  O   UNL     1     -17.248 -42.557  27.299  1.00  0.00    -0.493 OA
ATOM     19  C   UNL     1     -18.533 -42.519  27.904  1.00  0.00     0.278 C 
ENDBRANCH  13  18
ENDBRANCH   1  10
BRANCH   3  20
ATOM     20  O   UNL     1     -21.734 -43.987  22.701  1.00  0.00    -0.368 OA
ATOM     21  H   UNL     1     -21.520 -44.498  21.900  1.00  0.00     0.213 HD
ENDBRANCH   3  20
BRANCH   9  22
ATOM     22  C   UNL     1     -23.172 -40.494  24.952  1.00  0.00     0.001 A 
ATOM     23  C   UNL     1     -23.144 -41.414  26.036  1.00  0.00     0.058 A 
ATOM     24  C   UNL     1     -23.690 -39.207  25.166  1.00  0.00     0.058 A 
ATOM     25  C   UNL     1     -23.600 -41.060  27.313  1.00  0.00     0.165 A 
ATOM     26  C   UNL     1     -24.135 -38.883  26.430  1.00  0.00     0.170 A 
ATOM     27  C   UNL     1     -24.092 -39.777  27.473  1.00  0.00     0.207 A 
ATOM     28  O   UNL     1     -24.656 -37.678  26.792  1.00  0.00    -0.453 OA
ATOM     29  O   UNL     1     -24.582 -39.239  28.626  1.00  0.00    -0.450 OA
ATOM     30  C   UNL     1     -24.939 -37.915  28.186  1.00  0.00     0.468 C 
BRANCH  25  31
ATOM     31  O   UNL     1     -23.610 -41.863  28.416  1.00  0.00    -0.493 OA
ATOM     32  C   UNL     1     -24.630 -42.849  28.494  1.00  0.00     0.278 C 
ENDBRANCH  25  31
ENDBRANCH   9  22
TORSDOF 6
ENDMDL
MODEL 5
REMARK VINA RESULT:    -8.527      6.045     10.976
REMARK INTER + INTRA:         -12.297
REMARK INTER:                 -11.411
REMARK INTRA:                  -0.886
REMARK UNBOUND:                -1.029
REMARK SMILES COc1ccc([C@H]2O[C@@H](O)[C@H]3[C@@H]2C(=O)O[C@@H]3c2cc(OC)c3c(c2)OCO3)cc1OC
REMARK SMILES IDX 7 1 8 2 9 3 11 4 12 5 13 6 14 7 15 8 16 9 6 10 3 11 4 12
REMARK SMILES IDX 29 13 5 14 28 15 2 16 1 17 30 18 31 19 10 20 17 22 18 23
REMARK SMILES IDX 24 24 19 25 23 26 22 27 25 28 27 29 26 30 20 31 21 32
REMARK H PARENT 10 21
ROOT
ATOM      1  C   UNL     1     -22.738 -40.803  23.598  1.00  0.00     0.166 C 
ATOM      2  O   UNL     1     -22.446 -39.691  22.727  1.00  0.00    -0.344 OA
ATOM      3  C   UNL     1     -21.114 -39.821  22.251  1.00  0.00     0.255 C 
ATOM      4  C   UNL     1     -20.379 -40.710  23.239  1.00  0.00     0.108 C 
ATOM      5  C   UNL     1     -21.468 -41.618  23.734  1.00  0.00     0.145 C 
ATOM      6  C   UNL     1     -21.412 -42.741  22.744  1.00  0.00     0.313 C 
ATOM      7  O   UNL     1     -22.285 -43.573  22.562  1.00  0.00    -0.252 OA
ATOM      8  O   UNL     1     -20.226 -42.719  22.068  1.00  0.00    -0.457 OA
ATOM      9  C   UNL     1     -19.404 -41.645  22.554  1.00  0.00     0.216 C 
ENDROOT
BRANCH   1  10
ATOM     10  C   UNL     1     -23.215 -40.293  24.944  1.00  0.00    -0.014 A 
ATOM     11  C   UNL     1     -24.005 -39.300  27.465  1.00  0.00     0.160 A 
ATOM     12  C   UNL     1     -22.802 -39.999  27.324  1.00  0.00     0.051 A 
ATOM     13  C   UNL     1     -24.823 -39.095  26.337  1.00  0.00     0.161 A 
ATOM     14  C   UNL     1     -22.411 -40.489  26.074  1.00  0.00     0.010 A 
ATOM     15  C   UNL     1     -24.420 -39.588  25.090  1.00  0.00     0.056 A 
BRANCH  11  16
ATOM     16  O   UNL     1     -24.466 -38.782  28.650  1.00  0.00    -0.493 OA
ATOM     17  C   UNL     1     -23.947 -37.527  29.068  1.00  0.00     0.278 C 
ENDBRANCH  11  16
BRANCH  13  18
ATOM     18  O   UNL     1     -25.986 -38.395  26.555  1.00  0.00    -0.493 OA
ATOM     19  C   UNL     1     -27.213 -39.097  26.410  1.00  0.00     0.278 C 
ENDBRANCH  13  18
ENDBRANCH   1  10
BRANCH   3  20
ATOM     20  O   UNL     1     -20.505 -38.548  22.230  1.00  0.00    -0.368 OA
ATOM     21  H   UNL     1     -19.549 -38.731  22.230  1.00  0.00     0.213 HD
ENDBRANCH   3  20
BRANCH   9  22
ATOM     22  C   UNL     1     -18.301 -42.145  23.472  1.00  0.00     0.001 A 
ATOM     23  C   UNL     1     -18.480 -42.043  24.879  1.00  0.00     0.058 A 
ATOM     24  C   UNL     1     -17.103 -42.683  22.976  1.00  0.00     0.058 A 
ATOM     25  C   UNL     1     -17.501 -42.485  25.779  1.00  0.00     0.165 A 
ATOM     26  C   UNL     1     -16.153 -43.108  23.881  1.00  0.00     0.170 A 
ATOM     27  C   UNL     1     -16.343 -43.016  25.240  1.00  0.00     0.207 A 
ATOM     28  O   UNL     1     -14.950 -43.654  23.556  1.00  0.00    -0.453 OA
ATOM     29  O   UNL     1     -15.275 -43.497  25.937  1.00  0.00    -0.450 OA
ATOM     30  C   UNL     1     -14.399 -43.895  24.866  1.00  0.00     0.468 C 
BRANCH  25  31
ATOM     31  O   UNL     1     -17.579 -42.438  27.140  1.00  0.00    -0.493 OA
ATOM     32  C   UNL     1     -18.877 -42.441  27.719  1.00  0.00     0.278 C 
ENDBRANCH  25  31
ENDBRANCH   9  22
TORSDOF 6
ENDMDL
MODEL 6
REMARK VINA RESULT:    -8.476      5.721     11.607
REMARK INTER + INTRA:         -12.230
REMARK INTER:                 -10.933
REMARK INTRA:                  -1.297
REMARK UNBOUND:                -1.029
REMARK SMILES COc1ccc([C@H]2O[C@@H](O)[C@H]3[C@@H]2C(=O)O[C@@H]3c2cc(OC)c3c(c2)OCO3)cc1OC
REMARK SMILES IDX 7 1 8 2 9 3 11 4 12 5 13 6 14 7 15 8 16 9 6 10 3 11 4 12
REMARK SMILES IDX 29 13 5 14 28 15 2 16 1 17 30 18 31 19 10 20 17 22 18 23
REMARK SMILES IDX 24 24 19 25 23 26 22 27 25 28 27 29 26 30 20 31 21 32
REMARK H PARENT 10 21
ROOT
ATOM      1  C   UNL     1     -22.714 -40.798  24.619  1.00  0.00     0.166 C 
ATOM      2  O   UNL     1     -23.302 -42.093  24.379  1.00  0.00    -0.344 OA
ATOM      3  C   UNL     1     -22.380 -43.095  24.779  1.00  0.00     0.255 C 
ATOM      4  C   UNL     1     -21.001 -42.457  24.765  1.00  0.00     0.108 C 
ATOM      5  C   UNL     1     -21.301 -41.027  25.116  1.00  0.00     0.145 C 
ATOM      6  C   UNL     1     -21.228 -41.052  26.612  1.00  0.00     0.313 C 
ATOM      7  O   UNL     1     -21.675 -40.199  27.361  1.00  0.00    -0.252 OA
ATOM      8  O   UNL     1     -20.571 -42.171  27.037  1.00  0.00    -0.457 OA
ATOM      9  C   UNL     1     -20.132 -42.941  25.906  1.00  0.00     0.216 C 
ENDROOT
BRANCH   1  10
ATOM     10  C   UNL     1     -22.725 -39.981  23.342  1.00  0.00    -0.014 A 
ATOM     11  C   UNL     1     -22.800 -38.382  21.017  1.00  0.00     0.160 A 
ATOM     12  C   UNL     1     -23.966 -38.626  21.748  1.00  0.00     0.051 A 
ATOM     13  C   UNL     1     -21.582 -38.943  21.450  1.00  0.00     0.161 A 
ATOM     14  C   UNL     1     -23.928 -39.417  22.900  1.00  0.00     0.010 A 
ATOM     15  C   UNL     1     -21.554 -39.731  22.607  1.00  0.00     0.056 A 
BRANCH  11  16
ATOM     16  O   UNL     1     -22.743 -37.617  19.878  1.00  0.00    -0.493 OA
ATOM     17  C   UNL     1     -23.483 -38.060  18.749  1.00  0.00     0.278 C 
ENDBRANCH  11  16
BRANCH  13  18
ATOM     18  O   UNL     1     -20.479 -38.654  20.682  1.00  0.00    -0.493 OA
ATOM     19  C   UNL     1     -19.721 -39.746  20.182  1.00  0.00     0.278 C 
ENDBRANCH  13  18
ENDBRANCH   1  10
BRANCH   3  20
ATOM     20  O   UNL     1     -22.411 -44.152  23.845  1.00  0.00    -0.368 OA
ATOM     21  H   UNL     1     -22.900 -43.794  23.083  1.00  0.00     0.213 HD
ENDBRANCH   3  20
BRANCH   9  22
ATOM     22  C   UNL     1     -18.645 -42.771  25.646  1.00  0.00     0.001 A 
ATOM     23  C   UNL     1     -18.196 -42.612  24.306  1.00  0.00     0.058 A 
ATOM     24  C   UNL     1     -17.698 -42.789  26.682  1.00  0.00     0.058 A 
ATOM     25  C   UNL     1     -16.838 -42.451  23.999  1.00  0.00     0.165 A 
ATOM     26  C   UNL     1     -16.368 -42.632  26.355  1.00  0.00     0.170 A 
ATOM     27  C   UNL     1     -15.947 -42.467  25.057  1.00  0.00     0.207 A 
ATOM     28  O   UNL     1     -15.338 -42.622  27.245  1.00  0.00    -0.453 OA
ATOM     29  O   UNL     1     -14.593 -42.330  24.974  1.00  0.00    -0.450 OA
ATOM     30  C   UNL     1     -14.217 -42.433  26.359  1.00  0.00     0.468 C 
BRANCH  25  31
ATOM     31  O   UNL     1     -16.309 -42.285  22.753  1.00  0.00    -0.493 OA
ATOM     32  C   UNL     1     -16.579 -41.058  22.088  1.00  0.00     0.278 C 
ENDBRANCH  25  31
ENDBRANCH   9  22
TORSDOF 6
ENDMDL
MODEL 7
REMARK VINA RESULT:    -8.428      5.494      9.932
REMARK INTER + INTRA:         -12.167
REMARK INTER:                 -11.332
REMARK INTRA:                  -0.835
REMARK UNBOUND:                -1.029
REMARK SMILES COc1ccc([C@H]2O[C@@H](O)[C@H]3[C@@H]2C(=O)O[C@@H]3c2cc(OC)c3c(c2)OCO3)cc1OC
REMARK SMILES IDX 7 1 8 2 9 3 11 4 12 5 13 6 14 7 15 8 16 9 6 10 3 11 4 12
REMARK SMILES IDX 29 13 5 14 28 15 2 16 1 17 30 18 31 19 10 20 17 22 18 23
REMARK SMILES IDX 24 24 19 25 23 26 22 27 25 28 27 29 26 30 20 31 21 32
REMARK H PARENT 10 21
ROOT
ATOM      1  C   UNL     1     -20.137 -42.919  26.193  1.00  0.00     0.166 C 
ATOM      2  O   UNL     1     -20.775 -42.238  27.292  1.00  0.00    -0.344 OA
ATOM      3  C   UNL     1     -21.727 -41.322  26.770  1.00  0.00     0.255 C 
ATOM      4  C   UNL     1     -21.314 -41.025  25.339  1.00  0.00     0.108 C 
ATOM      5  C   UNL     1     -20.672 -42.314  24.911  1.00  0.00     0.145 C 
ATOM      6  C   UNL     1     -21.840 -43.081  24.371  1.00  0.00     0.313 C 
ATOM      7  O   UNL     1     -21.870 -44.284  24.171  1.00  0.00    -0.252 OA
ATOM      8  O   UNL     1     -22.884 -42.238  24.116  1.00  0.00    -0.457 OA
ATOM      9  C   UNL     1     -22.506 -40.884  24.415  1.00  0.00     0.216 C 
ENDROOT
BRANCH   1  10
ATOM     10  C   UNL     1     -18.631 -42.763  26.291  1.00  0.00    -0.014 A 
ATOM     11  C   UNL     1     -15.829 -42.546  26.553  1.00  0.00     0.160 A 
ATOM     12  C   UNL     1     -16.654 -42.484  27.681  1.00  0.00     0.051 A 
ATOM     13  C   UNL     1     -16.409 -42.717  25.281  1.00  0.00     0.161 A 
ATOM     14  C   UNL     1     -18.041 -42.592  27.551  1.00  0.00     0.010 A 
ATOM     15  C   UNL     1     -17.799 -42.828  25.162  1.00  0.00     0.056 A 
BRANCH  11  16
ATOM     16  O   UNL     1     -14.460 -42.451  26.587  1.00  0.00    -0.493 OA
ATOM     17  C   UNL     1     -13.726 -43.624  26.909  1.00  0.00     0.278 C 
ENDBRANCH  11  16
BRANCH  13  18
ATOM     18  O   UNL     1     -15.533 -42.774  24.223  1.00  0.00    -0.493 OA
ATOM     19  C   UNL     1     -15.637 -41.765  23.229  1.00  0.00     0.278 C 
ENDBRANCH  13  18
ENDBRANCH   1  10
BRANCH   3  20
ATOM     20  O   UNL     1     -21.681 -40.129  27.523  1.00  0.00    -0.368 OA
ATOM     21  H   UNL     1     -22.608 -39.838  27.582  1.00  0.00     0.213 HD
ENDBRANCH   3  20
BRANCH   9  22
ATOM     22  C   UNL     1     -22.204 -40.088  23.157  1.00  0.00     0.001 A 
ATOM     23  C   UNL     1     -20.915 -40.200  22.567  1.00  0.00     0.058 A 
ATOM     24  C   UNL     1     -23.148 -39.229  22.571  1.00  0.00     0.058 A 
ATOM     25  C   UNL     1     -20.573 -39.493  21.407  1.00  0.00     0.165 A 
ATOM     26  C   UNL     1     -22.787 -38.542  21.432  1.00  0.00     0.170 A 
ATOM     27  C   UNL     1     -21.542 -38.667  20.864  1.00  0.00     0.207 A 
ATOM     28  O   UNL     1     -23.591 -37.680  20.750  1.00  0.00    -0.453 OA
ATOM     29  O   UNL     1     -21.411 -37.896  19.747  1.00  0.00    -0.450 OA
ATOM     30  C   UNL     1     -22.708 -37.274  19.684  1.00  0.00     0.468 C 
BRANCH  25  31
ATOM     31  O   UNL     1     -19.372 -39.536  20.762  1.00  0.00    -0.493 OA
ATOM     32  C   UNL     1     -18.342 -40.314  21.356  1.00  0.00     0.278 C 
ENDBRANCH  25  31
ENDBRANCH   9  22
TORSDOF 6
ENDMDL
MODEL 8
REMARK VINA RESULT:    -8.293      5.558     11.096
REMARK INTER + INTRA:         -11.988
REMARK INTER:                 -11.273
REMARK INTRA:                  -0.715
REMARK UNBOUND:                -1.029
REMARK SMILES COc1ccc([C@H]2O[C@@H](O)[C@H]3[C@@H]2C(=O)O[C@@H]3c2cc(OC)c3c(c2)OCO3)cc1OC
REMARK SMILES IDX 7 1 8 2 9 3 11 4 12 5 13 6 14 7 15 8 16 9 6 10 3 11 4 12
REMARK SMILES IDX 29 13 5 14 28 15 2 16 1 17 30 18 31 19 10 20 17 22 18 23
REMARK SMILES IDX 24 24 19 25 23 26 22 27 25 28 27 29 26 30 20 31 21 32
REMARK H PARENT 10 21
ROOT
ATOM      1  C   UNL     1     -22.182 -43.779  25.120  1.00  0.00     0.166 C 
ATOM      2  O   UNL     1     -22.501 -43.984  26.511  1.00  0.00    -0.344 OA
ATOM      3  C   UNL     1     -21.435 -43.484  27.304  1.00  0.00     0.255 C 
ATOM      4  C   UNL     1     -20.202 -43.455  26.417  1.00  0.00     0.108 C 
ATOM      5  C   UNL     1     -20.785 -43.193  25.057  1.00  0.00     0.145 C 
ATOM      6  C   UNL     1     -20.804 -41.696  25.008  1.00  0.00     0.313 C 
ATOM      7  O   UNL     1     -21.450 -41.018  24.227  1.00  0.00    -0.252 OA
ATOM      8  O   UNL     1     -19.978 -41.180  25.965  1.00  0.00    -0.457 OA
ATOM      9  C   UNL     1     -19.332 -42.244  26.682  1.00  0.00     0.216 C 
ENDROOT
BRANCH   1  10
ATOM     10  C   UNL     1     -22.264 -45.094  24.371  1.00  0.00    -0.014 A 
ATOM     11  C   UNL     1     -22.475 -47.583  23.057  1.00  0.00     0.160 A 
ATOM     12  C   UNL     1     -22.081 -47.521  24.397  1.00  0.00     0.051 A 
ATOM     13  C   UNL     1     -22.765 -46.392  22.364  1.00  0.00     0.161 A 
ATOM     14  C   UNL     1     -21.978 -46.287  25.047  1.00  0.00     0.010 A 
ATOM     15  C   UNL     1     -22.662 -45.162  23.025  1.00  0.00     0.056 A 
BRANCH  11  16
ATOM     16  O   UNL     1     -22.606 -48.747  22.340  1.00  0.00    -0.493 OA
ATOM     17  C   UNL     1     -23.182 -49.866  22.999  1.00  0.00     0.278 C 
ENDBRANCH  11  16
BRANCH  13  18
ATOM     18  O   UNL     1     -23.150 -46.536  21.052  1.00  0.00    -0.493 OA
ATOM     19  C   UNL     1     -24.514 -46.294  20.736  1.00  0.00     0.278 C 
ENDBRANCH  13  18
ENDBRANCH   1  10
BRANCH   3  20
ATOM     20  O   UNL     1     -21.209 -44.363  28.383  1.00  0.00    -0.368 OA
ATOM     21  H   UNL     1     -21.437 -43.846  29.176  1.00  0.00     0.213 HD
ENDBRANCH   3  20
BRANCH   9  22
ATOM     22  C   UNL     1     -17.889 -42.430  26.244  1.00  0.00     0.001 A 
ATOM     23  C   UNL     1     -17.579 -42.360  24.858  1.00  0.00     0.058 A 
ATOM     24  C   UNL     1     -16.857 -42.691  27.159  1.00  0.00     0.058 A 
ATOM     25  C   UNL     1     -16.268 -42.523  24.388  1.00  0.00     0.165 A 
ATOM     26  C   UNL     1     -15.577 -42.851  26.673  1.00  0.00     0.170 A 
ATOM     27  C   UNL     1     -15.287 -42.768  25.332  1.00  0.00     0.207 A 
ATOM     28  O   UNL     1     -14.476 -43.101  27.433  1.00  0.00    -0.453 OA
ATOM     29  O   UNL     1     -13.960 -42.958  25.085  1.00  0.00    -0.450 OA
ATOM     30  C   UNL     1     -13.456 -43.170  26.417  1.00  0.00     0.468 C 
BRANCH  25  31
ATOM     31  O   UNL     1     -15.867 -42.467  23.085  1.00  0.00    -0.493 OA
ATOM     32  C   UNL     1     -16.227 -41.310  22.342  1.00  0.00     0.278 C 
ENDBRANCH  25  31
ENDBRANCH   9  22
TORSDOF 6
ENDMDL
MODEL 9
REMARK VINA RESULT:    -8.281      5.673      9.795
REMARK INTER + INTRA:         -11.972
REMARK INTER:                 -10.991
REMARK INTRA:                  -0.981
REMARK UNBOUND:                -1.029
REMARK SMILES COc1ccc([C@H]2O[C@@H](O)[C@H]3[C@@H]2C(=O)O[C@@H]3c2cc(OC)c3c(c2)OCO3)cc1OC
REMARK SMILES IDX 7 1 8 2 9 3 11 4 12 5 13 6 14 7 15 8 16 9 6 10 3 11 4 12
REMARK SMILES IDX 29 13 5 14 28 15 2 16 1 17 30 18 31 19 10 20 17 22 18 23
REMARK SMILES IDX 24 24 19 25 23 26 22 27 25 28 27 29 26 30 20 31 21 32
REMARK H PARENT 10 21
ROOT
ATOM      1  C   UNL     1     -19.811 -42.351  27.015  1.00  0.00     0.166 C 
ATOM      2  O   UNL     1     -20.366 -41.114  26.524  1.00  0.00    -0.344 OA
ATOM      3  C   UNL     1     -21.490 -41.411  25.708  1.00  0.00     0.255 C 
ATOM      4  C   UNL     1     -21.325 -42.846  25.237  1.00  0.00     0.108 C 
ATOM      5  C   UNL     1     -20.594 -43.484  26.383  1.00  0.00     0.145 C 
ATOM      6  C   UNL     1     -21.722 -43.943  27.256  1.00  0.00     0.313 C 
ATOM      7  O   UNL     1     -21.629 -44.260  28.430  1.00  0.00    -0.252 OA
ATOM      8  O   UNL     1     -22.888 -43.973  26.546  1.00  0.00    -0.457 OA
ATOM      9  C   UNL     1     -22.644 -43.588  25.184  1.00  0.00     0.216 C 
ENDROOT
BRANCH   1  10
ATOM     10  C   UNL     1     -18.338 -42.432  26.662  1.00  0.00    -0.014 A 
ATOM     11  C   UNL     1     -15.587 -42.664  26.075  1.00  0.00     0.160 A 
ATOM     12  C   UNL     1     -16.024 -42.577  27.400  1.00  0.00     0.051 A 
ATOM     13  C   UNL     1     -16.532 -42.635  25.031  1.00  0.00     0.161 A 
ATOM     14  C   UNL     1     -17.387 -42.463  27.690  1.00  0.00     0.010 A 
ATOM     15  C   UNL     1     -17.895 -42.524  25.332  1.00  0.00     0.056 A 
BRANCH  11  16
ATOM     16  O   UNL     1     -14.272 -42.781  25.698  1.00  0.00    -0.493 OA
ATOM     17  C   UNL     1     -13.346 -43.245  26.670  1.00  0.00     0.278 C 
ENDBRANCH  11  16
BRANCH  13  18
ATOM     18  O   UNL     1     -16.025 -42.731  23.757  1.00  0.00    -0.493 OA
ATOM     19  C   UNL     1     -16.310 -41.672  22.854  1.00  0.00     0.278 C 
ENDBRANCH  13  18
ENDBRANCH   1  10
BRANCH   3  20
ATOM     20  O   UNL     1     -21.487 -40.552  24.588  1.00  0.00    -0.368 OA
ATOM     21  H   UNL     1     -21.151 -39.704  24.928  1.00  0.00     0.213 HD
ENDBRANCH   3  20
BRANCH   9  22
ATOM     22  C   UNL     1     -22.626 -44.786  24.250  1.00  0.00     0.001 A 
ATOM     23  C   UNL     1     -22.691 -44.563  22.847  1.00  0.00     0.058 A 
ATOM     24  C   UNL     1     -22.570 -46.105  24.727  1.00  0.00     0.058 A 
ATOM     25  C   UNL     1     -22.679 -45.625  21.932  1.00  0.00     0.165 A 
ATOM     26  C   UNL     1     -22.562 -47.133  23.808  1.00  0.00     0.170 A 
ATOM     27  C   UNL     1     -22.614 -46.904  22.453  1.00  0.00     0.207 A 
ATOM     28  O   UNL     1     -22.505 -48.458  24.115  1.00  0.00    -0.453 OA
ATOM     29  O   UNL     1     -22.594 -48.066  21.740  1.00  0.00    -0.450 OA
ATOM     30  C   UNL     1     -22.528 -49.041  22.797  1.00  0.00     0.468 C 
BRANCH  25  31
ATOM     31  O   UNL     1     -22.731 -45.517  20.573  1.00  0.00    -0.493 OA
ATOM     32  C   UNL     1     -23.304 -44.334  20.035  1.00  0.00     0.278 C 
ENDBRANCH  25  31
ENDBRANCH   9  22
TORSDOF 6
ENDMDL
