MODEL 1
REMARK VINA RESULT:    -9.920      0.000      0.000
REMARK INTER + INTRA:         -10.210
REMARK INTER:                 -10.210
REMARK INTRA:                   0.000
REMARK UNBOUND:                 0.000
REMARK SMILES CC1=C[C@H]2Cc3nc4cc(Cl)ccc4c(N)c3[C@@H](C1)C2
REMARK SMILES IDX 15 1 17 2 6 3 7 4 8 5 9 6 10 7 11 8 12 9 13 10 14 11 5 12
REMARK SMILES IDX 4 13 3 14 2 15 1 16 19 17 18 18 20 19 16 20
REMARK H PARENT 16 21 16 22
ROOT
ATOM      1  C   UNL     1     -13.285 -45.513  27.541  1.00  0.00     0.046 A 
ATOM      2  C   UNL     1     -13.425 -45.406  28.937  1.00  0.00     0.001 A 
ATOM      3  C   UNL     1     -14.317 -44.451  29.433  1.00  0.00     0.047 A 
ATOM      4  N   UNL     1     -15.091 -43.680  28.632  1.00  0.00    -0.252 NA
ATOM      5  C   UNL     1     -15.002 -43.827  27.305  1.00  0.00     0.074 A 
ATOM      6  C   UNL     1     -15.829 -43.039  26.518  1.00  0.00     0.049 A 
ATOM      7  C   UNL     1     -15.820 -43.142  25.130  1.00  0.00     0.043 A 
ATOM      8  Cl  UNL     1     -16.864 -42.151  24.189  1.00  0.00    -0.084 Cl
ATOM      9  C   UNL     1     -14.975 -44.045  24.502  1.00  0.00     0.021 A 
ATOM     10  C   UNL     1     -14.133 -44.843  25.276  1.00  0.00     0.014 A 
ATOM     11  C   UNL     1     -14.124 -44.745  26.690  1.00  0.00     0.024 A 
ATOM     12  C   UNL     1     -14.528 -44.248  30.917  1.00  0.00     0.064 C 
ATOM     13  C   UNL     1     -13.474 -44.940  31.794  1.00  0.00     0.018 C 
ATOM     14  C   UNL     1     -12.181 -44.151  31.811  1.00  0.00    -0.024 C 
ATOM     15  C   UNL     1     -11.123 -44.464  31.041  1.00  0.00    -0.076 C 
ATOM     16  C   UNL     1      -9.842 -43.685  31.081  1.00  0.00     0.039 C 
ATOM     17  C   UNL     1     -11.166 -45.625  30.066  1.00  0.00     0.039 C 
ATOM     18  C   UNL     1     -12.575 -46.242  29.889  1.00  0.00     0.028 C 
ATOM     19  C   UNL     1     -13.249 -46.357  31.261  1.00  0.00     0.017 C 
ENDROOT
BRANCH   1  20
ATOM     20  N   UNL     1     -12.454 -46.541  27.026  1.00  0.00    -0.398 N 
ATOM     21  H   UNL     1     -12.896 -46.974  26.216  1.00  0.00     0.156 HD
ATOM     22  H   UNL     1     -11.527 -46.213  26.775  1.00  0.00     0.156 HD
ENDBRANCH   1  20
TORSDOF 1
ENDMDL
MODEL 2
REMARK VINA RESULT:    -9.731      4.293      7.951
REMARK INTER + INTRA:         -10.015
REMARK INTER:                 -10.015
REMARK INTRA:                   0.000
REMARK UNBOUND:                 0.000
REMARK SMILES CC1=C[C@H]2Cc3nc4cc(Cl)ccc4c(N)c3[C@@H](C1)C2
REMARK SMILES IDX 15 1 17 2 6 3 7 4 8 5 9 6 10 7 11 8 12 9 13 10 14 11 5 12
REMARK SMILES IDX 4 13 3 14 2 15 1 16 19 17 18 18 20 19 16 20
REMARK H PARENT 16 21 16 22
ROOT
ATOM      1  C   UNL     1     -17.773 -42.721  24.095  1.00  0.00     0.046 A 
ATOM      2  C   UNL     1     -18.868 -42.207  24.814  1.00  0.00     0.001 A 
ATOM      3  C   UNL     1     -18.729 -42.059  26.197  1.00  0.00     0.047 A 
ATOM      4  N   UNL     1     -17.576 -42.325  26.854  1.00  0.00    -0.252 NA
ATOM      5  C   UNL     1     -16.515 -42.754  26.159  1.00  0.00     0.074 A 
ATOM      6  C   UNL     1     -15.344 -42.990  26.863  1.00  0.00     0.049 A 
ATOM      7  C   UNL     1     -14.186 -43.415  26.218  1.00  0.00     0.043 A 
ATOM      8  Cl  UNL     1     -12.750 -43.693  27.125  1.00  0.00    -0.084 Cl
ATOM      9  C   UNL     1     -14.183 -43.612  24.845  1.00  0.00     0.021 A 
ATOM     10  C   UNL     1     -15.353 -43.384  24.121  1.00  0.00     0.014 A 
ATOM     11  C   UNL     1     -16.542 -42.958  24.763  1.00  0.00     0.024 A 
ATOM     12  C   UNL     1     -19.853 -41.530  27.060  1.00  0.00     0.064 C 
ATOM     13  C   UNL     1     -21.212 -41.476  26.347  1.00  0.00     0.018 C 
ATOM     14  C   UNL     1     -21.839 -42.853  26.274  1.00  0.00    -0.024 C 
ATOM     15  C   UNL     1     -21.776 -43.628  25.177  1.00  0.00    -0.076 C 
ATOM     16  C   UNL     1     -22.418 -44.983  25.112  1.00  0.00     0.039 C 
ATOM     17  C   UNL     1     -21.034 -43.182  23.931  1.00  0.00     0.039 C 
ATOM     18  C   UNL     1     -20.195 -41.897  24.128  1.00  0.00     0.028 C 
ATOM     19  C   UNL     1     -21.008 -40.888  24.949  1.00  0.00     0.017 C 
ENDROOT
BRANCH   1  20
ATOM     20  N   UNL     1     -17.869 -42.787  22.680  1.00  0.00    -0.398 N 
ATOM     21  H   UNL     1     -18.845 -42.868  22.400  1.00  0.00     0.156 HD
ATOM     22  H   UNL     1     -17.445 -41.990  22.217  1.00  0.00     0.156 HD
ENDBRANCH   1  20
TORSDOF 1
ENDMDL
MODEL 3
REMARK VINA RESULT:    -9.346      1.987      3.064
REMARK INTER + INTRA:          -9.619
REMARK INTER:                  -9.619
REMARK INTRA:                   0.000
REMARK UNBOUND:                 0.000
REMARK SMILES CC1=C[C@H]2Cc3nc4cc(Cl)ccc4c(N)c3[C@@H](C1)C2
REMARK SMILES IDX 15 1 17 2 6 3 7 4 8 5 9 6 10 7 11 8 12 9 13 10 14 11 5 12
REMARK SMILES IDX 4 13 3 14 2 15 1 16 19 17 18 18 20 19 16 20
REMARK H PARENT 16 21 16 22
ROOT
ATOM      1  C   UNL     1     -12.997 -44.814  29.527  1.00  0.00     0.046 A 
ATOM      2  C   UNL     1     -11.894 -44.296  30.230  1.00  0.00     0.001 A 
ATOM      3  C   UNL     1     -11.093 -43.350  29.584  1.00  0.00     0.047 A 
ATOM      4  N   UNL     1     -11.371 -42.871  28.349  1.00  0.00    -0.252 NA
ATOM      5  C   UNL     1     -12.455 -43.319  27.705  1.00  0.00     0.074 A 
ATOM      6  C   UNL     1     -12.722 -42.786  26.453  1.00  0.00     0.049 A 
ATOM      7  C   UNL     1     -13.841 -43.176  25.724  1.00  0.00     0.043 A 
ATOM      8  Cl  UNL     1     -14.140 -42.488  24.176  1.00  0.00    -0.084 Cl
ATOM      9  C   UNL     1     -14.719 -44.115  26.242  1.00  0.00     0.021 A 
ATOM     10  C   UNL     1     -14.466 -44.666  27.497  1.00  0.00     0.014 A 
ATOM     11  C   UNL     1     -13.327 -44.286  28.251  1.00  0.00     0.024 A 
ATOM     12  C   UNL     1      -9.877 -42.744  30.249  1.00  0.00     0.064 C 
ATOM     13  C   UNL     1      -9.439 -43.475  31.527  1.00  0.00     0.018 C 
ATOM     14  C   UNL     1      -8.694 -44.750  31.193  1.00  0.00    -0.024 C 
ATOM     15  C   UNL     1      -9.274 -45.963  31.212  1.00  0.00    -0.076 C 
ATOM     16  C   UNL     1      -8.518 -47.221  30.897  1.00  0.00     0.039 C 
ATOM     17  C   UNL     1     -10.745 -46.135  31.541  1.00  0.00     0.039 C 
ATOM     18  C   UNL     1     -11.528 -44.803  31.622  1.00  0.00     0.028 C 
ATOM     19  C   UNL     1     -10.682 -43.768  32.373  1.00  0.00     0.017 C 
ENDROOT
BRANCH   1  20
ATOM     20  N   UNL     1     -13.871 -45.703  30.206  1.00  0.00    -0.398 N 
ATOM     21  H   UNL     1     -14.577 -45.175  30.718  1.00  0.00     0.156 HD
ATOM     22  H   UNL     1     -14.322 -46.365  29.585  1.00  0.00     0.156 HD
ENDBRANCH   1  20
TORSDOF 1
ENDMDL
MODEL 4
REMARK VINA RESULT:    -9.167      5.139      9.624
REMARK INTER + INTRA:          -9.435
REMARK INTER:                  -9.435
REMARK INTRA:                   0.000
REMARK UNBOUND:                 0.000
REMARK SMILES CC1=C[C@H]2Cc3nc4cc(Cl)ccc4c(N)c3[C@@H](C1)C2
REMARK SMILES IDX 15 1 17 2 6 3 7 4 8 5 9 6 10 7 11 8 12 9 13 10 14 11 5 12
REMARK SMILES IDX 4 13 3 14 2 15 1 16 19 17 18 18 20 19 16 20
REMARK H PARENT 16 21 16 22
ROOT
ATOM      1  C   UNL     1     -17.287 -41.178  22.550  1.00  0.00     0.046 A 
ATOM      2  C   UNL     1     -18.645 -40.851  22.720  1.00  0.00     0.001 A 
ATOM      3  C   UNL     1     -19.299 -41.342  23.854  1.00  0.00     0.047 A 
ATOM      4  N   UNL     1     -18.668 -42.057  24.815  1.00  0.00    -0.252 NA
ATOM      5  C   UNL     1     -17.362 -42.315  24.683  1.00  0.00     0.074 A 
ATOM      6  C   UNL     1     -16.744 -43.026  25.700  1.00  0.00     0.049 A 
ATOM      7  C   UNL     1     -15.384 -43.319  25.657  1.00  0.00     0.043 A 
ATOM      8  Cl  UNL     1     -14.654 -44.200  26.941  1.00  0.00    -0.084 Cl
ATOM      9  C   UNL     1     -14.613 -42.898  24.584  1.00  0.00     0.021 A 
ATOM     10  C   UNL     1     -15.217 -42.185  23.549  1.00  0.00     0.014 A 
ATOM     11  C   UNL     1     -16.602 -41.886  23.573  1.00  0.00     0.024 A 
ATOM     12  C   UNL     1     -20.761 -41.058  24.119  1.00  0.00     0.064 C 
ATOM     13  C   UNL     1     -21.509 -40.473  22.913  1.00  0.00     0.018 C 
ATOM     14  C   UNL     1     -21.842 -41.554  21.906  1.00  0.00    -0.024 C 
ATOM     15  C   UNL     1     -21.108 -41.775  20.800  1.00  0.00    -0.076 C 
ATOM     16  C   UNL     1     -21.461 -42.838  19.801  1.00  0.00     0.039 C 
ATOM     17  C   UNL     1     -19.861 -40.966  20.499  1.00  0.00     0.039 C 
ATOM     18  C   UNL     1     -19.410 -40.055  21.666  1.00  0.00     0.028 C 
ATOM     19  C   UNL     1     -20.641 -39.380  22.282  1.00  0.00     0.017 C 
ENDROOT
BRANCH   1  20
ATOM     20  N   UNL     1     -16.590 -40.607  21.453  1.00  0.00    -0.398 N 
ATOM     21  H   UNL     1     -15.797 -40.062  21.790  1.00  0.00     0.156 HD
ATOM     22  H   UNL     1     -16.269 -41.300  20.785  1.00  0.00     0.156 HD
ENDBRANCH   1  20
TORSDOF 1
ENDMDL
MODEL 5
REMARK VINA RESULT:    -9.069      1.831      2.478
REMARK INTER + INTRA:          -9.334
REMARK INTER:                  -9.334
REMARK INTRA:                   0.000
REMARK UNBOUND:                 0.000
REMARK SMILES CC1=C[C@H]2Cc3nc4cc(Cl)ccc4c(N)c3[C@@H](C1)C2
REMARK SMILES IDX 15 1 17 2 6 3 7 4 8 5 9 6 10 7 11 8 12 9 13 10 14 11 5 12
REMARK SMILES IDX 4 13 3 14 2 15 1 16 19 17 18 18 20 19 16 20
REMARK H PARENT 16 21 16 22
ROOT
ATOM      1  C   UNL     1     -11.549 -43.375  27.811  1.00  0.00     0.046 A 
ATOM      2  C   UNL     1     -11.314 -44.392  28.755  1.00  0.00     0.001 A 
ATOM      3  C   UNL     1     -12.407 -45.151  29.182  1.00  0.00     0.047 A 
ATOM      4  N   UNL     1     -13.655 -44.992  28.681  1.00  0.00    -0.252 NA
ATOM      5  C   UNL     1     -13.865 -44.066  27.738  1.00  0.00     0.074 A 
ATOM      6  C   UNL     1     -15.150 -43.951  27.230  1.00  0.00     0.049 A 
ATOM      7  C   UNL     1     -15.453 -43.031  26.231  1.00  0.00     0.043 A 
ATOM      8  Cl  UNL     1     -17.059 -42.920  25.623  1.00  0.00    -0.084 Cl
ATOM      9  C   UNL     1     -14.464 -42.205  25.718  1.00  0.00     0.021 A 
ATOM     10  C   UNL     1     -13.167 -42.303  26.219  1.00  0.00     0.014 A 
ATOM     11  C   UNL     1     -12.842 -43.229  27.242  1.00  0.00     0.024 A 
ATOM     12  C   UNL     1     -12.262 -46.257  30.204  1.00  0.00     0.064 C 
ATOM     13  C   UNL     1     -10.912 -46.252  30.935  1.00  0.00     0.018 C 
ATOM     14  C   UNL     1     -10.879 -45.181  32.005  1.00  0.00    -0.024 C 
ATOM     15  C   UNL     1     -10.298 -43.981  31.822  1.00  0.00    -0.076 C 
ATOM     16  C   UNL     1     -10.257 -42.935  32.897  1.00  0.00     0.039 C 
ATOM     17  C   UNL     1      -9.655 -43.604  30.500  1.00  0.00     0.039 C 
ATOM     18  C   UNL     1      -9.931 -44.613  29.359  1.00  0.00     0.028 C 
ATOM     19  C   UNL     1      -9.798 -46.039  29.906  1.00  0.00     0.017 C 
ENDROOT
BRANCH   1  20
ATOM     20  N   UNL     1     -10.433 -42.661  27.300  1.00  0.00    -0.398 N 
ATOM     21  H   UNL     1      -9.570 -43.149  27.533  1.00  0.00     0.156 HD
ATOM     22  H   UNL     1     -10.483 -42.514  26.297  1.00  0.00     0.156 HD
ENDBRANCH   1  20
TORSDOF 1
ENDMDL
MODEL 6
REMARK VINA RESULT:    -8.402      5.346      9.679
REMARK INTER + INTRA:          -8.647
REMARK INTER:                  -8.647
REMARK INTRA:                   0.000
REMARK UNBOUND:                 0.000
REMARK SMILES CC1=C[C@H]2Cc3nc4cc(Cl)ccc4c(N)c3[C@@H](C1)C2
REMARK SMILES IDX 15 1 17 2 6 3 7 4 8 5 9 6 10 7 11 8 12 9 13 10 14 11 5 12
REMARK SMILES IDX 4 13 3 14 2 15 1 16 19 17 18 18 20 19 16 20
REMARK H PARENT 16 21 16 22
ROOT
ATOM      1  C   UNL     1     -18.311 -42.009  23.718  1.00  0.00     0.046 A 
ATOM      2  C   UNL     1     -19.562 -41.423  23.451  1.00  0.00     0.001 A 
ATOM      3  C   UNL     1     -20.408 -41.169  24.534  1.00  0.00     0.047 A 
ATOM      4  N   UNL     1     -20.050 -41.402  25.819  1.00  0.00    -0.252 NA
ATOM      5  C   UNL     1     -18.836 -41.902  26.076  1.00  0.00     0.074 A 
ATOM      6  C   UNL     1     -18.495 -42.102  27.405  1.00  0.00     0.049 A 
ATOM      7  C   UNL     1     -17.245 -42.595  27.765  1.00  0.00     0.043 A 
ATOM      8  Cl  UNL     1     -16.857 -42.825  29.425  1.00  0.00    -0.084 Cl
ATOM      9  C   UNL     1     -16.306 -42.899  26.790  1.00  0.00     0.021 A 
ATOM     10  C   UNL     1     -16.632 -42.709  25.448  1.00  0.00     0.014 A 
ATOM     11  C   UNL     1     -17.903 -42.214  25.063  1.00  0.00     0.024 A 
ATOM     12  C   UNL     1     -21.779 -40.556  24.350  1.00  0.00     0.064 C 
ATOM     13  C   UNL     1     -22.260 -40.536  22.892  1.00  0.00     0.018 C 
ATOM     14  C   UNL     1     -22.752 -41.903  22.466  1.00  0.00    -0.024 C 
ATOM     15  C   UNL     1     -21.999 -42.763  21.756  1.00  0.00    -0.076 C 
ATOM     16  C   UNL     1     -22.505 -44.108  21.324  1.00  0.00     0.039 C 
ATOM     17  C   UNL     1     -20.574 -42.428  21.356  1.00  0.00     0.039 C 
ATOM     18  C   UNL     1     -20.022 -41.145  22.023  1.00  0.00     0.028 C 
ATOM     19  C   UNL     1     -21.107 -40.062  22.003  1.00  0.00     0.017 C 
ENDROOT
BRANCH   1  20
ATOM     20  N   UNL     1     -17.406 -42.184  22.638  1.00  0.00    -0.398 N 
ATOM     21  H   UNL     1     -17.370 -41.337  22.073  1.00  0.00     0.156 HD
ATOM     22  H   UNL     1     -16.470 -42.432  22.943  1.00  0.00     0.156 HD
ENDBRANCH   1  20
TORSDOF 1
ENDMDL
MODEL 7
REMARK VINA RESULT:    -8.197      3.253      6.183
REMARK INTER + INTRA:          -8.437
REMARK INTER:                  -8.437
REMARK INTRA:                   0.000
REMARK UNBOUND:                 0.000
REMARK SMILES CC1=C[C@H]2Cc3nc4cc(Cl)ccc4c(N)c3[C@@H](C1)C2
REMARK SMILES IDX 15 1 17 2 6 3 7 4 8 5 9 6 10 7 11 8 12 9 13 10 14 11 5 12
REMARK SMILES IDX 4 13 3 14 2 15 1 16 19 17 18 18 20 19 16 20
REMARK H PARENT 16 21 16 22
ROOT
ATOM      1  C   UNL     1     -12.626 -45.131  29.459  1.00  0.00     0.046 A 
ATOM      2  C   UNL     1     -12.942 -44.518  28.232  1.00  0.00     0.001 A 
ATOM      3  C   UNL     1     -12.146 -43.447  27.813  1.00  0.00     0.047 A 
ATOM      4  N   UNL     1     -11.059 -43.026  28.500  1.00  0.00    -0.252 NA
ATOM      5  C   UNL     1     -10.723 -43.650  29.635  1.00  0.00     0.074 A 
ATOM      6  C   UNL     1      -9.588 -43.208  30.297  1.00  0.00     0.049 A 
ATOM      7  C   UNL     1      -9.152 -43.814  31.471  1.00  0.00     0.043 A 
ATOM      8  Cl  UNL     1      -7.736 -43.239  32.261  1.00  0.00    -0.084 Cl
ATOM      9  C   UNL     1      -9.853 -44.885  32.006  1.00  0.00     0.021 A 
ATOM     10  C   UNL     1     -10.999 -45.342  31.357  1.00  0.00     0.014 A 
ATOM     11  C   UNL     1     -11.461 -44.731  30.165  1.00  0.00     0.024 A 
ATOM     12  C   UNL     1     -12.412 -42.713  26.518  1.00  0.00     0.064 C 
ATOM     13  C   UNL     1     -13.777 -43.033  25.891  1.00  0.00     0.018 C 
ATOM     14  C   UNL     1     -14.888 -42.294  26.606  1.00  0.00    -0.024 C 
ATOM     15  C   UNL     1     -15.665 -42.868  27.543  1.00  0.00    -0.076 C 
ATOM     16  C   UNL     1     -16.775 -42.129  28.231  1.00  0.00     0.039 C 
ATOM     17  C   UNL     1     -15.454 -44.307  27.976  1.00  0.00     0.039 C 
ATOM     18  C   UNL     1     -14.160 -44.945  27.418  1.00  0.00     0.028 C 
ATOM     19  C   UNL     1     -13.997 -44.548  25.947  1.00  0.00     0.017 C 
ENDROOT
BRANCH   1  20
ATOM     20  N   UNL     1     -13.368 -46.277  29.848  1.00  0.00    -0.398 N 
ATOM     21  H   UNL     1     -13.861 -46.094  30.720  1.00  0.00     0.156 HD
ATOM     22  H   UNL     1     -14.027 -46.581  29.139  1.00  0.00     0.156 HD
ENDBRANCH   1  20
TORSDOF 1
ENDMDL
MODEL 8
REMARK VINA RESULT:    -8.029      3.991      6.345
REMARK INTER + INTRA:          -8.264
REMARK INTER:                  -8.264
REMARK INTRA:                   0.000
REMARK UNBOUND:                 0.000
REMARK SMILES CC1=C[C@H]2Cc3nc4cc(Cl)ccc4c(N)c3[C@@H](C1)C2
REMARK SMILES IDX 15 1 17 2 6 3 7 4 8 5 9 6 10 7 11 8 12 9 13 10 14 11 5 12
REMARK SMILES IDX 4 13 3 14 2 15 1 16 19 17 18 18 20 19 16 20
REMARK H PARENT 16 21 16 22
ROOT
ATOM      1  C   UNL     1     -17.852 -42.543  26.939  1.00  0.00     0.046 A 
ATOM      2  C   UNL     1     -16.816 -42.541  25.986  1.00  0.00     0.001 A 
ATOM      3  C   UNL     1     -17.137 -42.897  24.673  1.00  0.00     0.047 A 
ATOM      4  N   UNL     1     -18.400 -43.176  24.273  1.00  0.00    -0.252 NA
ATOM      5  C   UNL     1     -19.393 -43.117  25.167  1.00  0.00     0.074 A 
ATOM      6  C   UNL     1     -20.677 -43.383  24.714  1.00  0.00     0.049 A 
ATOM      7  C   UNL     1     -21.773 -43.321  25.570  1.00  0.00     0.043 A 
ATOM      8  Cl  UNL     1     -23.351 -43.654  24.969  1.00  0.00    -0.084 Cl
ATOM      9  C   UNL     1     -21.600 -42.988  26.904  1.00  0.00     0.021 A 
ATOM     10  C   UNL     1     -20.316 -42.721  27.379  1.00  0.00     0.014 A 
ATOM     11  C   UNL     1     -19.188 -42.787  26.524  1.00  0.00     0.024 A 
ATOM     12  C   UNL     1     -16.092 -42.939  23.579  1.00  0.00     0.064 C 
ATOM     13  C   UNL     1     -14.648 -42.870  24.096  1.00  0.00     0.018 C 
ATOM     14  C   UNL     1     -14.207 -44.208  24.650  1.00  0.00    -0.024 C 
ATOM     15  C   UNL     1     -14.209 -44.493  25.965  1.00  0.00    -0.076 C 
ATOM     16  C   UNL     1     -13.752 -45.818  26.501  1.00  0.00     0.039 C 
ATOM     17  C   UNL     1     -14.694 -43.489  26.994  1.00  0.00     0.039 C 
ATOM     18  C   UNL     1     -15.373 -42.242  26.380  1.00  0.00     0.028 C 
ATOM     19  C   UNL     1     -14.563 -41.776  25.164  1.00  0.00     0.017 C 
ENDROOT
BRANCH   1  20
ATOM     20  N   UNL     1     -17.558 -42.093  28.253  1.00  0.00    -0.398 N 
ATOM     21  H   UNL     1     -17.677 -42.856  28.918  1.00  0.00     0.156 HD
ATOM     22  H   UNL     1     -16.624 -41.707  28.338  1.00  0.00     0.156 HD
ENDBRANCH   1  20
TORSDOF 1
ENDMDL
MODEL 9
REMARK VINA RESULT:    -7.912      5.692      9.319
REMARK INTER + INTRA:          -8.143
REMARK INTER:                  -8.143
REMARK INTRA:                   0.000
REMARK UNBOUND:                 0.000
REMARK SMILES CC1=C[C@H]2Cc3nc4cc(Cl)ccc4c(N)c3[C@@H](C1)C2
REMARK SMILES IDX 15 1 17 2 6 3 7 4 8 5 9 6 10 7 11 8 12 9 13 10 14 11 5 12
REMARK SMILES IDX 4 13 3 14 2 15 1 16 19 17 18 18 20 19 16 20
REMARK H PARENT 16 21 16 22
ROOT
ATOM      1  C   UNL     1     -19.718 -41.809  23.525  1.00  0.00     0.046 A 
ATOM      2  C   UNL     1     -20.631 -41.354  24.494  1.00  0.00     0.001 A 
ATOM      3  C   UNL     1     -20.253 -41.437  25.838  1.00  0.00     0.047 A 
ATOM      4  N   UNL     1     -19.034 -41.873  26.234  1.00  0.00    -0.252 NA
ATOM      5  C   UNL     1     -18.144 -42.248  25.307  1.00  0.00     0.074 A 
ATOM      6  C   UNL     1     -16.897 -42.662  25.750  1.00  0.00     0.049 A 
ATOM      7  C   UNL     1     -15.903 -43.047  24.855  1.00  0.00     0.043 A 
ATOM      8  Cl  UNL     1     -14.366 -43.551  25.442  1.00  0.00    -0.084 Cl
ATOM      9  C   UNL     1     -16.144 -43.021  23.490  1.00  0.00     0.021 A 
ATOM     10  C   UNL     1     -17.393 -42.611  23.026  1.00  0.00     0.014 A 
ATOM     11  C   UNL     1     -18.419 -42.223  23.923  1.00  0.00     0.024 A 
ATOM     12  C   UNL     1     -21.169 -40.988  26.955  1.00  0.00     0.064 C 
ATOM     13  C   UNL     1     -22.617 -40.741  26.509  1.00  0.00     0.018 C 
ATOM     14  C   UNL     1     -23.364 -42.048  26.346  1.00  0.00    -0.024 C 
ATOM     15  C   UNL     1     -23.551 -42.640  25.152  1.00  0.00    -0.076 C 
ATOM     16  C   UNL     1     -24.308 -43.926  25.002  1.00  0.00     0.039 C 
ATOM     17  C   UNL     1     -22.989 -42.045  23.874  1.00  0.00     0.039 C 
ATOM     18  C   UNL     1     -22.022 -40.859  24.108  1.00  0.00     0.028 C 
ATOM     19  C   UNL     1     -22.598 -39.949  25.199  1.00  0.00     0.017 C 
ENDROOT
BRANCH   1  20
ATOM     20  N   UNL     1     -20.052 -41.642  22.156  1.00  0.00    -0.398 N 
ATOM     21  H   UNL     1     -19.374 -41.031  21.703  1.00  0.00     0.156 HD
ATOM     22  H   UNL     1     -20.110 -42.521  21.653  1.00  0.00     0.156 HD
ENDBRANCH   1  20
TORSDOF 1
ENDMDL
