MODEL 1
REMARK VINA RESULT:   -12.807      0.000      0.000
REMARK INTER + INTRA:         -18.077
REMARK INTER:                 -17.299
REMARK INTRA:                  -0.778
REMARK UNBOUND:                -0.778
REMARK SMILES CC(=O)Nc1ccc2c(c1)C(=O)N(CC[C@H]1CC[N@H+](Cc3ccccc3)CC1)C2=O
REMARK SMILES IDX 15 1 16 2 18 3 19 4 17 5 27 6 28 7 20 9 21 10 22 11 26 12
REMARK SMILES IDX 23 13 25 14 24 15 14 16 13 17 11 18 29 19 9 20 8 21 10 22
REMARK SMILES IDX 7 23 5 24 6 25 12 26 30 27 4 28 2 29 1 31 3 32
REMARK H PARENT 19 8 4 30
ROOT
ATOM      1  C   UNL     1     -13.761 -45.145  26.493  1.00  0.00     0.026 C 
ENDROOT
BRANCH   1   2
ATOM      2  C   UNL     1     -13.228 -45.808  27.778  1.00  0.00     0.002 C 
ATOM      3  C   UNL     1     -12.996 -45.617  30.300  1.00  0.00     0.262 C 
ATOM      4  N   UNL     1     -11.501 -45.689  30.148  1.00  0.00    -0.331 N 
ATOM      5  C   UNL     1     -13.616 -45.026  29.041  1.00  0.00     0.065 C 
ATOM      6  C   UNL     1     -11.095 -46.527  28.961  1.00  0.00     0.262 C 
ATOM      7  C   UNL     1     -11.698 -45.937  27.694  1.00  0.00     0.065 C 
ATOM      8  H   UNL     1     -11.155 -44.736  29.977  1.00  0.00     0.348 HD
BRANCH   4   9
ATOM      9  C   UNL     1     -10.838 -46.141  31.435  1.00  0.00     0.299 C 
BRANCH   9  10
ATOM     10  C   UNL     1      -9.547 -45.422  31.718  1.00  0.00     0.006 A 
ATOM     11  C   UNL     1      -8.315 -46.050  31.474  1.00  0.00     0.009 A 
ATOM     12  C   UNL     1      -9.556 -44.123  32.246  1.00  0.00     0.009 A 
ATOM     13  C   UNL     1      -7.119 -45.392  31.762  1.00  0.00     0.001 A 
ATOM     14  C   UNL     1      -8.357 -43.469  32.533  1.00  0.00     0.001 A 
ATOM     15  C   UNL     1      -7.140 -44.104  32.293  1.00  0.00     0.000 A 
ENDBRANCH   9  10
ENDBRANCH   4   9
ENDBRANCH   1   2
BRANCH   1  16
ATOM     16  C   UNL     1     -14.044 -43.646  26.642  1.00  0.00     0.129 C 
BRANCH  16  17
ATOM     17  N   UNL     1     -15.276 -43.279  25.975  1.00  0.00    -0.274 N 
ATOM     18  C   UNL     1     -15.434 -43.235  24.618  1.00  0.00     0.261 C 
ATOM     19  C   UNL     1     -16.380 -42.806  26.632  1.00  0.00     0.261 C 
ATOM     20  C   UNL     1     -16.795 -42.762  24.374  1.00  0.00     0.055 A 
ATOM     21  C   UNL     1     -17.371 -42.498  25.603  1.00  0.00     0.053 A 
ATOM     22  C   UNL     1     -17.470 -42.562  23.184  1.00  0.00     0.040 A 
ATOM     23  C   UNL     1     -18.658 -42.018  25.708  1.00  0.00     0.017 A 
ATOM     24  C   UNL     1     -18.785 -42.075  23.254  1.00  0.00     0.041 A 
ATOM     25  C   UNL     1     -19.365 -41.809  24.515  1.00  0.00     0.027 A 
ATOM     26  O   UNL     1     -14.627 -43.499  23.748  1.00  0.00    -0.269 OA
ATOM     27  O   UNL     1     -16.530 -42.631  27.826  1.00  0.00    -0.269 OA
BRANCH  24  28
ATOM     28  N   UNL     1     -19.457 -41.883  22.028  1.00  0.00    -0.326 N 
ATOM     29  C   UNL     1     -19.853 -40.681  21.466  1.00  0.00     0.221 C 
ATOM     30  H   UNL     1     -19.661 -42.717  21.491  1.00  0.00     0.169 HD
ATOM     31  C   UNL     1     -20.555 -40.869  20.143  1.00  0.00     0.114 C 
ATOM     32  O   UNL     1     -19.662 -39.560  21.922  1.00  0.00    -0.275 OA
ENDBRANCH  24  28
ENDBRANCH  16  17
ENDBRANCH   1  16
TORSDOF 6
ENDMDL
MODEL 2
REMARK VINA RESULT:   -12.492      1.710      2.754
REMARK INTER + INTRA:         -17.652
REMARK INTER:                 -17.002
REMARK INTRA:                  -0.650
REMARK UNBOUND:                -0.778
REMARK SMILES CC(=O)Nc1ccc2c(c1)C(=O)N(CC[C@H]1CC[N@H+](Cc3ccccc3)CC1)C2=O
REMARK SMILES IDX 15 1 16 2 18 3 19 4 17 5 27 6 28 7 20 9 21 10 22 11 26 12
REMARK SMILES IDX 23 13 25 14 24 15 14 16 13 17 11 18 29 19 9 20 8 21 10 22
REMARK SMILES IDX 7 23 5 24 6 25 12 26 30 27 4 28 2 29 1 31 3 32
REMARK H PARENT 19 8 4 30
ROOT
ATOM      1  C   UNL     1     -13.812 -45.031  26.448  1.00  0.00     0.026 C 
ENDROOT
BRANCH   1   2
ATOM      2  C   UNL     1     -13.294 -45.717  27.727  1.00  0.00     0.002 C 
ATOM      3  C   UNL     1     -13.008 -45.529  30.244  1.00  0.00     0.262 C 
ATOM      4  N   UNL     1     -11.522 -45.683  30.067  1.00  0.00    -0.331 N 
ATOM      5  C   UNL     1     -13.617 -44.910  28.993  1.00  0.00     0.065 C 
ATOM      6  C   UNL     1     -11.182 -46.547  28.877  1.00  0.00     0.262 C 
ATOM      7  C   UNL     1     -11.775 -45.929  27.618  1.00  0.00     0.065 C 
ATOM      8  H   UNL     1     -11.128 -44.751  29.886  1.00  0.00     0.348 HD
BRANCH   4   9
ATOM      9  C   UNL     1     -10.862 -46.166  31.345  1.00  0.00     0.299 C 
BRANCH   9  10
ATOM     10  C   UNL     1      -9.583 -45.441  31.658  1.00  0.00     0.006 A 
ATOM     11  C   UNL     1      -8.341 -46.047  31.404  1.00  0.00     0.009 A 
ATOM     12  C   UNL     1      -9.610 -44.158  32.225  1.00  0.00     0.009 A 
ATOM     13  C   UNL     1      -7.155 -45.384  31.721  1.00  0.00     0.001 A 
ATOM     14  C   UNL     1      -8.420 -43.499  32.539  1.00  0.00     0.001 A 
ATOM     15  C   UNL     1      -7.195 -44.113  32.289  1.00  0.00     0.000 A 
ENDBRANCH   9  10
ENDBRANCH   4   9
ENDBRANCH   1   2
BRANCH   1  16
ATOM     16  C   UNL     1     -13.935 -43.508  26.570  1.00  0.00     0.129 C 
BRANCH  16  17
ATOM     17  N   UNL     1     -15.241 -43.054  26.140  1.00  0.00    -0.274 N 
ATOM     18  C   UNL     1     -16.276 -42.773  26.988  1.00  0.00     0.261 C 
ATOM     19  C   UNL     1     -15.625 -42.984  24.828  1.00  0.00     0.261 C 
ATOM     20  C   UNL     1     -17.416 -42.413  26.146  1.00  0.00     0.055 A 
ATOM     21  C   UNL     1     -17.018 -42.544  24.828  1.00  0.00     0.053 A 
ATOM     22  C   UNL     1     -18.694 -42.021  26.495  1.00  0.00     0.040 A 
ATOM     23  C   UNL     1     -17.881 -42.289  23.786  1.00  0.00     0.017 A 
ATOM     24  C   UNL     1     -19.600 -41.750  25.458  1.00  0.00     0.041 A 
ATOM     25  C   UNL     1     -19.184 -41.887  24.114  1.00  0.00     0.027 A 
ATOM     26  O   UNL     1     -16.303 -42.824  28.202  1.00  0.00    -0.269 OA
ATOM     27  O   UNL     1     -14.974 -43.258  23.837  1.00  0.00    -0.269 OA
BRANCH  24  28
ATOM     28  N   UNL     1     -20.899 -41.347  25.837  1.00  0.00    -0.326 N 
ATOM     29  C   UNL     1     -21.717 -41.932  26.787  1.00  0.00     0.221 C 
ATOM     30  H   UNL     1     -21.270 -40.528  25.370  1.00  0.00     0.169 HD
ATOM     31  C   UNL     1     -23.045 -41.227  26.916  1.00  0.00     0.114 C 
ATOM     32  O   UNL     1     -21.446 -42.894  27.497  1.00  0.00    -0.275 OA
ENDBRANCH  24  28
ENDBRANCH  16  17
ENDBRANCH   1  16
TORSDOF 6
ENDMDL
MODEL 3
REMARK VINA RESULT:   -12.209      1.029      1.612
REMARK INTER + INTRA:         -17.269
REMARK INTER:                 -16.364
REMARK INTRA:                  -0.906
REMARK UNBOUND:                -0.778
REMARK SMILES CC(=O)Nc1ccc2c(c1)C(=O)N(CC[C@H]1CC[N@H+](Cc3ccccc3)CC1)C2=O
REMARK SMILES IDX 15 1 16 2 18 3 19 4 17 5 27 6 28 7 20 9 21 10 22 11 26 12
REMARK SMILES IDX 23 13 25 14 24 15 14 16 13 17 11 18 29 19 9 20 8 21 10 22
REMARK SMILES IDX 7 23 5 24 6 25 12 26 30 27 4 28 2 29 1 31 3 32
REMARK H PARENT 19 8 4 30
ROOT
ATOM      1  C   UNL     1     -13.795 -44.885  26.855  1.00  0.00     0.026 C 
ENDROOT
BRANCH   1   2
ATOM      2  C   UNL     1     -12.500 -45.213  27.624  1.00  0.00     0.002 C 
ATOM      3  C   UNL     1     -11.506 -46.255  29.717  1.00  0.00     0.262 C 
ATOM      4  N   UNL     1     -10.865 -44.934  30.046  1.00  0.00    -0.331 N 
ATOM      5  C   UNL     1     -12.770 -46.027  28.898  1.00  0.00     0.065 C 
ATOM      6  C   UNL     1     -10.511 -44.154  28.804  1.00  0.00     0.262 C 
ATOM      7  C   UNL     1     -11.771 -43.909  27.984  1.00  0.00     0.065 C 
ATOM      8  H   UNL     1     -11.550 -44.373  30.569  1.00  0.00     0.348 HD
BRANCH   4   9
ATOM      9  C   UNL     1      -9.683 -45.113  30.978  1.00  0.00     0.299 C 
BRANCH   9  10
ATOM     10  C   UNL     1      -9.645 -44.095  32.085  1.00  0.00     0.006 A 
ATOM     11  C   UNL     1     -10.831 -43.504  32.549  1.00  0.00     0.009 A 
ATOM     12  C   UNL     1      -8.424 -43.709  32.658  1.00  0.00     0.009 A 
ATOM     13  C   UNL     1     -10.792 -42.541  33.557  1.00  0.00     0.001 A 
ATOM     14  C   UNL     1      -8.390 -42.745  33.666  1.00  0.00     0.001 A 
ATOM     15  C   UNL     1      -9.573 -42.160  34.113  1.00  0.00     0.000 A 
ENDBRANCH   9  10
ENDBRANCH   4   9
ENDBRANCH   1   2
BRANCH   1  16
ATOM     16  C   UNL     1     -13.904 -43.418  26.425  1.00  0.00     0.129 C 
BRANCH  16  17
ATOM     17  N   UNL     1     -15.189 -43.148  25.814  1.00  0.00    -0.274 N 
ATOM     18  C   UNL     1     -15.426 -43.189  24.468  1.00  0.00     0.261 C 
ATOM     19  C   UNL     1     -16.277 -42.692  26.509  1.00  0.00     0.261 C 
ATOM     20  C   UNL     1     -16.821 -42.795  24.281  1.00  0.00     0.055 A 
ATOM     21  C   UNL     1     -17.339 -42.491  25.526  1.00  0.00     0.053 A 
ATOM     22  C   UNL     1     -17.572 -42.694  23.125  1.00  0.00     0.040 A 
ATOM     23  C   UNL     1     -18.640 -42.068  25.683  1.00  0.00     0.017 A 
ATOM     24  C   UNL     1     -18.904 -42.268  23.247  1.00  0.00     0.041 A 
ATOM     25  C   UNL     1     -19.424 -41.960  24.524  1.00  0.00     0.027 A 
ATOM     26  O   UNL     1     -14.658 -43.462  23.567  1.00  0.00    -0.269 OA
ATOM     27  O   UNL     1     -16.367 -42.459  27.700  1.00  0.00    -0.269 OA
BRANCH  24  28
ATOM     28  N   UNL     1     -19.654 -42.177  22.054  1.00  0.00    -0.326 N 
ATOM     29  C   UNL     1     -19.963 -41.031  21.342  1.00  0.00     0.221 C 
ATOM     30  H   UNL     1     -19.993 -43.050  21.668  1.00  0.00     0.169 HD
ATOM     31  C   UNL     1     -20.792 -41.324  20.115  1.00  0.00     0.114 C 
ATOM     32  O   UNL     1     -19.612 -39.887  21.604  1.00  0.00    -0.275 OA
ENDBRANCH  24  28
ENDBRANCH  16  17
ENDBRANCH   1  16
TORSDOF 6
ENDMDL
MODEL 4
REMARK VINA RESULT:   -11.488      1.284      1.882
REMARK INTER + INTRA:         -16.295
REMARK INTER:                 -15.776
REMARK INTRA:                  -0.519
REMARK UNBOUND:                -0.778
REMARK SMILES CC(=O)Nc1ccc2c(c1)C(=O)N(CC[C@H]1CC[N@H+](Cc3ccccc3)CC1)C2=O
REMARK SMILES IDX 15 1 16 2 18 3 19 4 17 5 27 6 28 7 20 9 21 10 22 11 26 12
REMARK SMILES IDX 23 13 25 14 24 15 14 16 13 17 11 18 29 19 9 20 8 21 10 22
REMARK SMILES IDX 7 23 5 24 6 25 12 26 30 27 4 28 2 29 1 31 3 32
REMARK H PARENT 19 8 4 30
ROOT
ATOM      1  C   UNL     1     -14.377 -44.116  25.892  1.00  0.00     0.026 C 
ENDROOT
BRANCH   1   2
ATOM      2  C   UNL     1     -13.629 -44.409  27.207  1.00  0.00     0.002 C 
ATOM      3  C   UNL     1     -12.403 -46.158  28.582  1.00  0.00     0.262 C 
ATOM      4  N   UNL     1     -13.402 -45.960  29.689  1.00  0.00    -0.331 N 
ATOM      5  C   UNL     1     -13.044 -45.828  27.240  1.00  0.00     0.065 C 
ATOM      6  C   UNL     1     -13.926 -44.545  29.729  1.00  0.00     0.262 C 
ATOM      7  C   UNL     1     -14.582 -44.210  28.397  1.00  0.00     0.065 C 
ATOM      8  H   UNL     1     -14.206 -46.574  29.501  1.00  0.00     0.348 HD
BRANCH   4   9
ATOM      9  C   UNL     1     -12.843 -46.413  31.023  1.00  0.00     0.299 C 
BRANCH   9  10
ATOM     10  C   UNL     1     -11.513 -45.789  31.348  1.00  0.00     0.006 A 
ATOM     11  C   UNL     1     -10.322 -46.496  31.122  1.00  0.00     0.009 A 
ATOM     12  C   UNL     1     -11.445 -44.499  31.896  1.00  0.00     0.009 A 
ATOM     13  C   UNL     1      -9.090 -45.927  31.449  1.00  0.00     0.001 A 
ATOM     14  C   UNL     1     -10.211 -43.934  32.221  1.00  0.00     0.001 A 
ATOM     15  C   UNL     1      -9.036 -44.649  32.000  1.00  0.00     0.000 A 
ENDBRANCH   9  10
ENDBRANCH   4   9
ENDBRANCH   1   2
BRANCH   1  16
ATOM     16  C   UNL     1     -14.622 -42.624  25.638  1.00  0.00     0.129 C 
BRANCH  16  17
ATOM     17  N   UNL     1     -15.862 -42.413  24.922  1.00  0.00    -0.274 N 
ATOM     18  C   UNL     1     -15.942 -41.937  23.643  1.00  0.00     0.261 C 
ATOM     19  C   UNL     1     -17.099 -42.543  25.495  1.00  0.00     0.261 C 
ATOM     20  C   UNL     1     -17.366 -41.819  23.333  1.00  0.00     0.055 A 
ATOM     21  C   UNL     1     -18.071 -42.187  24.463  1.00  0.00     0.053 A 
ATOM     22  C   UNL     1     -17.994 -41.411  22.171  1.00  0.00     0.040 A 
ATOM     23  C   UNL     1     -19.448 -42.167  24.493  1.00  0.00     0.017 A 
ATOM     24  C   UNL     1     -19.397 -41.380  22.164  1.00  0.00     0.041 A 
ATOM     25  C   UNL     1     -20.110 -41.759  23.325  1.00  0.00     0.027 A 
ATOM     26  O   UNL     1     -15.042 -41.631  22.887  1.00  0.00    -0.269 OA
ATOM     27  O   UNL     1     -17.371 -42.856  26.639  1.00  0.00    -0.269 OA
BRANCH  24  28
ATOM     28  N   UNL     1     -20.019 -40.965  20.967  1.00  0.00    -0.326 N 
ATOM     29  C   UNL     1     -20.514 -39.708  20.669  1.00  0.00     0.221 C 
ATOM     30  H   UNL     1     -20.100 -41.663  20.237  1.00  0.00     0.169 HD
ATOM     31  C   UNL     1     -21.117 -39.640  19.287  1.00  0.00     0.114 C 
ATOM     32  O   UNL     1     -20.473 -38.715  21.385  1.00  0.00    -0.275 OA
ENDBRANCH  24  28
ENDBRANCH  16  17
ENDBRANCH   1  16
TORSDOF 6
ENDMDL
MODEL 5
REMARK VINA RESULT:   -10.705      2.376      4.324
REMARK INTER + INTRA:         -15.238
REMARK INTER:                 -15.133
REMARK INTRA:                  -0.105
REMARK UNBOUND:                -0.778
REMARK SMILES CC(=O)Nc1ccc2c(c1)C(=O)N(CC[C@H]1CC[N@H+](Cc3ccccc3)CC1)C2=O
REMARK SMILES IDX 15 1 16 2 18 3 19 4 17 5 27 6 28 7 20 9 21 10 22 11 26 12
REMARK SMILES IDX 23 13 25 14 24 15 14 16 13 17 11 18 29 19 9 20 8 21 10 22
REMARK SMILES IDX 7 23 5 24 6 25 12 26 30 27 4 28 2 29 1 31 3 32
REMARK H PARENT 19 8 4 30
ROOT
ATOM      1  C   UNL     1     -15.352 -41.898  23.932  1.00  0.00     0.026 C 
ENDROOT
BRANCH   1   2
ATOM      2  C   UNL     1     -14.910 -42.216  25.374  1.00  0.00     0.002 C 
ATOM      3  C   UNL     1     -13.354 -43.588  26.840  1.00  0.00     0.262 C 
ATOM      4  N   UNL     1     -14.554 -44.179  27.527  1.00  0.00    -0.331 N 
ATOM      5  C   UNL     1     -13.719 -43.184  25.417  1.00  0.00     0.065 C 
ATOM      6  C   UNL     1     -15.711 -43.211  27.573  1.00  0.00     0.262 C 
ATOM      7  C   UNL     1     -16.093 -42.811  26.155  1.00  0.00     0.065 C 
ATOM      8  H   UNL     1     -14.863 -44.992  26.979  1.00  0.00     0.348 HD
BRANCH   4   9
ATOM      9  C   UNL     1     -14.194 -44.721  28.897  1.00  0.00     0.299 C 
BRANCH   9  10
ATOM     10  C   UNL     1     -12.815 -45.318  28.951  1.00  0.00     0.006 A 
ATOM     11  C   UNL     1     -12.336 -46.100  27.887  1.00  0.00     0.009 A 
ATOM     12  C   UNL     1     -11.994 -45.119  30.071  1.00  0.00     0.009 A 
ATOM     13  C   UNL     1     -11.067 -46.676  27.949  1.00  0.00     0.001 A 
ATOM     14  C   UNL     1     -10.725 -45.698  30.129  1.00  0.00     0.001 A 
ATOM     15  C   UNL     1     -10.264 -46.477  29.070  1.00  0.00     0.000 A 
ENDBRANCH   9  10
ENDBRANCH   4   9
ENDBRANCH   1   2
BRANCH   1  16
ATOM     16  C   UNL     1     -16.458 -42.818  23.406  1.00  0.00     0.129 C 
BRANCH  16  17
ATOM     17  N   UNL     1     -17.662 -42.070  23.109  1.00  0.00    -0.274 N 
ATOM     18  C   UNL     1     -17.723 -41.029  22.225  1.00  0.00     0.261 C 
ATOM     19  C   UNL     1     -18.843 -42.239  23.780  1.00  0.00     0.261 C 
ATOM     20  C   UNL     1     -19.095 -40.524  22.274  1.00  0.00     0.055 A 
ATOM     21  C   UNL     1     -19.776 -41.262  23.223  1.00  0.00     0.053 A 
ATOM     22  C   UNL     1     -19.694 -39.501  21.564  1.00  0.00     0.040 A 
ATOM     23  C   UNL     1     -21.099 -41.014  23.516  1.00  0.00     0.017 A 
ATOM     24  C   UNL     1     -21.042 -39.221  21.834  1.00  0.00     0.041 A 
ATOM     25  C   UNL     1     -21.731 -39.981  22.807  1.00  0.00     0.027 A 
ATOM     26  O   UNL     1     -16.838 -40.560  21.537  1.00  0.00    -0.269 OA
ATOM     27  O   UNL     1     -19.092 -43.012  24.686  1.00  0.00    -0.269 OA
BRANCH  24  28
ATOM     28  N   UNL     1     -21.636 -38.175  21.095  1.00  0.00    -0.326 N 
ATOM     29  C   UNL     1     -22.158 -38.242  19.816  1.00  0.00     0.221 C 
ATOM     30  H   UNL     1     -21.700 -37.277  21.559  1.00  0.00     0.169 HD
ATOM     31  C   UNL     1     -22.705 -36.915  19.348  1.00  0.00     0.114 C 
ATOM     32  O   UNL     1     -22.227 -39.235  19.102  1.00  0.00    -0.275 OA
ENDBRANCH  24  28
ENDBRANCH  16  17
ENDBRANCH   1  16
TORSDOF 6
ENDMDL
MODEL 6
REMARK VINA RESULT:   -10.317      2.697     11.364
REMARK INTER + INTRA:         -14.713
REMARK INTER:                 -14.127
REMARK INTRA:                  -0.586
REMARK UNBOUND:                -0.778
REMARK SMILES CC(=O)Nc1ccc2c(c1)C(=O)N(CC[C@H]1CC[N@H+](Cc3ccccc3)CC1)C2=O
REMARK SMILES IDX 15 1 16 2 18 3 19 4 17 5 27 6 28 7 20 9 21 10 22 11 26 12
REMARK SMILES IDX 23 13 25 14 24 15 14 16 13 17 11 18 29 19 9 20 8 21 10 22
REMARK SMILES IDX 7 23 5 24 6 25 12 26 30 27 4 28 2 29 1 31 3 32
REMARK H PARENT 19 8 4 30
ROOT
ATOM      1  C   UNL     1     -14.870 -42.894  26.754  1.00  0.00     0.026 C 
ENDROOT
BRANCH   1   2
ATOM      2  C   UNL     1     -15.922 -43.224  25.677  1.00  0.00     0.002 C 
ATOM      3  C   UNL     1     -16.557 -43.012  23.227  1.00  0.00     0.262 C 
ATOM      4  N   UNL     1     -17.817 -42.299  23.635  1.00  0.00    -0.331 N 
ATOM      5  C   UNL     1     -15.473 -42.790  24.274  1.00  0.00     0.065 C 
ATOM      6  C   UNL     1     -18.324 -42.773  24.975  1.00  0.00     0.262 C 
ATOM      7  C   UNL     1     -17.253 -42.542  26.032  1.00  0.00     0.065 C 
ATOM      8  H   UNL     1     -17.595 -41.299  23.733  1.00  0.00     0.348 HD
BRANCH   4   9
ATOM      9  C   UNL     1     -18.873 -42.381  22.550  1.00  0.00     0.299 C 
BRANCH   9  10
ATOM     10  C   UNL     1     -19.824 -41.217  22.563  1.00  0.00     0.006 A 
ATOM     11  C   UNL     1     -19.519 -40.041  21.858  1.00  0.00     0.009 A 
ATOM     12  C   UNL     1     -21.020 -41.281  23.293  1.00  0.00     0.009 A 
ATOM     13  C   UNL     1     -20.390 -38.951  21.893  1.00  0.00     0.001 A 
ATOM     14  C   UNL     1     -21.888 -40.188  23.325  1.00  0.00     0.001 A 
ATOM     15  C   UNL     1     -21.572 -39.024  22.627  1.00  0.00     0.000 A 
ENDBRANCH   9  10
ENDBRANCH   4   9
ENDBRANCH   1   2
BRANCH   1  16
ATOM     16  C   UNL     1     -13.425 -42.955  26.247  1.00  0.00     0.129 C 
BRANCH  16  17
ATOM     17  N   UNL     1     -12.555 -43.575  27.225  1.00  0.00    -0.274 N 
ATOM     18  C   UNL     1     -11.486 -42.953  27.809  1.00  0.00     0.261 C 
ATOM     19  C   UNL     1     -12.628 -44.897  27.574  1.00  0.00     0.261 C 
ATOM     20  C   UNL     1     -10.853 -43.945  28.676  1.00  0.00     0.055 A 
ATOM     21  C   UNL     1     -11.549 -45.131  28.531  1.00  0.00     0.053 A 
ATOM     22  C   UNL     1      -9.756 -43.831  29.509  1.00  0.00     0.040 A 
ATOM     23  C   UNL     1     -11.183 -46.270  29.213  1.00  0.00     0.017 A 
ATOM     24  C   UNL     1      -9.355 -44.972  30.221  1.00  0.00     0.041 A 
ATOM     25  C   UNL     1     -10.073 -46.180  30.066  1.00  0.00     0.027 A 
ATOM     26  O   UNL     1     -11.086 -41.817  27.651  1.00  0.00    -0.269 OA
ATOM     27  O   UNL     1     -13.400 -45.743  27.164  1.00  0.00    -0.269 OA
BRANCH  24  28
ATOM     28  N   UNL     1      -8.235 -44.832  31.069  1.00  0.00    -0.326 N 
ATOM     29  C   UNL     1      -8.147 -44.081  32.228  1.00  0.00     0.221 C 
ATOM     30  H   UNL     1      -7.405 -45.351  30.807  1.00  0.00     0.169 HD
ATOM     31  C   UNL     1      -6.782 -44.169  32.867  1.00  0.00     0.114 C 
ATOM     32  O   UNL     1      -9.041 -43.424  32.746  1.00  0.00    -0.275 OA
ENDBRANCH  24  28
ENDBRANCH  16  17
ENDBRANCH   1  16
TORSDOF 6
ENDMDL
MODEL 7
REMARK VINA RESULT:   -10.253      3.260     10.829
REMARK INTER + INTRA:         -14.627
REMARK INTER:                 -14.480
REMARK INTRA:                  -0.148
REMARK UNBOUND:                -0.778
REMARK SMILES CC(=O)Nc1ccc2c(c1)C(=O)N(CC[C@H]1CC[N@H+](Cc3ccccc3)CC1)C2=O
REMARK SMILES IDX 15 1 16 2 18 3 19 4 17 5 27 6 28 7 20 9 21 10 22 11 26 12
REMARK SMILES IDX 23 13 25 14 24 15 14 16 13 17 11 18 29 19 9 20 8 21 10 22
REMARK SMILES IDX 7 23 5 24 6 25 12 26 30 27 4 28 2 29 1 31 3 32
REMARK H PARENT 19 8 4 30
ROOT
ATOM      1  C   UNL     1     -12.983 -45.513  27.195  1.00  0.00     0.026 C 
ENDROOT
BRANCH   1   2
ATOM      2  C   UNL     1     -13.796 -44.328  26.642  1.00  0.00     0.002 C 
ATOM      3  C   UNL     1     -15.839 -42.852  26.959  1.00  0.00     0.262 C 
ATOM      4  N   UNL     1     -16.332 -43.275  25.602  1.00  0.00    -0.331 N 
ATOM      5  C   UNL     1     -14.968 -43.948  27.559  1.00  0.00     0.065 C 
ATOM      6  C   UNL     1     -15.193 -43.570  24.656  1.00  0.00     0.262 C 
ATOM      7  C   UNL     1     -14.324 -44.675  25.240  1.00  0.00     0.065 C 
ATOM      8  H   UNL     1     -16.862 -44.149  25.717  1.00  0.00     0.348 HD
BRANCH   4   9
ATOM      9  C   UNL     1     -17.315 -42.270  25.034  1.00  0.00     0.299 C 
BRANCH   9  10
ATOM     10  C   UNL     1     -18.730 -42.510  25.484  1.00  0.00     0.006 A 
ATOM     11  C   UNL     1     -19.323 -41.672  26.443  1.00  0.00     0.009 A 
ATOM     12  C   UNL     1     -19.471 -43.582  24.967  1.00  0.00     0.009 A 
ATOM     13  C   UNL     1     -20.626 -41.912  26.879  1.00  0.00     0.001 A 
ATOM     14  C   UNL     1     -20.774 -43.818  25.406  1.00  0.00     0.001 A 
ATOM     15  C   UNL     1     -21.350 -42.984  26.363  1.00  0.00     0.000 A 
ENDBRANCH   9  10
ENDBRANCH   4   9
ENDBRANCH   1   2
BRANCH   1  16
ATOM     16  C   UNL     1     -13.329 -45.880  28.643  1.00  0.00     0.129 C 
BRANCH  16  17
ATOM     17  N   UNL     1     -12.257 -45.512  29.545  1.00  0.00    -0.274 N 
ATOM     18  C   UNL     1     -12.366 -44.564  30.524  1.00  0.00     0.261 C 
ATOM     19  C   UNL     1     -10.976 -45.979  29.429  1.00  0.00     0.261 C 
ATOM     20  C   UNL     1     -11.050 -44.463  31.152  1.00  0.00     0.055 A 
ATOM     21  C   UNL     1     -10.202 -45.325  30.482  1.00  0.00     0.053 A 
ATOM     22  C   UNL     1     -10.622 -43.677  32.205  1.00  0.00     0.040 A 
ATOM     23  C   UNL     1      -8.875 -45.447  30.831  1.00  0.00     0.017 A 
ATOM     24  C   UNL     1      -9.276 -43.777  32.589  1.00  0.00     0.041 A 
ATOM     25  C   UNL     1      -8.416 -44.662  31.899  1.00  0.00     0.027 A 
ATOM     26  O   UNL     1     -13.332 -43.893  30.831  1.00  0.00    -0.269 OA
ATOM     27  O   UNL     1     -10.528 -46.756  28.607  1.00  0.00    -0.269 OA
BRANCH  24  28
ATOM     28  N   UNL     1      -8.861 -42.969  33.670  1.00  0.00    -0.326 N 
ATOM     29  C   UNL     1      -9.653 -42.167  34.472  1.00  0.00     0.221 C 
ATOM     30  H   UNL     1      -7.873 -42.988  33.893  1.00  0.00     0.169 HD
ATOM     31  C   UNL     1      -8.855 -41.441  35.527  1.00  0.00     0.114 C 
ATOM     32  O   UNL     1     -10.870 -42.037  34.406  1.00  0.00    -0.275 OA
ENDBRANCH  24  28
ENDBRANCH  16  17
ENDBRANCH   1  16
TORSDOF 6
ENDMDL
MODEL 8
REMARK VINA RESULT:   -10.226      3.681      9.353
REMARK INTER + INTRA:         -14.591
REMARK INTER:                 -14.577
REMARK INTRA:                  -0.015
REMARK UNBOUND:                -0.778
REMARK SMILES CC(=O)Nc1ccc2c(c1)C(=O)N(CC[C@H]1CC[N@H+](Cc3ccccc3)CC1)C2=O
REMARK SMILES IDX 15 1 16 2 18 3 19 4 17 5 27 6 28 7 20 9 21 10 22 11 26 12
REMARK SMILES IDX 23 13 25 14 24 15 14 16 13 17 11 18 29 19 9 20 8 21 10 22
REMARK SMILES IDX 7 23 5 24 6 25 12 26 30 27 4 28 2 29 1 31 3 32
REMARK H PARENT 19 8 4 30
ROOT
ATOM      1  C   UNL     1     -11.198 -45.897  28.143  1.00  0.00     0.026 C 
ENDROOT
BRANCH   1   2
ATOM      2  C   UNL     1     -12.436 -45.070  27.745  1.00  0.00     0.002 C 
ATOM      3  C   UNL     1     -14.368 -44.831  26.113  1.00  0.00     0.262 C 
ATOM      4  N   UNL     1     -13.860 -43.464  25.743  1.00  0.00    -0.331 N 
ATOM      5  C   UNL     1     -13.210 -45.704  26.581  1.00  0.00     0.065 C 
ATOM      6  C   UNL     1     -13.171 -42.786  26.902  1.00  0.00     0.262 C 
ATOM      7  C   UNL     1     -12.003 -43.644  27.368  1.00  0.00     0.065 C 
ATOM      8  H   UNL     1     -13.159 -43.579  25.000  1.00  0.00     0.348 HD
BRANCH   4   9
ATOM      9  C   UNL     1     -14.961 -42.612  25.141  1.00  0.00     0.299 C 
BRANCH   9  10
ATOM     10  C   UNL     1     -16.188 -42.536  26.006  1.00  0.00     0.006 A 
ATOM     11  C   UNL     1     -16.072 -42.520  27.406  1.00  0.00     0.009 A 
ATOM     12  C   UNL     1     -17.466 -42.498  25.430  1.00  0.00     0.009 A 
ATOM     13  C   UNL     1     -17.212 -42.476  28.208  1.00  0.00     0.001 A 
ATOM     14  C   UNL     1     -18.604 -42.454  26.237  1.00  0.00     0.001 A 
ATOM     15  C   UNL     1     -18.476 -42.445  27.625  1.00  0.00     0.000 A 
ENDBRANCH   9  10
ENDBRANCH   4   9
ENDBRANCH   1   2
BRANCH   1  16
ATOM     16  C   UNL     1     -11.315 -46.566  29.517  1.00  0.00     0.129 C 
BRANCH  16  17
ATOM     17  N   UNL     1     -11.500 -45.581  30.562  1.00  0.00    -0.274 N 
ATOM     18  C   UNL     1     -12.718 -45.189  31.044  1.00  0.00     0.261 C 
ATOM     19  C   UNL     1     -10.480 -44.837  31.091  1.00  0.00     0.261 C 
ATOM     20  C   UNL     1     -12.456 -44.145  32.033  1.00  0.00     0.055 A 
ATOM     21  C   UNL     1     -11.091 -43.930  32.060  1.00  0.00     0.053 A 
ATOM     22  C   UNL     1     -13.332 -43.432  32.831  1.00  0.00     0.040 A 
ATOM     23  C   UNL     1     -10.526 -42.986  32.889  1.00  0.00     0.017 A 
ATOM     24  C   UNL     1     -12.791 -42.463  33.690  1.00  0.00     0.041 A 
ATOM     25  C   UNL     1     -11.393 -42.251  33.710  1.00  0.00     0.027 A 
ATOM     26  O   UNL     1     -13.825 -45.578  30.726  1.00  0.00    -0.269 OA
ATOM     27  O   UNL     1      -9.297 -44.873  30.810  1.00  0.00    -0.269 OA
BRANCH  24  28
ATOM     28  N   UNL     1     -13.701 -41.750  34.498  1.00  0.00    -0.326 N 
ATOM     29  C   UNL     1     -14.929 -41.231  34.125  1.00  0.00     0.221 C 
ATOM     30  H   UNL     1     -13.434 -41.614  35.466  1.00  0.00     0.169 HD
ATOM     31  C   UNL     1     -15.623 -40.522  35.262  1.00  0.00     0.114 C 
ATOM     32  O   UNL     1     -15.461 -41.325  33.025  1.00  0.00    -0.275 OA
ENDBRANCH  24  28
ENDBRANCH  16  17
ENDBRANCH   1  16
TORSDOF 6
ENDMDL
