MODEL 1
REMARK VINA RESULT:   -11.560      0.000      0.000
REMARK INTER + INTRA:         -16.340
REMARK INTER:                 -15.615
REMARK INTRA:                  -0.725
REMARK UNBOUND:                -0.725
REMARK SMILES COc1cc2onc(CC[C@H]3CC[N@@H+](Cc4ccccc4)CC3)c2cc1C
REMARK SMILES IDX 10 1 11 2 13 3 14 4 12 5 22 6 23 7 15 9 16 10 17 11 21 12
REMARK SMILES IDX 18 13 20 14 19 15 9 16 8 17 7 18 24 19 6 20 25 21 5 22 26 23
REMARK SMILES IDX 4 24 3 25 27 26 2 27 1 28
REMARK H PARENT 14 8
ROOT
ATOM      1  C   UNL     1     -13.854 -44.933  27.111  1.00  0.00     0.010 C 
ENDROOT
BRANCH   1   2
ATOM      2  C   UNL     1     -12.359 -45.085  27.461  1.00  0.00     0.000 C 
ATOM      3  C   UNL     1     -10.423 -44.040  28.717  1.00  0.00     0.262 C 
ATOM      4  N   UNL     1     -10.142 -45.370  29.374  1.00  0.00    -0.331 N 
ATOM      5  C   UNL     1     -11.896 -43.916  28.346  1.00  0.00     0.065 C 
ATOM      6  C   UNL     1     -10.561 -46.526  28.503  1.00  0.00     0.262 C 
ATOM      7  C   UNL     1     -12.039 -46.422  28.148  1.00  0.00     0.065 C 
ATOM      8  H   UNL     1      -9.118 -45.426  29.440  1.00  0.00     0.348 HD
BRANCH   4   9
ATOM      9  C   UNL     1     -10.617 -45.492  30.807  1.00  0.00     0.299 C 
BRANCH   9  10
ATOM     10  C   UNL     1      -9.892 -44.570  31.749  1.00  0.00     0.006 A 
ATOM     11  C   UNL     1     -10.606 -43.676  32.563  1.00  0.00     0.009 A 
ATOM     12  C   UNL     1      -8.490 -44.576  31.813  1.00  0.00     0.009 A 
ATOM     13  C   UNL     1      -9.931 -42.804  33.415  1.00  0.00     0.001 A 
ATOM     14  C   UNL     1      -7.819 -43.701  32.668  1.00  0.00     0.001 A 
ATOM     15  C   UNL     1      -8.538 -42.815  33.466  1.00  0.00     0.000 A 
ENDBRANCH   9  10
ENDBRANCH   4   9
ENDBRANCH   1   2
BRANCH   1  16
ATOM     16  C   UNL     1     -14.350 -43.491  26.928  1.00  0.00     0.061 C 
BRANCH  16  17
ATOM     17  C   UNL     1     -15.039 -43.259  25.627  1.00  0.00     0.091 A 
ATOM     18  N   UNL     1     -14.379 -43.463  24.477  1.00  0.00    -0.084 NA
ATOM     19  C   UNL     1     -16.366 -42.814  25.397  1.00  0.00     0.045 A 
ATOM     20  O   UNL     1     -15.284 -43.157  23.470  1.00  0.00    -0.356 OA
ATOM     21  C   UNL     1     -17.480 -42.444  26.165  1.00  0.00     0.021 A 
ATOM     22  C   UNL     1     -16.466 -42.771  24.020  1.00  0.00     0.170 A 
ATOM     23  C   UNL     1     -18.658 -42.043  25.501  1.00  0.00    -0.008 A 
ATOM     24  C   UNL     1     -17.606 -42.387  23.318  1.00  0.00     0.097 A 
ATOM     25  C   UNL     1     -18.718 -42.021  24.089  1.00  0.00     0.125 A 
ATOM     26  C   UNL     1     -19.862 -41.649  26.319  1.00  0.00     0.048 C 
BRANCH  25  27
ATOM     27  O   UNL     1     -19.919 -41.614  23.564  1.00  0.00    -0.496 OA
ATOM     28  C   UNL     1     -20.085 -41.703  22.154  1.00  0.00     0.278 C 
ENDBRANCH  25  27
ENDBRANCH  16  17
ENDBRANCH   1  16
TORSDOF 6
ENDMDL
MODEL 2
REMARK VINA RESULT:   -11.260      1.084      1.403
REMARK INTER + INTRA:         -15.934
REMARK INTER:                 -15.636
REMARK INTRA:                  -0.298
REMARK UNBOUND:                -0.725
REMARK SMILES COc1cc2onc(CC[C@H]3CC[N@@H+](Cc4ccccc4)CC3)c2cc1C
REMARK SMILES IDX 10 1 11 2 13 3 14 4 12 5 22 6 23 7 15 9 16 10 17 11 21 12
REMARK SMILES IDX 18 13 20 14 19 15 9 16 8 17 7 18 24 19 6 20 25 21 5 22 26 23
REMARK SMILES IDX 4 24 3 25 27 26 2 27 1 28
REMARK H PARENT 14 8
ROOT
ATOM      1  C   UNL     1     -13.431 -45.367  26.802  1.00  0.00     0.010 C 
ENDROOT
BRANCH   1   2
ATOM      2  C   UNL     1     -12.919 -45.881  28.163  1.00  0.00     0.000 C 
ATOM      3  C   UNL     1     -10.849 -46.263  29.573  1.00  0.00     0.262 C 
ATOM      4  N   UNL     1     -11.507 -45.536  30.721  1.00  0.00    -0.331 N 
ATOM      5  C   UNL     1     -11.387 -45.768  28.235  1.00  0.00     0.065 C 
ATOM      6  C   UNL     1     -13.007 -45.666  30.681  1.00  0.00     0.262 C 
ATOM      7  C   UNL     1     -13.556 -45.152  29.357  1.00  0.00     0.065 C 
ATOM      8  H   UNL     1     -11.204 -46.039  31.565  1.00  0.00     0.348 HD
BRANCH   4   9
ATOM      9  C   UNL     1     -11.031 -44.115  30.940  1.00  0.00     0.299 C 
BRANCH   9  10
ATOM     10  C   UNL     1      -9.689 -44.040  31.615  1.00  0.00     0.006 A 
ATOM     11  C   UNL     1      -9.478 -43.161  32.689  1.00  0.00     0.009 A 
ATOM     12  C   UNL     1      -8.621 -44.833  31.166  1.00  0.00     0.009 A 
ATOM     13  C   UNL     1      -8.226 -43.074  33.295  1.00  0.00     0.001 A 
ATOM     14  C   UNL     1      -7.369 -44.742  31.777  1.00  0.00     0.001 A 
ATOM     15  C   UNL     1      -7.172 -43.861  32.838  1.00  0.00     0.000 A 
ENDBRANCH   9  10
ENDBRANCH   4   9
ENDBRANCH   1   2
BRANCH   1  16
ATOM     16  C   UNL     1     -13.750 -43.865  26.736  1.00  0.00     0.061 C 
BRANCH  16  17
ATOM     17  C   UNL     1     -14.647 -43.496  25.604  1.00  0.00     0.091 A 
ATOM     18  N   UNL     1     -14.192 -43.563  24.343  1.00  0.00    -0.084 NA
ATOM     19  C   UNL     1     -15.990 -43.044  25.651  1.00  0.00     0.045 A 
ATOM     20  O   UNL     1     -15.250 -43.157  23.544  1.00  0.00    -0.356 OA
ATOM     21  C   UNL     1     -16.956 -42.774  26.632  1.00  0.00     0.021 A 
ATOM     22  C   UNL     1     -16.320 -42.848  24.324  1.00  0.00     0.170 A 
ATOM     23  C   UNL     1     -18.226 -42.316  26.226  1.00  0.00    -0.008 A 
ATOM     24  C   UNL     1     -17.559 -42.401  23.872  1.00  0.00     0.097 A 
ATOM     25  C   UNL     1     -18.522 -42.136  24.856  1.00  0.00     0.125 A 
ATOM     26  C   UNL     1     -19.272 -42.029  27.273  1.00  0.00     0.048 C 
BRANCH  25  27
ATOM     27  O   UNL     1     -19.791 -41.686  24.589  1.00  0.00    -0.496 OA
ATOM     28  C   UNL     1     -19.983 -40.919  23.406  1.00  0.00     0.278 C 
ENDBRANCH  25  27
ENDBRANCH  16  17
ENDBRANCH   1  16
TORSDOF 6
ENDMDL
MODEL 3
REMARK VINA RESULT:   -11.026      1.720      2.309
REMARK INTER + INTRA:         -15.619
REMARK INTER:                 -14.818
REMARK INTRA:                  -0.801
REMARK UNBOUND:                -0.725
REMARK SMILES COc1cc2onc(CC[C@H]3CC[N@@H+](Cc4ccccc4)CC3)c2cc1C
REMARK SMILES IDX 10 1 11 2 13 3 14 4 12 5 22 6 23 7 15 9 16 10 17 11 21 12
REMARK SMILES IDX 18 13 20 14 19 15 9 16 8 17 7 18 24 19 6 20 25 21 5 22 26 23
REMARK SMILES IDX 4 24 3 25 27 26 2 27 1 28
REMARK H PARENT 14 8
ROOT
ATOM      1  C   UNL     1     -13.796 -45.111  26.647  1.00  0.00     0.010 C 
ENDROOT
BRANCH   1   2
ATOM      2  C   UNL     1     -12.598 -45.355  27.589  1.00  0.00     0.000 C 
ATOM      3  C   UNL     1     -10.634 -44.254  28.750  1.00  0.00     0.262 C 
ATOM      4  N   UNL     1     -11.076 -44.865  30.058  1.00  0.00    -0.331 N 
ATOM      5  C   UNL     1     -11.822 -44.048  27.817  1.00  0.00     0.065 C 
ATOM      6  C   UNL     1     -11.810 -46.164  29.851  1.00  0.00     0.262 C 
ATOM      7  C   UNL     1     -13.013 -45.963  28.938  1.00  0.00     0.065 C 
ATOM      8  H   UNL     1     -10.206 -45.110  30.547  1.00  0.00     0.348 HD
BRANCH   4   9
ATOM      9  C   UNL     1     -11.784 -43.918  31.004  1.00  0.00     0.299 C 
BRANCH   9  10
ATOM     10  C   UNL     1     -10.891 -43.399  32.097  1.00  0.00     0.006 A 
ATOM     11  C   UNL     1     -11.417 -42.616  33.137  1.00  0.00     0.009 A 
ATOM     12  C   UNL     1      -9.514 -43.672  32.082  1.00  0.00     0.009 A 
ATOM     13  C   UNL     1     -10.582 -42.113  34.134  1.00  0.00     0.001 A 
ATOM     14  C   UNL     1      -8.683 -43.167  33.083  1.00  0.00     0.001 A 
ATOM     15  C   UNL     1      -9.216 -42.387  34.106  1.00  0.00     0.000 A 
ENDBRANCH   9  10
ENDBRANCH   4   9
ENDBRANCH   1   2
BRANCH   1  16
ATOM     16  C   UNL     1     -14.153 -43.638  26.395  1.00  0.00     0.061 C 
BRANCH  16  17
ATOM     17  C   UNL     1     -15.429 -43.216  27.039  1.00  0.00     0.091 A 
ATOM     18  N   UNL     1     -15.545 -43.251  28.375  1.00  0.00    -0.084 NA
ATOM     19  C   UNL     1     -16.624 -42.766  26.423  1.00  0.00     0.045 A 
ATOM     20  O   UNL     1     -16.832 -42.810  28.648  1.00  0.00    -0.356 OA
ATOM     21  C   UNL     1     -17.092 -42.539  25.120  1.00  0.00     0.021 A 
ATOM     22  C   UNL     1     -17.472 -42.521  27.484  1.00  0.00     0.170 A 
ATOM     23  C   UNL     1     -18.411 -42.070  24.945  1.00  0.00    -0.008 A 
ATOM     24  C   UNL     1     -18.779 -42.055  27.365  1.00  0.00     0.097 A 
ATOM     25  C   UNL     1     -19.243 -41.827  26.062  1.00  0.00     0.125 A 
ATOM     26  C   UNL     1     -18.921 -41.818  23.549  1.00  0.00     0.048 C 
BRANCH  25  27
ATOM     27  O   UNL     1     -20.502 -41.373  25.761  1.00  0.00    -0.496 OA
ATOM     28  C   UNL     1     -21.569 -41.778  26.610  1.00  0.00     0.278 C 
ENDBRANCH  25  27
ENDBRANCH  16  17
ENDBRANCH   1  16
TORSDOF 6
ENDMDL
MODEL 4
REMARK VINA RESULT:   -10.513      1.809      2.688
REMARK INTER + INTRA:         -14.925
REMARK INTER:                 -13.939
REMARK INTRA:                  -0.986
REMARK UNBOUND:                -0.725
REMARK SMILES COc1cc2onc(CC[C@H]3CC[N@@H+](Cc4ccccc4)CC3)c2cc1C
REMARK SMILES IDX 10 1 11 2 13 3 14 4 12 5 22 6 23 7 15 9 16 10 17 11 21 12
REMARK SMILES IDX 18 13 20 14 19 15 9 16 8 17 7 18 24 19 6 20 25 21 5 22 26 23
REMARK SMILES IDX 4 24 3 25 27 26 2 27 1 28
REMARK H PARENT 14 8
ROOT
ATOM      1  C   UNL     1     -14.123 -44.841  25.224  1.00  0.00     0.010 C 
ENDROOT
BRANCH   1   2
ATOM      2  C   UNL     1     -13.783 -44.885  26.729  1.00  0.00     0.000 C 
ATOM      3  C   UNL     1     -12.716 -46.274  28.558  1.00  0.00     0.262 C 
ATOM      4  N   UNL     1     -11.891 -45.079  28.974  1.00  0.00    -0.331 N 
ATOM      5  C   UNL     1     -13.072 -46.202  27.078  1.00  0.00     0.065 C 
ATOM      6  C   UNL     1     -12.592 -43.781  28.666  1.00  0.00     0.262 C 
ATOM      7  C   UNL     1     -12.930 -43.690  27.184  1.00  0.00     0.065 C 
ATOM      8  H   UNL     1     -11.838 -45.133  29.998  1.00  0.00     0.348 HD
BRANCH   4   9
ATOM      9  C   UNL     1     -10.447 -45.106  28.520  1.00  0.00     0.299 C 
BRANCH   9  10
ATOM     10  C   UNL     1      -9.471 -45.157  29.664  1.00  0.00     0.006 A 
ATOM     11  C   UNL     1      -8.781 -44.002  30.065  1.00  0.00     0.009 A 
ATOM     12  C   UNL     1      -9.221 -46.365  30.333  1.00  0.00     0.009 A 
ATOM     13  C   UNL     1      -7.856 -44.059  31.108  1.00  0.00     0.001 A 
ATOM     14  C   UNL     1      -8.295 -46.416  31.377  1.00  0.00     0.001 A 
ATOM     15  C   UNL     1      -7.612 -45.265  31.761  1.00  0.00     0.000 A 
ENDBRANCH   9  10
ENDBRANCH   4   9
ENDBRANCH   1   2
BRANCH   1  16
ATOM     16  C   UNL     1     -14.274 -43.438  24.617  1.00  0.00     0.061 C 
BRANCH  16  17
ATOM     17  C   UNL     1     -15.692 -43.007  24.459  1.00  0.00     0.091 A 
ATOM     18  N   UNL     1     -16.189 -42.787  23.232  1.00  0.00    -0.084 NA
ATOM     19  C   UNL     1     -16.659 -42.763  25.466  1.00  0.00     0.045 A 
ATOM     20  O   UNL     1     -17.507 -42.401  23.429  1.00  0.00    -0.356 OA
ATOM     21  C   UNL     1     -16.727 -42.809  26.866  1.00  0.00     0.021 A 
ATOM     22  C   UNL     1     -17.785 -42.388  24.760  1.00  0.00     0.170 A 
ATOM     23  C   UNL     1     -17.942 -42.470  27.498  1.00  0.00    -0.008 A 
ATOM     24  C   UNL     1     -19.007 -42.048  25.336  1.00  0.00     0.097 A 
ATOM     25  C   UNL     1     -19.071 -42.097  26.735  1.00  0.00     0.125 A 
ATOM     26  C   UNL     1     -18.025 -42.521  29.003  1.00  0.00     0.048 C 
BRANCH  25  27
ATOM     27  O   UNL     1     -20.192 -41.791  27.465  1.00  0.00    -0.496 OA
ATOM     28  C   UNL     1     -21.175 -40.968  26.849  1.00  0.00     0.278 C 
ENDBRANCH  25  27
ENDBRANCH  16  17
ENDBRANCH   1  16
TORSDOF 6
ENDMDL
MODEL 5
REMARK VINA RESULT:   -10.398      3.294     10.200
REMARK INTER + INTRA:         -14.769
REMARK INTER:                 -13.986
REMARK INTRA:                  -0.783
REMARK UNBOUND:                -0.725
REMARK SMILES COc1cc2onc(CC[C@H]3CC[N@@H+](Cc4ccccc4)CC3)c2cc1C
REMARK SMILES IDX 10 1 11 2 13 3 14 4 12 5 22 6 23 7 15 9 16 10 17 11 21 12
REMARK SMILES IDX 18 13 20 14 19 15 9 16 8 17 7 18 24 19 6 20 25 21 5 22 26 23
REMARK SMILES IDX 4 24 3 25 27 26 2 27 1 28
REMARK H PARENT 14 8
ROOT
ATOM      1  C   UNL     1     -13.536 -45.239  27.262  1.00  0.00     0.010 C 
ENDROOT
BRANCH   1   2
ATOM      2  C   UNL     1     -13.911 -44.101  26.290  1.00  0.00     0.000 C 
ATOM      3  C   UNL     1     -14.922 -43.575  24.027  1.00  0.00     0.262 C 
ATOM      4  N   UNL     1     -15.841 -42.571  24.680  1.00  0.00    -0.331 N 
ATOM      5  C   UNL     1     -14.534 -44.676  25.007  1.00  0.00     0.065 C 
ATOM      6  C   UNL     1     -15.229 -41.975  25.920  1.00  0.00     0.262 C 
ATOM      7  C   UNL     1     -14.860 -43.067  26.916  1.00  0.00     0.065 C 
ATOM      8  H   UNL     1     -15.917 -41.799  24.006  1.00  0.00     0.348 HD
BRANCH   4   9
ATOM      9  C   UNL     1     -17.268 -43.039  24.877  1.00  0.00     0.299 C 
BRANCH   9  10
ATOM     10  C   UNL     1     -18.276 -42.161  24.187  1.00  0.00     0.006 A 
ATOM     11  C   UNL     1     -18.041 -41.690  22.886  1.00  0.00     0.009 A 
ATOM     12  C   UNL     1     -19.458 -41.783  24.843  1.00  0.00     0.009 A 
ATOM     13  C   UNL     1     -18.965 -40.855  22.259  1.00  0.00     0.001 A 
ATOM     14  C   UNL     1     -20.380 -40.947  24.212  1.00  0.00     0.001 A 
ATOM     15  C   UNL     1     -20.132 -40.482  22.923  1.00  0.00     0.000 A 
ENDBRANCH   9  10
ENDBRANCH   4   9
ENDBRANCH   1   2
BRANCH   1  16
ATOM     16  C   UNL     1     -13.959 -45.030  28.724  1.00  0.00     0.061 C 
BRANCH  16  17
ATOM     17  C   UNL     1     -12.925 -45.457  29.709  1.00  0.00     0.091 A 
ATOM     18  N   UNL     1     -13.219 -46.399  30.618  1.00  0.00    -0.084 NA
ATOM     19  C   UNL     1     -11.597 -44.984  29.856  1.00  0.00     0.045 A 
ATOM     20  O   UNL     1     -12.066 -46.559  31.373  1.00  0.00    -0.356 OA
ATOM     21  C   UNL     1     -10.761 -44.042  29.239  1.00  0.00     0.021 A 
ATOM     22  C   UNL     1     -11.101 -45.716  30.918  1.00  0.00     0.170 A 
ATOM     23  C   UNL     1      -9.447 -43.879  29.725  1.00  0.00    -0.008 A 
ATOM     24  C   UNL     1      -9.812 -45.595  31.432  1.00  0.00     0.097 A 
ATOM     25  C   UNL     1      -8.979 -44.654  30.811  1.00  0.00     0.125 A 
ATOM     26  C   UNL     1      -8.540 -42.873  29.064  1.00  0.00     0.048 C 
BRANCH  25  27
ATOM     27  O   UNL     1      -7.684 -44.403  31.190  1.00  0.00    -0.496 OA
ATOM     28  C   UNL     1      -7.478 -43.753  32.439  1.00  0.00     0.278 C 
ENDBRANCH  25  27
ENDBRANCH  16  17
ENDBRANCH   1  16
TORSDOF 6
ENDMDL
MODEL 6
REMARK VINA RESULT:   -10.326      3.015     10.981
REMARK INTER + INTRA:         -14.672
REMARK INTER:                 -14.241
REMARK INTRA:                  -0.431
REMARK UNBOUND:                -0.725
REMARK SMILES COc1cc2onc(CC[C@H]3CC[N@@H+](Cc4ccccc4)CC3)c2cc1C
REMARK SMILES IDX 10 1 11 2 13 3 14 4 12 5 22 6 23 7 15 9 16 10 17 11 21 12
REMARK SMILES IDX 18 13 20 14 19 15 9 16 8 17 7 18 24 19 6 20 25 21 5 22 26 23
REMARK SMILES IDX 4 24 3 25 27 26 2 27 1 28
REMARK H PARENT 14 8
ROOT
ATOM      1  C   UNL     1     -15.573 -42.864  26.014  1.00  0.00     0.010 C 
ENDROOT
BRANCH   1   2
ATOM      2  C   UNL     1     -16.671 -43.094  24.953  1.00  0.00     0.000 C 
ATOM      3  C   UNL     1     -18.995 -42.407  24.214  1.00  0.00     0.262 C 
ATOM      4  N   UNL     1     -18.472 -42.172  22.817  1.00  0.00    -0.331 N 
ATOM      5  C   UNL     1     -17.893 -42.209  25.249  1.00  0.00     0.065 C 
ATOM      6  C   UNL     1     -17.294 -43.057  22.503  1.00  0.00     0.262 C 
ATOM      7  C   UNL     1     -16.178 -42.847  23.519  1.00  0.00     0.065 C 
ATOM      8  H   UNL     1     -19.228 -42.479  22.193  1.00  0.00     0.348 HD
BRANCH   4   9
ATOM      9  C   UNL     1     -18.249 -40.719  22.451  1.00  0.00     0.299 C 
BRANCH   9  10
ATOM     10  C   UNL     1     -19.432 -40.097  21.761  1.00  0.00     0.006 A 
ATOM     11  C   UNL     1     -20.535 -39.646  22.503  1.00  0.00     0.009 A 
ATOM     12  C   UNL     1     -19.460 -39.979  20.363  1.00  0.00     0.009 A 
ATOM     13  C   UNL     1     -21.642 -39.095  21.859  1.00  0.00     0.001 A 
ATOM     14  C   UNL     1     -20.570 -39.426  19.722  1.00  0.00     0.001 A 
ATOM     15  C   UNL     1     -21.660 -38.987  20.469  1.00  0.00     0.000 A 
ENDBRANCH   9  10
ENDBRANCH   4   9
ENDBRANCH   1   2
BRANCH   1  16
ATOM     16  C   UNL     1     -14.636 -44.054  26.268  1.00  0.00     0.061 C 
BRANCH  16  17
ATOM     17  C   UNL     1     -14.350 -44.289  27.712  1.00  0.00     0.091 A 
ATOM     18  N   UNL     1     -15.202 -43.833  28.643  1.00  0.00    -0.084 NA
ATOM     19  C   UNL     1     -13.240 -44.949  28.297  1.00  0.00     0.045 A 
ATOM     20  O   UNL     1     -14.653 -44.204  29.862  1.00  0.00    -0.356 OA
ATOM     21  C   UNL     1     -12.073 -45.594  27.861  1.00  0.00     0.021 A 
ATOM     22  C   UNL     1     -13.485 -44.869  29.654  1.00  0.00     0.170 A 
ATOM     23  C   UNL     1     -11.197 -46.136  28.824  1.00  0.00    -0.008 A 
ATOM     24  C   UNL     1     -12.655 -45.390  30.643  1.00  0.00     0.097 A 
ATOM     25  C   UNL     1     -11.491 -46.036  30.202  1.00  0.00     0.125 A 
ATOM     26  C   UNL     1      -9.943 -46.835  28.363  1.00  0.00     0.048 C 
BRANCH  25  27
ATOM     27  O   UNL     1     -10.561 -46.602  31.038  1.00  0.00    -0.496 OA
ATOM     28  C   UNL     1      -9.589 -45.741  31.621  1.00  0.00     0.278 C 
ENDBRANCH  25  27
ENDBRANCH  16  17
ENDBRANCH   1  16
TORSDOF 6
ENDMDL
MODEL 7
REMARK VINA RESULT:   -10.225      3.724      9.464
REMARK INTER + INTRA:         -14.536
REMARK INTER:                 -13.726
REMARK INTRA:                  -0.810
REMARK UNBOUND:                -0.725
REMARK SMILES COc1cc2onc(CC[C@H]3CC[N@@H+](Cc4ccccc4)CC3)c2cc1C
REMARK SMILES IDX 10 1 11 2 13 3 14 4 12 5 22 6 23 7 15 9 16 10 17 11 21 12
REMARK SMILES IDX 18 13 20 14 19 15 9 16 8 17 7 18 24 19 6 20 25 21 5 22 26 23
REMARK SMILES IDX 4 24 3 25 27 26 2 27 1 28
REMARK H PARENT 14 8
ROOT
ATOM      1  C   UNL     1     -10.464 -45.864  28.342  1.00  0.00     0.010 C 
ENDROOT
BRANCH   1   2
ATOM      2  C   UNL     1     -11.682 -44.918  28.392  1.00  0.00     0.000 C 
ATOM      3  C   UNL     1     -12.681 -42.795  27.435  1.00  0.00     0.262 C 
ATOM      4  N   UNL     1     -13.968 -43.535  27.158  1.00  0.00    -0.331 N 
ATOM      5  C   UNL     1     -11.490 -43.746  27.414  1.00  0.00     0.065 C 
ATOM      6  C   UNL     1     -14.184 -44.666  28.130  1.00  0.00     0.262 C 
ATOM      7  C   UNL     1     -13.009 -45.634  28.099  1.00  0.00     0.065 C 
ATOM      8  H   UNL     1     -14.715 -42.855  27.348  1.00  0.00     0.348 HD
BRANCH   4   9
ATOM      9  C   UNL     1     -14.181 -43.934  25.713  1.00  0.00     0.299 C 
BRANCH   9  10
ATOM     10  C   UNL     1     -15.462 -43.396  25.136  1.00  0.00     0.006 A 
ATOM     11  C   UNL     1     -16.471 -42.900  25.978  1.00  0.00     0.009 A 
ATOM     12  C   UNL     1     -15.677 -43.402  23.749  1.00  0.00     0.009 A 
ATOM     13  C   UNL     1     -17.668 -42.427  25.442  1.00  0.00     0.001 A 
ATOM     14  C   UNL     1     -16.877 -42.927  23.218  1.00  0.00     0.001 A 
ATOM     15  C   UNL     1     -17.872 -42.444  24.064  1.00  0.00     0.000 A 
ENDBRANCH   9  10
ENDBRANCH   4   9
ENDBRANCH   1   2
BRANCH   1  16
ATOM     16  C   UNL     1     -10.121 -46.576  29.659  1.00  0.00     0.061 C 
BRANCH  16  17
ATOM     17  C   UNL     1      -9.519 -45.677  30.683  1.00  0.00     0.091 A 
ATOM     18  N   UNL     1      -8.201 -45.735  30.930  1.00  0.00    -0.084 NA
ATOM     19  C   UNL     1     -10.161 -44.714  31.502  1.00  0.00     0.045 A 
ATOM     20  O   UNL     1      -7.966 -44.792  31.920  1.00  0.00    -0.356 OA
ATOM     21  C   UNL     1     -11.463 -44.230  31.700  1.00  0.00     0.021 A 
ATOM     22  C   UNL     1      -9.135 -44.185  32.259  1.00  0.00     0.170 A 
ATOM     23  C   UNL     1     -11.672 -43.221  32.664  1.00  0.00    -0.008 A 
ATOM     24  C   UNL     1      -9.289 -43.187  33.219  1.00  0.00     0.097 A 
ATOM     25  C   UNL     1     -10.591 -42.705  33.412  1.00  0.00     0.125 A 
ATOM     26  C   UNL     1     -13.067 -42.692  32.879  1.00  0.00     0.048 C 
BRANCH  25  27
ATOM     27  O   UNL     1     -10.923 -41.728  34.317  1.00  0.00    -0.496 OA
ATOM     28  C   UNL     1      -9.951 -41.378  35.295  1.00  0.00     0.278 C 
ENDBRANCH  25  27
ENDBRANCH  16  17
ENDBRANCH   1  16
TORSDOF 6
ENDMDL
MODEL 8
REMARK VINA RESULT:    -9.984      3.023     10.962
REMARK INTER + INTRA:         -14.211
REMARK INTER:                 -13.614
REMARK INTRA:                  -0.597
REMARK UNBOUND:                -0.725
REMARK SMILES COc1cc2onc(CC[C@H]3CC[N@@H+](Cc4ccccc4)CC3)c2cc1C
REMARK SMILES IDX 10 1 11 2 13 3 14 4 12 5 22 6 23 7 15 9 16 10 17 11 21 12
REMARK SMILES IDX 18 13 20 14 19 15 9 16 8 17 7 18 24 19 6 20 25 21 5 22 26 23
REMARK SMILES IDX 4 24 3 25 27 26 2 27 1 28
REMARK H PARENT 14 8
ROOT
ATOM      1  C   UNL     1     -14.908 -42.588  26.154  1.00  0.00     0.010 C 
ENDROOT
BRANCH   1   2
ATOM      2  C   UNL     1     -16.039 -43.084  25.229  1.00  0.00     0.000 C 
ATOM      3  C   UNL     1     -18.540 -43.035  24.827  1.00  0.00     0.262 C 
ATOM      4  N   UNL     1     -18.293 -42.641  23.391  1.00  0.00    -0.331 N 
ATOM      5  C   UNL     1     -17.400 -42.567  25.724  1.00  0.00     0.065 C 
ATOM      6  C   UNL     1     -16.976 -43.170  22.883  1.00  0.00     0.262 C 
ATOM      7  C   UNL     1     -15.829 -42.687  23.760  1.00  0.00     0.065 C 
ATOM      8  H   UNL     1     -19.018 -43.129  22.850  1.00  0.00     0.348 HD
BRANCH   4   9
ATOM      9  C   UNL     1     -18.514 -41.176  23.079  1.00  0.00     0.299 C 
BRANCH   9  10
ATOM     10  C   UNL     1     -19.774 -40.923  22.297  1.00  0.00     0.006 A 
ATOM     11  C   UNL     1     -20.462 -41.985  21.690  1.00  0.00     0.009 A 
ATOM     12  C   UNL     1     -20.269 -39.618  22.146  1.00  0.00     0.009 A 
ATOM     13  C   UNL     1     -21.615 -41.745  20.943  1.00  0.00     0.001 A 
ATOM     14  C   UNL     1     -21.424 -39.383  21.398  1.00  0.00     0.001 A 
ATOM     15  C   UNL     1     -22.093 -40.445  20.795  1.00  0.00     0.000 A 
ENDBRANCH   9  10
ENDBRANCH   4   9
ENDBRANCH   1   2
BRANCH   1  16
ATOM     16  C   UNL     1     -13.580 -43.352  26.049  1.00  0.00     0.061 C 
BRANCH  16  17
ATOM     17  C   UNL     1     -12.910 -43.565  27.364  1.00  0.00     0.091 A 
ATOM     18  N   UNL     1     -13.588 -44.129  28.375  1.00  0.00    -0.084 NA
ATOM     19  C   UNL     1     -11.587 -43.230  27.746  1.00  0.00     0.045 A 
ATOM     20  O   UNL     1     -12.699 -44.178  29.438  1.00  0.00    -0.356 OA
ATOM     21  C   UNL     1     -10.460 -42.638  27.157  1.00  0.00     0.021 A 
ATOM     22  C   UNL     1     -11.507 -43.642  29.062  1.00  0.00     0.170 A 
ATOM     23  C   UNL     1      -9.290 -42.486  27.931  1.00  0.00    -0.008 A 
ATOM     24  C   UNL     1     -10.377 -43.518  29.865  1.00  0.00     0.097 A 
ATOM     25  C   UNL     1      -9.252 -42.928  29.272  1.00  0.00     0.125 A 
ATOM     26  C   UNL     1      -8.073 -41.855  27.304  1.00  0.00     0.048 C 
BRANCH  25  27
ATOM     27  O   UNL     1      -8.059 -42.725  29.918  1.00  0.00    -0.496 OA
ATOM     28  C   UNL     1      -7.764 -43.555  31.036  1.00  0.00     0.278 C 
ENDBRANCH  25  27
ENDBRANCH  16  17
ENDBRANCH   1  16
TORSDOF 6
ENDMDL
MODEL 9
REMARK VINA RESULT:    -9.937      1.439      2.059
REMARK INTER + INTRA:         -14.147
REMARK INTER:                 -13.606
REMARK INTRA:                  -0.540
REMARK UNBOUND:                -0.725
REMARK SMILES COc1cc2onc(CC[C@H]3CC[N@@H+](Cc4ccccc4)CC3)c2cc1C
REMARK SMILES IDX 10 1 11 2 13 3 14 4 12 5 22 6 23 7 15 9 16 10 17 11 21 12
REMARK SMILES IDX 18 13 20 14 19 15 9 16 8 17 7 18 24 19 6 20 25 21 5 22 26 23
REMARK SMILES IDX 4 24 3 25 27 26 2 27 1 28
REMARK H PARENT 14 8
ROOT
ATOM      1  C   UNL     1     -13.698 -45.767  28.099  1.00  0.00     0.010 C 
ENDROOT
BRANCH   1   2
ATOM      2  C   UNL     1     -12.555 -46.155  29.062  1.00  0.00     0.000 C 
ATOM      3  C   UNL     1     -10.038 -46.280  29.324  1.00  0.00     0.262 C 
ATOM      4  N   UNL     1     -10.147 -45.541  30.636  1.00  0.00    -0.331 N 
ATOM      5  C   UNL     1     -11.190 -45.913  28.396  1.00  0.00     0.065 C 
ATOM      6  C   UNL     1     -11.467 -45.796  31.315  1.00  0.00     0.262 C 
ATOM      7  C   UNL     1     -12.624 -45.409  30.403  1.00  0.00     0.065 C 
ATOM      8  H   UNL     1      -9.433 -45.966  31.242  1.00  0.00     0.348 HD
BRANCH   4   9
ATOM      9  C   UNL     1      -9.770 -44.076  30.582  1.00  0.00     0.299 C 
BRANCH   9  10
ATOM     10  C   UNL     1      -9.753 -43.421  31.936  1.00  0.00     0.006 A 
ATOM     11  C   UNL     1      -8.563 -43.341  32.676  1.00  0.00     0.009 A 
ATOM     12  C   UNL     1     -10.933 -42.898  32.488  1.00  0.00     0.009 A 
ATOM     13  C   UNL     1      -8.556 -42.758  33.942  1.00  0.00     0.001 A 
ATOM     14  C   UNL     1     -10.921 -42.314  33.756  1.00  0.00     0.001 A 
ATOM     15  C   UNL     1      -9.735 -42.248  34.483  1.00  0.00     0.000 A 
ENDBRANCH   9  10
ENDBRANCH   4   9
ENDBRANCH   1   2
BRANCH   1  16
ATOM     16  C   UNL     1     -14.124 -44.292  28.135  1.00  0.00     0.061 C 
BRANCH  16  17
ATOM     17  C   UNL     1     -14.176 -43.655  26.788  1.00  0.00     0.091 A 
ATOM     18  N   UNL     1     -13.040 -43.444  26.106  1.00  0.00    -0.084 NA
ATOM     19  C   UNL     1     -15.308 -43.193  26.071  1.00  0.00     0.045 A 
ATOM     20  O   UNL     1     -13.426 -42.843  24.917  1.00  0.00    -0.356 OA
ATOM     21  C   UNL     1     -16.697 -43.131  26.262  1.00  0.00     0.021 A 
ATOM     22  C   UNL     1     -14.778 -42.695  24.898  1.00  0.00     0.170 A 
ATOM     23  C   UNL     1     -17.496 -42.563  25.248  1.00  0.00    -0.008 A 
ATOM     24  C   UNL     1     -15.523 -42.128  23.867  1.00  0.00     0.097 A 
ATOM     25  C   UNL     1     -16.910 -42.070  24.060  1.00  0.00     0.125 A 
ATOM     26  C   UNL     1     -18.990 -42.498  25.443  1.00  0.00     0.048 C 
BRANCH  25  27
ATOM     27  O   UNL     1     -17.793 -41.542  23.152  1.00  0.00    -0.496 OA
ATOM     28  C   UNL     1     -17.251 -40.883  22.013  1.00  0.00     0.278 C 
ENDBRANCH  25  27
ENDBRANCH  16  17
ENDBRANCH   1  16
TORSDOF 6
ENDMDL
