MODEL 1
REMARK VINA RESULT:   -12.873      0.000      0.000
REMARK INTER + INTRA:         -18.136
REMARK INTER:                 -17.388
REMARK INTRA:                  -0.748
REMARK UNBOUND:                -0.748
REMARK SMILES O=C(CC[C@H]1CC[N@H+](Cc2ccccc2)CC1)c1cc2c3c(c1)CCN3C(=O)CC2
REMARK SMILES IDX 4 1 5 2 7 3 8 4 6 5 16 6 17 7 9 9 10 10 11 11 15 12 12 13
REMARK SMILES IDX 14 14 13 15 3 16 2 17 1 18 18 19 19 20 23 21 20 22 22 23
REMARK SMILES IDX 21 24 30 25 24 26 26 27 29 28 25 29 27 30 28 31
REMARK H PARENT 8 8
ROOT
ATOM      1  C   UNL     1     -13.822 -45.265  26.475  1.00  0.00     0.012 C 
ENDROOT
BRANCH   1   2
ATOM      2  C   UNL     1     -13.152 -45.763  27.768  1.00  0.00     0.000 C 
ATOM      3  C   UNL     1     -12.972 -45.564  30.274  1.00  0.00     0.262 C 
ATOM      4  N   UNL     1     -11.469 -45.594  30.148  1.00  0.00    -0.331 N 
ATOM      5  C   UNL     1     -13.584 -44.974  29.009  1.00  0.00     0.065 C 
ATOM      6  C   UNL     1     -11.006 -46.384  28.945  1.00  0.00     0.262 C 
ATOM      7  C   UNL     1     -11.623 -45.797  27.679  1.00  0.00     0.065 C 
ATOM      8  H   UNL     1     -11.144 -44.628  30.018  1.00  0.00     0.348 HD
BRANCH   4   9
ATOM      9  C   UNL     1     -10.823 -46.072  31.436  1.00  0.00     0.299 C 
BRANCH   9  10
ATOM     10  C   UNL     1      -9.530 -45.367  31.741  1.00  0.00     0.006 A 
ATOM     11  C   UNL     1      -8.299 -45.999  31.494  1.00  0.00     0.009 A 
ATOM     12  C   UNL     1      -9.533 -44.078  32.294  1.00  0.00     0.009 A 
ATOM     13  C   UNL     1      -7.101 -45.354  31.802  1.00  0.00     0.001 A 
ATOM     14  C   UNL     1      -8.330 -43.438  32.601  1.00  0.00     0.001 A 
ATOM     15  C   UNL     1      -7.117 -44.078  32.357  1.00  0.00     0.000 A 
ENDBRANCH   9  10
ENDBRANCH   4   9
ENDBRANCH   1   2
BRANCH   1  16
ATOM     16  C   UNL     1     -13.991 -43.747  26.332  1.00  0.00     0.081 C 
BRANCH  16  17
ATOM     17  C   UNL     1     -14.668 -43.389  25.015  1.00  0.00     0.162 C 
ATOM     18  O   UNL     1     -14.089 -43.513  23.939  1.00  0.00    -0.294 OA
BRANCH  17  19
ATOM     19  C   UNL     1     -16.075 -42.879  25.036  1.00  0.00     0.018 A 
ATOM     20  C   UNL     1     -16.775 -42.563  23.845  1.00  0.00     0.017 A 
ATOM     21  C   UNL     1     -16.702 -42.735  26.294  1.00  0.00     0.017 A 
ATOM     22  C   UNL     1     -18.086 -42.081  23.906  1.00  0.00    -0.023 A 
ATOM     23  C   UNL     1     -18.005 -42.276  26.337  1.00  0.00    -0.021 A 
ATOM     24  C   UNL     1     -18.645 -41.948  25.157  1.00  0.00     0.050 A 
ATOM     25  C   UNL     1     -18.967 -41.819  22.722  1.00  0.00     0.047 C 
ATOM     26  C   UNL     1     -18.915 -42.035  27.505  1.00  0.00     0.059 C 
ATOM     27  N   UNL     1     -19.937 -41.514  25.386  1.00  0.00    -0.312 N 
ATOM     28  C   UNL     1     -20.092 -40.831  23.050  1.00  0.00     0.105 C 
ATOM     29  C   UNL     1     -20.249 -41.664  26.809  1.00  0.00     0.130 C 
ATOM     30  C   UNL     1     -20.773 -41.073  24.394  1.00  0.00     0.227 C 
ATOM     31  O   UNL     1     -21.954 -40.792  24.582  1.00  0.00    -0.275 OA
ENDBRANCH  17  19
ENDBRANCH  16  17
ENDBRANCH   1  16
TORSDOF 6
ENDMDL
MODEL 2
REMARK VINA RESULT:   -12.811      0.383      1.859
REMARK INTER + INTRA:         -18.053
REMARK INTER:                 -17.329
REMARK INTRA:                  -0.723
REMARK UNBOUND:                -0.748
REMARK SMILES O=C(CC[C@H]1CC[N@H+](Cc2ccccc2)CC1)c1cc2c3c(c1)CCN3C(=O)CC2
REMARK SMILES IDX 4 1 5 2 7 3 8 4 6 5 16 6 17 7 9 9 10 10 11 11 15 12 12 13
REMARK SMILES IDX 14 14 13 15 3 16 2 17 1 18 18 19 19 20 23 21 20 22 22 23
REMARK SMILES IDX 21 24 30 25 24 26 26 27 29 28 25 29 27 30 28 31
REMARK H PARENT 8 8
ROOT
ATOM      1  C   UNL     1     -13.780 -45.324  26.434  1.00  0.00     0.012 C 
ENDROOT
BRANCH   1   2
ATOM      2  C   UNL     1     -13.134 -45.794  27.749  1.00  0.00     0.000 C 
ATOM      3  C   UNL     1     -12.874 -45.432  30.231  1.00  0.00     0.262 C 
ATOM      4  N   UNL     1     -11.386 -45.628  30.083  1.00  0.00    -0.331 N 
ATOM      5  C   UNL     1     -13.452 -44.876  28.935  1.00  0.00     0.065 C 
ATOM      6  C   UNL     1     -11.036 -46.548  28.934  1.00  0.00     0.262 C 
ATOM      7  C   UNL     1     -11.619 -45.994  27.638  1.00  0.00     0.065 C 
ATOM      8  H   UNL     1     -10.966 -44.714  29.875  1.00  0.00     0.348 HD
BRANCH   4   9
ATOM      9  C   UNL     1     -10.761 -46.076  31.392  1.00  0.00     0.299 C 
BRANCH   9  10
ATOM     10  C   UNL     1      -9.539 -45.281  31.762  1.00  0.00     0.006 A 
ATOM     11  C   UNL     1      -8.255 -45.803  31.534  1.00  0.00     0.009 A 
ATOM     12  C   UNL     1      -9.663 -44.018  32.359  1.00  0.00     0.009 A 
ATOM     13  C   UNL     1      -7.122 -45.076  31.901  1.00  0.00     0.001 A 
ATOM     14  C   UNL     1      -8.526 -43.295  32.726  1.00  0.00     0.001 A 
ATOM     15  C   UNL     1      -7.259 -43.826  32.499  1.00  0.00     0.000 A 
ENDBRANCH   9  10
ENDBRANCH   4   9
ENDBRANCH   1   2
BRANCH   1  16
ATOM     16  C   UNL     1     -14.116 -43.830  26.331  1.00  0.00     0.081 C 
BRANCH  16  17
ATOM     17  C   UNL     1     -14.781 -43.505  25.000  1.00  0.00     0.162 C 
ATOM     18  O   UNL     1     -14.204 -43.691  23.930  1.00  0.00    -0.294 OA
BRANCH  17  19
ATOM     19  C   UNL     1     -16.170 -42.950  24.997  1.00  0.00     0.018 A 
ATOM     20  C   UNL     1     -16.907 -42.769  26.195  1.00  0.00     0.017 A 
ATOM     21  C   UNL     1     -16.731 -42.590  23.752  1.00  0.00     0.017 A 
ATOM     22  C   UNL     1     -18.206 -42.256  26.151  1.00  0.00    -0.023 A 
ATOM     23  C   UNL     1     -18.009 -42.066  23.725  1.00  0.00    -0.021 A 
ATOM     24  C   UNL     1     -18.709 -41.933  24.910  1.00  0.00     0.050 A 
ATOM     25  C   UNL     1     -19.042 -41.913  27.347  1.00  0.00     0.047 C 
ATOM     26  C   UNL     1     -18.847 -41.595  22.573  1.00  0.00     0.059 C 
ATOM     27  N   UNL     1     -19.962 -41.390  24.699  1.00  0.00    -0.312 N 
ATOM     28  C   UNL     1     -20.538 -41.890  27.016  1.00  0.00     0.105 C 
ATOM     29  C   UNL     1     -20.092 -41.013  23.290  1.00  0.00     0.130 C 
ATOM     30  C   UNL     1     -20.882 -41.203  25.697  1.00  0.00     0.227 C 
ATOM     31  O   UNL     1     -21.951 -40.621  25.530  1.00  0.00    -0.275 OA
ENDBRANCH  17  19
ENDBRANCH  16  17
ENDBRANCH   1  16
TORSDOF 6
ENDMDL
MODEL 3
REMARK VINA RESULT:   -12.685      3.603      9.248
REMARK INTER + INTRA:         -17.883
REMARK INTER:                 -16.670
REMARK INTRA:                  -1.212
REMARK UNBOUND:                -0.748
REMARK SMILES O=C(CC[C@H]1CC[N@H+](Cc2ccccc2)CC1)c1cc2c3c(c1)CCN3C(=O)CC2
REMARK SMILES IDX 4 1 5 2 7 3 8 4 6 5 16 6 17 7 9 9 10 10 11 11 15 12 12 13
REMARK SMILES IDX 14 14 13 15 3 16 2 17 1 18 18 19 19 20 23 21 20 22 22 23
REMARK SMILES IDX 21 24 30 25 24 26 26 27 29 28 25 29 27 30 28 31
REMARK H PARENT 8 8
ROOT
ATOM      1  C   UNL     1     -11.127 -46.534  28.560  1.00  0.00     0.012 C 
ENDROOT
BRANCH   1   2
ATOM      2  C   UNL     1     -11.865 -45.510  27.680  1.00  0.00     0.000 C 
ATOM      3  C   UNL     1     -12.326 -43.081  27.187  1.00  0.00     0.262 C 
ATOM      4  N   UNL     1     -13.794 -43.406  27.063  1.00  0.00    -0.331 N 
ATOM      5  C   UNL     1     -11.660 -44.063  28.143  1.00  0.00     0.065 C 
ATOM      6  C   UNL     1     -14.034 -44.821  26.586  1.00  0.00     0.262 C 
ATOM      7  C   UNL     1     -13.362 -45.804  27.540  1.00  0.00     0.065 C 
ATOM      8  H   UNL     1     -14.215 -43.328  27.997  1.00  0.00     0.348 HD
BRANCH   4   9
ATOM      9  C   UNL     1     -14.510 -42.378  26.205  1.00  0.00     0.299 C 
BRANCH   9  10
ATOM     10  C   UNL     1     -16.007 -42.459  26.318  1.00  0.00     0.006 A 
ATOM     11  C   UNL     1     -16.801 -42.610  25.168  1.00  0.00     0.009 A 
ATOM     12  C   UNL     1     -16.634 -42.366  27.570  1.00  0.00     0.009 A 
ATOM     13  C   UNL     1     -18.192 -42.658  25.273  1.00  0.00     0.001 A 
ATOM     14  C   UNL     1     -18.026 -42.413  27.668  1.00  0.00     0.001 A 
ATOM     15  C   UNL     1     -18.802 -42.557  26.520  1.00  0.00     0.000 A 
ENDBRANCH   9  10
ENDBRANCH   4   9
ENDBRANCH   1   2
BRANCH   1  16
ATOM     16  C   UNL     1      -9.752 -46.112  29.096  1.00  0.00     0.081 C 
BRANCH  16  17
ATOM     17  C   UNL     1      -9.709 -46.184  30.618  1.00  0.00     0.162 C 
ATOM     18  O   UNL     1      -9.051 -47.042  31.202  1.00  0.00    -0.294 OA
BRANCH  17  19
ATOM     19  C   UNL     1     -10.482 -45.182  31.416  1.00  0.00     0.018 A 
ATOM     20  C   UNL     1     -11.899 -45.172  31.435  1.00  0.00     0.017 A 
ATOM     21  C   UNL     1      -9.750 -44.242  32.175  1.00  0.00     0.017 A 
ATOM     22  C   UNL     1     -12.586 -44.214  32.186  1.00  0.00    -0.023 A 
ATOM     23  C   UNL     1     -10.442 -43.314  32.928  1.00  0.00    -0.021 A 
ATOM     24  C   UNL     1     -11.824 -43.314  32.898  1.00  0.00     0.050 A 
ATOM     25  C   UNL     1     -14.072 -44.168  32.378  1.00  0.00     0.047 C 
ATOM     26  C   UNL     1      -9.945 -42.218  33.824  1.00  0.00     0.059 C 
ATOM     27  N   UNL     1     -12.349 -42.326  33.710  1.00  0.00    -0.312 N 
ATOM     28  C   UNL     1     -14.557 -42.769  32.774  1.00  0.00     0.105 C 
ATOM     29  C   UNL     1     -11.259 -41.677  34.441  1.00  0.00     0.130 C 
ATOM     30  C   UNL     1     -13.690 -42.072  33.819  1.00  0.00     0.227 C 
ATOM     31  O   UNL     1     -14.162 -41.271  34.622  1.00  0.00    -0.275 OA
ENDBRANCH  17  19
ENDBRANCH  16  17
ENDBRANCH   1  16
TORSDOF 6
ENDMDL
MODEL 4
REMARK VINA RESULT:   -12.238      1.559      2.133
REMARK INTER + INTRA:         -17.278
REMARK INTER:                 -16.401
REMARK INTRA:                  -0.877
REMARK UNBOUND:                -0.748
REMARK SMILES O=C(CC[C@H]1CC[N@H+](Cc2ccccc2)CC1)c1cc2c3c(c1)CCN3C(=O)CC2
REMARK SMILES IDX 4 1 5 2 7 3 8 4 6 5 16 6 17 7 9 9 10 10 11 11 15 12 12 13
REMARK SMILES IDX 14 14 13 15 3 16 2 17 1 18 18 19 19 20 23 21 20 22 22 23
REMARK SMILES IDX 21 24 30 25 24 26 26 27 29 28 25 29 27 30 28 31
REMARK H PARENT 8 8
ROOT
ATOM      1  C   UNL     1     -13.669 -45.081  26.975  1.00  0.00     0.012 C 
ENDROOT
BRANCH   1   2
ATOM      2  C   UNL     1     -12.393 -45.140  27.833  1.00  0.00     0.000 C 
ATOM      3  C   UNL     1     -11.313 -45.914  29.975  1.00  0.00     0.262 C 
ATOM      4  N   UNL     1     -10.675 -44.555  30.121  1.00  0.00    -0.331 N 
ATOM      5  C   UNL     1     -12.621 -45.789  29.202  1.00  0.00     0.065 C 
ATOM      6  C   UNL     1     -10.415 -43.892  28.787  1.00  0.00     0.262 C 
ATOM      7  C   UNL     1     -11.723 -43.773  28.011  1.00  0.00     0.065 C 
ATOM      8  H   UNL     1     -11.331 -43.952  30.634  1.00  0.00     0.348 HD
BRANCH   4   9
ATOM      9  C   UNL     1      -9.427 -44.627  30.983  1.00  0.00     0.299 C 
BRANCH   9  10
ATOM     10  C   UNL     1      -9.509 -43.759  32.209  1.00  0.00     0.006 A 
ATOM     11  C   UNL     1     -10.756 -43.328  32.693  1.00  0.00     0.009 A 
ATOM     12  C   UNL     1      -8.343 -43.350  32.873  1.00  0.00     0.009 A 
ATOM     13  C   UNL     1     -10.829 -42.501  33.815  1.00  0.00     0.001 A 
ATOM     14  C   UNL     1      -8.423 -42.522  33.994  1.00  0.00     0.001 A 
ATOM     15  C   UNL     1      -9.664 -42.097  34.461  1.00  0.00     0.000 A 
ENDBRANCH   9  10
ENDBRANCH   4   9
ENDBRANCH   1   2
BRANCH   1  16
ATOM     16  C   UNL     1     -14.170 -43.682  26.588  1.00  0.00     0.081 C 
BRANCH  16  17
ATOM     17  C   UNL     1     -15.459 -43.336  27.322  1.00  0.00     0.162 C 
ATOM     18  O   UNL     1     -15.561 -43.468  28.539  1.00  0.00    -0.294 OA
BRANCH  17  19
ATOM     19  C   UNL     1     -16.625 -42.819  26.540  1.00  0.00     0.018 A 
ATOM     20  C   UNL     1     -16.598 -42.730  25.125  1.00  0.00     0.017 A 
ATOM     21  C   UNL     1     -17.777 -42.430  27.259  1.00  0.00     0.017 A 
ATOM     22  C   UNL     1     -17.704 -42.233  24.430  1.00  0.00    -0.023 A 
ATOM     23  C   UNL     1     -18.870 -41.959  26.557  1.00  0.00    -0.021 A 
ATOM     24  C   UNL     1     -18.796 -41.857  25.180  1.00  0.00     0.050 A 
ATOM     25  C   UNL     1     -17.843 -42.196  22.938  1.00  0.00     0.047 C 
ATOM     26  C   UNL     1     -20.210 -41.488  27.040  1.00  0.00     0.059 C 
ATOM     27  N   UNL     1     -19.976 -41.375  24.645  1.00  0.00    -0.312 N 
ATOM     28  C   UNL     1     -18.869 -41.152  22.482  1.00  0.00     0.105 C 
ATOM     29  C   UNL     1     -20.971 -41.246  25.711  1.00  0.00     0.130 C 
ATOM     30  C   UNL     1     -20.152 -41.125  23.309  1.00  0.00     0.227 C 
ATOM     31  O   UNL     1     -21.231 -40.802  22.819  1.00  0.00    -0.275 OA
ENDBRANCH  17  19
ENDBRANCH  16  17
ENDBRANCH   1  16
TORSDOF 6
ENDMDL
MODEL 5
REMARK VINA RESULT:   -11.741      1.680      2.834
REMARK INTER + INTRA:         -16.607
REMARK INTER:                 -15.766
REMARK INTRA:                  -0.841
REMARK UNBOUND:                -0.748
REMARK SMILES O=C(CC[C@H]1CC[N@H+](Cc2ccccc2)CC1)c1cc2c3c(c1)CCN3C(=O)CC2
REMARK SMILES IDX 4 1 5 2 7 3 8 4 6 5 16 6 17 7 9 9 10 10 11 11 15 12 12 13
REMARK SMILES IDX 14 14 13 15 3 16 2 17 1 18 18 19 19 20 23 21 20 22 22 23
REMARK SMILES IDX 21 24 30 25 24 26 26 27 29 28 25 29 27 30 28 31
REMARK H PARENT 8 8
ROOT
ATOM      1  C   UNL     1     -14.229 -44.680  26.812  1.00  0.00     0.012 C 
ENDROOT
BRANCH   1   2
ATOM      2  C   UNL     1     -12.962 -44.788  27.679  1.00  0.00     0.000 C 
ATOM      3  C   UNL     1     -11.967 -45.407  29.911  1.00  0.00     0.262 C 
ATOM      4  N   UNL     1     -11.162 -44.131  29.883  1.00  0.00    -0.331 N 
ATOM      5  C   UNL     1     -13.256 -45.220  29.120  1.00  0.00     0.065 C 
ATOM      6  C   UNL     1     -10.834 -43.686  28.475  1.00  0.00     0.262 C 
ATOM      7  C   UNL     1     -12.124 -43.505  27.682  1.00  0.00     0.065 C 
ATOM      8  H   UNL     1     -11.731 -43.389  30.309  1.00  0.00     0.348 HD
BRANCH   4   9
ATOM      9  C   UNL     1      -9.924 -44.247  30.755  1.00  0.00     0.299 C 
BRANCH   9  10
ATOM     10  C   UNL     1     -10.051 -43.503  32.056  1.00  0.00     0.006 A 
ATOM     11  C   UNL     1     -11.302 -43.030  32.487  1.00  0.00     0.009 A 
ATOM     12  C   UNL     1      -8.920 -43.252  32.847  1.00  0.00     0.009 A 
ATOM     13  C   UNL     1     -11.414 -42.317  33.680  1.00  0.00     0.001 A 
ATOM     14  C   UNL     1      -9.038 -42.536  34.040  1.00  0.00     0.001 A 
ATOM     15  C   UNL     1     -10.283 -42.068  34.454  1.00  0.00     0.000 A 
ENDBRANCH   9  10
ENDBRANCH   4   9
ENDBRANCH   1   2
BRANCH   1  16
ATOM     16  C   UNL     1     -14.732 -43.263  26.507  1.00  0.00     0.081 C 
BRANCH  16  17
ATOM     17  C   UNL     1     -16.019 -42.960  27.265  1.00  0.00     0.162 C 
ATOM     18  O   UNL     1     -16.083 -43.058  28.488  1.00  0.00    -0.294 OA
BRANCH  17  19
ATOM     19  C   UNL     1     -17.230 -42.528  26.499  1.00  0.00     0.018 A 
ATOM     20  C   UNL     1     -18.406 -42.079  27.149  1.00  0.00     0.017 A 
ATOM     21  C   UNL     1     -17.161 -42.566  25.089  1.00  0.00     0.017 A 
ATOM     22  C   UNL     1     -19.520 -41.692  26.399  1.00  0.00    -0.023 A 
ATOM     23  C   UNL     1     -18.264 -42.162  24.360  1.00  0.00    -0.021 A 
ATOM     24  C   UNL     1     -19.405 -41.760  25.028  1.00  0.00     0.050 A 
ATOM     25  C   UNL     1     -20.776 -41.095  26.959  1.00  0.00     0.047 C 
ATOM     26  C   UNL     1     -18.479 -42.087  22.877  1.00  0.00     0.059 C 
ATOM     27  N   UNL     1     -20.402 -41.386  24.147  1.00  0.00    -0.312 N 
ATOM     28  C   UNL     1     -21.969 -41.271  26.013  1.00  0.00     0.105 C 
ATOM     29  C   UNL     1     -19.875 -41.422  22.781  1.00  0.00     0.130 C 
ATOM     30  C   UNL     1     -21.655 -41.000  24.544  1.00  0.00     0.227 C 
ATOM     31  O   UNL     1     -22.504 -40.564  23.771  1.00  0.00    -0.275 OA
ENDBRANCH  17  19
ENDBRANCH  16  17
ENDBRANCH   1  16
TORSDOF 6
ENDMDL
MODEL 6
REMARK VINA RESULT:   -11.507      3.118     10.664
REMARK INTER + INTRA:         -16.291
REMARK INTER:                 -16.292
REMARK INTRA:                   0.001
REMARK UNBOUND:                -0.748
REMARK SMILES O=C(CC[C@H]1CC[N@H+](Cc2ccccc2)CC1)c1cc2c3c(c1)CCN3C(=O)CC2
REMARK SMILES IDX 4 1 5 2 7 3 8 4 6 5 16 6 17 7 9 9 10 10 11 11 15 12 12 13
REMARK SMILES IDX 14 14 13 15 3 16 2 17 1 18 18 19 19 20 23 21 20 22 22 23
REMARK SMILES IDX 21 24 30 25 24 26 26 27 29 28 25 29 27 30 28 31
REMARK H PARENT 8 8
ROOT
ATOM      1  C   UNL     1     -12.388 -45.022  28.089  1.00  0.00     0.012 C 
ENDROOT
BRANCH   1   2
ATOM      2  C   UNL     1     -13.452 -44.324  27.223  1.00  0.00     0.000 C 
ATOM      3  C   UNL     1     -14.914 -44.424  25.172  1.00  0.00     0.262 C 
ATOM      4  N   UNL     1     -14.528 -43.001  24.852  1.00  0.00    -0.331 N 
ATOM      5  C   UNL     1     -13.789 -45.101  25.946  1.00  0.00     0.065 C 
ATOM      6  C   UNL     1     -14.209 -42.196  26.093  1.00  0.00     0.262 C 
ATOM      7  C   UNL     1     -13.087 -42.878  26.870  1.00  0.00     0.065 C 
ATOM      8  H   UNL     1     -13.673 -43.026  24.282  1.00  0.00     0.348 HD
BRANCH   4   9
ATOM      9  C   UNL     1     -15.579 -42.332  23.985  1.00  0.00     0.299 C 
BRANCH   9  10
ATOM     10  C   UNL     1     -16.966 -42.434  24.558  1.00  0.00     0.006 A 
ATOM     11  C   UNL     1     -18.085 -42.473  23.709  1.00  0.00     0.009 A 
ATOM     12  C   UNL     1     -17.164 -42.472  25.946  1.00  0.00     0.009 A 
ATOM     13  C   UNL     1     -19.372 -42.542  24.242  1.00  0.00     0.001 A 
ATOM     14  C   UNL     1     -18.454 -42.540  26.474  1.00  0.00     0.001 A 
ATOM     15  C   UNL     1     -19.556 -42.572  25.622  1.00  0.00     0.000 A 
ENDBRANCH   9  10
ENDBRANCH   4   9
ENDBRANCH   1   2
BRANCH   1  16
ATOM     16  C   UNL     1     -12.810 -46.332  28.769  1.00  0.00     0.081 C 
BRANCH  16  17
ATOM     17  C   UNL     1     -12.773 -46.202  30.286  1.00  0.00     0.162 C 
ATOM     18  O   UNL     1     -13.684 -46.631  30.991  1.00  0.00    -0.294 OA
BRANCH  17  19
ATOM     19  C   UNL     1     -11.597 -45.539  30.931  1.00  0.00     0.018 A 
ATOM     20  C   UNL     1     -10.267 -45.952  30.667  1.00  0.00     0.017 A 
ATOM     21  C   UNL     1     -11.850 -44.464  31.811  1.00  0.00     0.017 A 
ATOM     22  C   UNL     1      -9.194 -45.314  31.296  1.00  0.00    -0.023 A 
ATOM     23  C   UNL     1     -10.779 -43.830  32.410  1.00  0.00    -0.021 A 
ATOM     24  C   UNL     1      -9.497 -44.280  32.154  1.00  0.00     0.050 A 
ATOM     25  C   UNL     1      -7.745 -45.581  31.017  1.00  0.00     0.047 C 
ATOM     26  C   UNL     1     -10.739 -42.674  33.366  1.00  0.00     0.059 C 
ATOM     27  N   UNL     1      -8.553 -43.531  32.829  1.00  0.00    -0.312 N 
ATOM     28  C   UNL     1      -6.847 -45.151  32.182  1.00  0.00     0.105 C 
ATOM     29  C   UNL     1      -9.218 -42.415  33.504  1.00  0.00     0.130 C 
ATOM     30  C   UNL     1      -7.210 -43.800  32.794  1.00  0.00     0.227 C 
ATOM     31  O   UNL     1      -6.362 -43.071  33.303  1.00  0.00    -0.275 OA
ENDBRANCH  17  19
ENDBRANCH  16  17
ENDBRANCH   1  16
TORSDOF 6
ENDMDL
MODEL 7
REMARK VINA RESULT:   -11.468      2.668     11.312
REMARK INTER + INTRA:         -16.239
REMARK INTER:                 -15.429
REMARK INTRA:                  -0.810
REMARK UNBOUND:                -0.748
REMARK SMILES O=C(CC[C@H]1CC[N@H+](Cc2ccccc2)CC1)c1cc2c3c(c1)CCN3C(=O)CC2
REMARK SMILES IDX 4 1 5 2 7 3 8 4 6 5 16 6 17 7 9 9 10 10 11 11 15 12 12 13
REMARK SMILES IDX 14 14 13 15 3 16 2 17 1 18 18 19 19 20 23 21 20 22 22 23
REMARK SMILES IDX 21 24 30 25 24 26 26 27 29 28 25 29 27 30 28 31
REMARK H PARENT 8 8
ROOT
ATOM      1  C   UNL     1     -16.214 -42.634  26.803  1.00  0.00     0.012 C 
ENDROOT
BRANCH   1   2
ATOM      2  C   UNL     1     -17.277 -42.824  25.707  1.00  0.00     0.000 C 
ATOM      3  C   UNL     1     -17.846 -42.665  23.256  1.00  0.00     0.262 C 
ATOM      4  N   UNL     1     -19.151 -42.004  23.622  1.00  0.00    -0.331 N 
ATOM      5  C   UNL     1     -16.799 -42.368  24.323  1.00  0.00     0.065 C 
ATOM      6  C   UNL     1     -19.664 -42.448  24.974  1.00  0.00     0.262 C 
ATOM      7  C   UNL     1     -18.614 -42.156  26.042  1.00  0.00     0.065 C 
ATOM      8  H   UNL     1     -18.986 -40.991  23.681  1.00  0.00     0.348 HD
BRANCH   4   9
ATOM      9  C   UNL     1     -20.184 -42.187  22.525  1.00  0.00     0.299 C 
BRANCH   9  10
ATOM     10  C   UNL     1     -20.372 -40.953  21.685  1.00  0.00     0.006 A 
ATOM     11  C   UNL     1     -20.567 -41.061  20.297  1.00  0.00     0.009 A 
ATOM     12  C   UNL     1     -20.337 -39.679  22.269  1.00  0.00     0.009 A 
ATOM     13  C   UNL     1     -20.715 -39.916  19.515  1.00  0.00     0.001 A 
ATOM     14  C   UNL     1     -20.485 -38.536  21.481  1.00  0.00     0.001 A 
ATOM     15  C   UNL     1     -20.671 -38.656  20.106  1.00  0.00     0.000 A 
ENDBRANCH   9  10
ENDBRANCH   4   9
ENDBRANCH   1   2
BRANCH   1  16
ATOM     16  C   UNL     1     -14.768 -42.430  26.327  1.00  0.00     0.081 C 
BRANCH  16  17
ATOM     17  C   UNL     1     -13.993 -43.742  26.344  1.00  0.00     0.162 C 
ATOM     18  O   UNL     1     -14.242 -44.646  25.550  1.00  0.00    -0.294 OA
BRANCH  17  19
ATOM     19  C   UNL     1     -12.900 -43.928  27.349  1.00  0.00     0.018 A 
ATOM     20  C   UNL     1     -12.941 -44.962  28.317  1.00  0.00     0.017 A 
ATOM     21  C   UNL     1     -11.802 -43.041  27.296  1.00  0.00     0.017 A 
ATOM     22  C   UNL     1     -11.905 -45.099  29.245  1.00  0.00    -0.023 A 
ATOM     23  C   UNL     1     -10.776 -43.200  28.207  1.00  0.00    -0.021 A 
ATOM     24  C   UNL     1     -10.865 -44.200  29.157  1.00  0.00     0.050 A 
ATOM     25  C   UNL     1     -11.776 -46.213  30.240  1.00  0.00     0.047 C 
ATOM     26  C   UNL     1      -9.501 -42.429  28.385  1.00  0.00     0.059 C 
ATOM     27  N   UNL     1      -9.753 -44.218  29.979  1.00  0.00    -0.312 N 
ATOM     28  C   UNL     1     -10.884 -45.825  31.425  1.00  0.00     0.105 C 
ATOM     29  C   UNL     1      -8.779 -43.241  29.490  1.00  0.00     0.130 C 
ATOM     30  C   UNL     1      -9.612 -45.074  31.039  1.00  0.00     0.227 C 
ATOM     31  O   UNL     1      -8.581 -45.165  31.700  1.00  0.00    -0.275 OA
ENDBRANCH  17  19
ENDBRANCH  16  17
ENDBRANCH   1  16
TORSDOF 6
ENDMDL
MODEL 8
REMARK VINA RESULT:   -11.159      2.612     11.171
REMARK INTER + INTRA:         -15.821
REMARK INTER:                 -15.021
REMARK INTRA:                  -0.799
REMARK UNBOUND:                -0.748
REMARK SMILES O=C(CC[C@H]1CC[N@H+](Cc2ccccc2)CC1)c1cc2c3c(c1)CCN3C(=O)CC2
REMARK SMILES IDX 4 1 5 2 7 3 8 4 6 5 16 6 17 7 9 9 10 10 11 11 15 12 12 13
REMARK SMILES IDX 14 14 13 15 3 16 2 17 1 18 18 19 19 20 23 21 20 22 22 23
REMARK SMILES IDX 21 24 30 25 24 26 26 27 29 28 25 29 27 30 28 31
REMARK H PARENT 8 8
ROOT
ATOM      1  C   UNL     1     -16.408 -42.710  26.955  1.00  0.00     0.012 C 
ENDROOT
BRANCH   1   2
ATOM      2  C   UNL     1     -17.663 -42.734  26.066  1.00  0.00     0.000 C 
ATOM      3  C   UNL     1     -18.632 -42.431  23.758  1.00  0.00     0.262 C 
ATOM      4  N   UNL     1     -19.757 -41.624  24.358  1.00  0.00    -0.331 N 
ATOM      5  C   UNL     1     -17.384 -42.298  24.623  1.00  0.00     0.065 C 
ATOM      6  C   UNL     1     -20.075 -42.042  25.777  1.00  0.00     0.262 C 
ATOM      7  C   UNL     1     -18.824 -41.915  26.641  1.00  0.00     0.065 C 
ATOM      8  H   UNL     1     -19.457 -40.642  24.394  1.00  0.00     0.348 HD
BRANCH   4   9
ATOM      9  C   UNL     1     -20.982 -41.644  23.463  1.00  0.00     0.299 C 
BRANCH   9  10
ATOM     10  C   UNL     1     -20.796 -40.856  22.195  1.00  0.00     0.006 A 
ATOM     11  C   UNL     1     -20.831 -41.499  20.946  1.00  0.00     0.009 A 
ATOM     12  C   UNL     1     -20.566 -39.473  22.242  1.00  0.00     0.009 A 
ATOM     13  C   UNL     1     -20.632 -40.771  19.772  1.00  0.00     0.001 A 
ATOM     14  C   UNL     1     -20.366 -38.750  21.064  1.00  0.00     0.001 A 
ATOM     15  C   UNL     1     -20.397 -39.400  19.833  1.00  0.00     0.000 A 
ENDBRANCH   9  10
ENDBRANCH   4   9
ENDBRANCH   1   2
BRANCH   1  16
ATOM     16  C   UNL     1     -15.068 -42.483  26.242  1.00  0.00     0.081 C 
BRANCH  16  17
ATOM     17  C   UNL     1     -14.243 -43.764  26.198  1.00  0.00     0.162 C 
ATOM     18  O   UNL     1     -14.525 -44.684  25.434  1.00  0.00    -0.294 OA
BRANCH  17  19
ATOM     19  C   UNL     1     -13.060 -43.898  27.104  1.00  0.00     0.018 A 
ATOM     20  C   UNL     1     -12.030 -42.926  27.140  1.00  0.00     0.017 A 
ATOM     21  C   UNL     1     -13.005 -45.030  27.948  1.00  0.00     0.017 A 
ATOM     22  C   UNL     1     -10.936 -43.091  27.994  1.00  0.00    -0.023 A 
ATOM     23  C   UNL     1     -11.927 -45.170  28.801  1.00  0.00    -0.021 A 
ATOM     24  C   UNL     1     -10.926 -44.218  28.786  1.00  0.00     0.050 A 
ATOM     25  C   UNL     1      -9.845 -42.085  28.207  1.00  0.00     0.047 C 
ATOM     26  C   UNL     1     -11.607 -46.243  29.799  1.00  0.00     0.059 C 
ATOM     27  N   UNL     1      -9.933 -44.512  29.702  1.00  0.00    -0.312 N 
ATOM     28  C   UNL     1      -8.565 -42.731  28.750  1.00  0.00     0.105 C 
ATOM     29  C   UNL     1     -10.334 -45.684  30.484  1.00  0.00     0.130 C 
ATOM     30  C   UNL     1      -8.797 -43.762  29.852  1.00  0.00     0.227 C 
ATOM     31  O   UNL     1      -7.970 -43.959  30.738  1.00  0.00    -0.275 OA
ENDBRANCH  17  19
ENDBRANCH  16  17
ENDBRANCH   1  16
TORSDOF 6
ENDMDL
MODEL 9
REMARK VINA RESULT:   -10.864      2.773     11.127
REMARK INTER + INTRA:         -15.423
REMARK INTER:                 -14.779
REMARK INTRA:                  -0.644
REMARK UNBOUND:                -0.748
REMARK SMILES O=C(CC[C@H]1CC[N@H+](Cc2ccccc2)CC1)c1cc2c3c(c1)CCN3C(=O)CC2
REMARK SMILES IDX 4 1 5 2 7 3 8 4 6 5 16 6 17 7 9 9 10 10 11 11 15 12 12 13
REMARK SMILES IDX 14 14 13 15 3 16 2 17 1 18 18 19 19 20 23 21 20 22 22 23
REMARK SMILES IDX 21 24 30 25 24 26 26 27 29 28 25 29 27 30 28 31
REMARK H PARENT 8 8
ROOT
ATOM      1  C   UNL     1     -16.235 -42.546  24.904  1.00  0.00     0.012 C 
ENDROOT
BRANCH   1   2
ATOM      2  C   UNL     1     -17.763 -42.724  24.968  1.00  0.00     0.000 C 
ATOM      3  C   UNL     1     -19.999 -42.237  23.912  1.00  0.00     0.262 C 
ATOM      4  N   UNL     1     -20.545 -41.891  25.275  1.00  0.00    -0.331 N 
ATOM      5  C   UNL     1     -18.502 -41.954  23.868  1.00  0.00     0.065 C 
ATOM      6  C   UNL     1     -19.852 -42.650  26.384  1.00  0.00     0.262 C 
ATOM      7  C   UNL     1     -18.353 -42.371  26.337  1.00  0.00     0.065 C 
ATOM      8  H   UNL     1     -20.371 -40.891  25.440  1.00  0.00     0.348 HD
BRANCH   4   9
ATOM      9  C   UNL     1     -22.054 -42.056  25.317  1.00  0.00     0.299 C 
BRANCH   9  10
ATOM     10  C   UNL     1     -22.766 -40.822  25.801  1.00  0.00     0.006 A 
ATOM     11  C   UNL     1     -22.758 -40.485  27.165  1.00  0.00     0.009 A 
ATOM     12  C   UNL     1     -23.464 -40.002  24.902  1.00  0.00     0.009 A 
ATOM     13  C   UNL     1     -23.441 -39.355  27.616  1.00  0.00     0.001 A 
ATOM     14  C   UNL     1     -24.147 -38.874  25.359  1.00  0.00     0.001 A 
ATOM     15  C   UNL     1     -24.137 -38.554  26.715  1.00  0.00     0.000 A 
ENDBRANCH   9  10
ENDBRANCH   4   9
ENDBRANCH   1   2
BRANCH   1  16
ATOM     16  C   UNL     1     -15.463 -42.788  26.208  1.00  0.00     0.081 C 
BRANCH  16  17
ATOM     17  C   UNL     1     -14.444 -43.909  26.045  1.00  0.00     0.162 C 
ATOM     18  O   UNL     1     -14.531 -44.730  25.134  1.00  0.00    -0.294 OA
BRANCH  17  19
ATOM     19  C   UNL     1     -13.310 -44.008  27.016  1.00  0.00     0.018 A 
ATOM     20  C   UNL     1     -13.172 -45.110  27.897  1.00  0.00     0.017 A 
ATOM     21  C   UNL     1     -12.357 -42.966  27.020  1.00  0.00     0.017 A 
ATOM     22  C   UNL     1     -12.103 -45.163  28.795  1.00  0.00    -0.023 A 
ATOM     23  C   UNL     1     -11.295 -43.041  27.901  1.00  0.00    -0.021 A 
ATOM     24  C   UNL     1     -11.210 -44.115  28.766  1.00  0.00     0.050 A 
ATOM     25  C   UNL     1     -11.784 -46.320  29.694  1.00  0.00     0.047 C 
ATOM     26  C   UNL     1     -10.144 -42.104  28.123  1.00  0.00     0.059 C 
ATOM     27  N   UNL     1     -10.087 -44.030  29.568  1.00  0.00    -0.312 N 
ATOM     28  C   UNL     1     -10.929 -45.897  30.894  1.00  0.00     0.105 C 
ATOM     29  C   UNL     1      -9.281 -42.883  29.148  1.00  0.00     0.130 C 
ATOM     30  C   UNL     1      -9.793 -44.937  30.553  1.00  0.00     0.227 C 
ATOM     31  O   UNL     1      -8.743 -44.924  31.190  1.00  0.00    -0.275 OA
ENDBRANCH  17  19
ENDBRANCH  16  17
ENDBRANCH   1  16
TORSDOF 6
ENDMDL
