MODEL 1
REMARK VINA RESULT:   -13.289      0.000      0.000
REMARK INTER + INTRA:         -19.969
REMARK INTER:                 -18.727
REMARK INTRA:                  -1.243
REMARK UNBOUND:                -1.243
REMARK SMILES O=C(c1ccccc1)c1ccc2c(c1)C(=O)N(CC[C@H]1CC[N@H+](Cc3ccccc3)CC1)C2=O
REMARK SMILES IDX 19 1 20 2 22 3 23 4 21 5 31 6 32 7 24 9 25 10 26 11 30 12
REMARK SMILES IDX 27 13 29 14 28 15 18 16 17 17 15 18 33 19 13 20 12 21 14 22
REMARK SMILES IDX 11 23 9 24 10 25 16 26 34 27 2 28 1 29 3 30 4 31 8 32 5 33
REMARK SMILES IDX 7 34 6 35
REMARK H PARENT 23 8
ROOT
ATOM      1  C   UNL     1     -13.938 -44.906  26.413  1.00  0.00     0.026 C 
ENDROOT
BRANCH   1   2
ATOM      2  C   UNL     1     -13.425 -45.628  27.676  1.00  0.00     0.002 C 
ATOM      3  C   UNL     1     -13.118 -45.465  30.195  1.00  0.00     0.262 C 
ATOM      4  N   UNL     1     -11.637 -45.662  30.005  1.00  0.00    -0.331 N 
ATOM      5  C   UNL     1     -13.712 -44.818  28.952  1.00  0.00     0.065 C 
ATOM      6  C   UNL     1     -11.330 -46.524  28.806  1.00  0.00     0.262 C 
ATOM      7  C   UNL     1     -11.914 -45.880  27.555  1.00  0.00     0.065 C 
ATOM      8  H   UNL     1     -11.220 -44.739  29.829  1.00  0.00     0.348 HD
BRANCH   4   9
ATOM      9  C   UNL     1     -10.985 -46.173  31.275  1.00  0.00     0.299 C 
BRANCH   9  10
ATOM     10  C   UNL     1      -9.702 -45.459  31.607  1.00  0.00     0.006 A 
ATOM     11  C   UNL     1      -9.726 -44.179  32.181  1.00  0.00     0.009 A 
ATOM     12  C   UNL     1      -8.463 -46.073  31.363  1.00  0.00     0.009 A 
ATOM     13  C   UNL     1      -8.535 -43.531  32.512  1.00  0.00     0.001 A 
ATOM     14  C   UNL     1      -7.275 -45.420  31.696  1.00  0.00     0.001 A 
ATOM     15  C   UNL     1      -7.312 -44.152  32.271  1.00  0.00     0.000 A 
ENDBRANCH   9  10
ENDBRANCH   4   9
ENDBRANCH   1   2
BRANCH   1  16
ATOM     16  C   UNL     1     -14.168 -43.400  26.609  1.00  0.00     0.129 C 
BRANCH  16  17
ATOM     17  N   UNL     1     -15.555 -43.043  26.388  1.00  0.00    -0.274 N 
ATOM     18  C   UNL     1     -16.101 -42.806  25.158  1.00  0.00     0.261 C 
ATOM     19  C   UNL     1     -16.433 -42.762  27.400  1.00  0.00     0.261 C 
ATOM     20  C   UNL     1     -17.490 -42.411  25.389  1.00  0.00     0.053 A 
ATOM     21  C   UNL     1     -17.694 -42.386  26.760  1.00  0.00     0.053 A 
ATOM     22  C   UNL     1     -18.482 -42.074  24.487  1.00  0.00     0.027 A 
ATOM     23  C   UNL     1     -18.904 -42.020  27.312  1.00  0.00     0.015 A 
ATOM     24  C   UNL     1     -19.728 -41.712  25.020  1.00  0.00     0.023 A 
ATOM     25  C   UNL     1     -19.929 -41.676  26.423  1.00  0.00     0.013 A 
ATOM     26  O   UNL     1     -15.576 -42.868  24.063  1.00  0.00    -0.269 OA
ATOM     27  O   UNL     1     -16.231 -42.764  28.600  1.00  0.00    -0.269 OA
BRANCH  24  28
ATOM     28  C   UNL     1     -20.848 -41.285  24.145  1.00  0.00     0.193 C 
ATOM     29  O   UNL     1     -21.985 -41.292  24.609  1.00  0.00    -0.289 OA
BRANCH  28  30
ATOM     30  C   UNL     1     -20.627 -40.845  22.746  1.00  0.00     0.022 A 
ATOM     31  C   UNL     1     -20.349 -39.493  22.510  1.00  0.00     0.012 A 
ATOM     32  C   UNL     1     -20.731 -41.733  21.668  1.00  0.00     0.012 A 
ATOM     33  C   UNL     1     -20.140 -39.040  21.207  1.00  0.00     0.001 A 
ATOM     34  C   UNL     1     -20.523 -41.274  20.366  1.00  0.00     0.001 A 
ATOM     35  C   UNL     1     -20.223 -39.930  20.137  1.00  0.00     0.000 A 
ENDBRANCH  28  30
ENDBRANCH  24  28
ENDBRANCH  16  17
ENDBRANCH   1  16
TORSDOF 7
ENDMDL
MODEL 2
REMARK VINA RESULT:   -12.788      1.074      1.596
REMARK INTER + INTRA:         -19.264
REMARK INTER:                 -18.000
REMARK INTRA:                  -1.264
REMARK UNBOUND:                -1.243
REMARK SMILES O=C(c1ccccc1)c1ccc2c(c1)C(=O)N(CC[C@H]1CC[N@H+](Cc3ccccc3)CC1)C2=O
REMARK SMILES IDX 19 1 20 2 22 3 23 4 21 5 31 6 32 7 24 9 25 10 26 11 30 12
REMARK SMILES IDX 27 13 29 14 28 15 18 16 17 17 15 18 33 19 13 20 12 21 14 22
REMARK SMILES IDX 11 23 9 24 10 25 16 26 34 27 2 28 1 29 3 30 4 31 8 32 5 33
REMARK SMILES IDX 7 34 6 35
REMARK H PARENT 23 8
ROOT
ATOM      1  C   UNL     1     -13.853 -44.835  26.893  1.00  0.00     0.026 C 
ENDROOT
BRANCH   1   2
ATOM      2  C   UNL     1     -12.464 -45.080  27.518  1.00  0.00     0.002 C 
ATOM      3  C   UNL     1     -11.192 -46.231  29.394  1.00  0.00     0.262 C 
ATOM      4  N   UNL     1     -10.680 -44.888  29.842  1.00  0.00    -0.331 N 
ATOM      5  C   UNL     1     -12.535 -46.062  28.698  1.00  0.00     0.065 C 
ATOM      6  C   UNL     1     -10.522 -43.928  28.690  1.00  0.00     0.262 C 
ATOM      7  C   UNL     1     -11.864 -43.746  27.992  1.00  0.00     0.065 C 
ATOM      8  H   UNL     1     -11.382 -44.484  30.478  1.00  0.00     0.348 HD
BRANCH   4   9
ATOM      9  C   UNL     1      -9.414 -45.029  30.665  1.00  0.00     0.299 C 
BRANCH   9  10
ATOM     10  C   UNL     1      -9.381 -44.114  31.858  1.00  0.00     0.006 A 
ATOM     11  C   UNL     1      -8.157 -43.708  32.413  1.00  0.00     0.009 A 
ATOM     12  C   UNL     1     -10.575 -43.638  32.423  1.00  0.00     0.009 A 
ATOM     13  C   UNL     1      -8.130 -42.838  33.503  1.00  0.00     0.001 A 
ATOM     14  C   UNL     1     -10.542 -42.769  33.514  1.00  0.00     0.001 A 
ATOM     15  C   UNL     1      -9.321 -42.367  34.052  1.00  0.00     0.000 A 
ENDBRANCH   9  10
ENDBRANCH   4   9
ENDBRANCH   1   2
BRANCH   1  16
ATOM     16  C   UNL     1     -14.003 -43.454  26.237  1.00  0.00     0.129 C 
BRANCH  16  17
ATOM     17  N   UNL     1     -15.392 -43.152  25.953  1.00  0.00    -0.274 N 
ATOM     18  C   UNL     1     -15.931 -43.126  24.697  1.00  0.00     0.261 C 
ATOM     19  C   UNL     1     -16.279 -42.716  26.900  1.00  0.00     0.261 C 
ATOM     20  C   UNL     1     -17.325 -42.711  24.852  1.00  0.00     0.053 A 
ATOM     21  C   UNL     1     -17.538 -42.462  26.199  1.00  0.00     0.053 A 
ATOM     22  C   UNL     1     -18.313 -42.536  23.902  1.00  0.00     0.027 A 
ATOM     23  C   UNL     1     -18.755 -42.022  26.677  1.00  0.00     0.015 A 
ATOM     24  C   UNL     1     -19.566 -42.103  24.361  1.00  0.00     0.023 A 
ATOM     25  C   UNL     1     -19.777 -41.838  25.738  1.00  0.00     0.013 A 
ATOM     26  O   UNL     1     -15.399 -43.363  23.631  1.00  0.00    -0.269 OA
ATOM     27  O   UNL     1     -16.085 -42.518  28.084  1.00  0.00    -0.269 OA
BRANCH  24  28
ATOM     28  C   UNL     1     -20.684 -41.837  23.422  1.00  0.00     0.193 C 
ATOM     29  O   UNL     1     -21.771 -42.361  23.646  1.00  0.00    -0.289 OA
BRANCH  28  30
ATOM     30  C   UNL     1     -20.523 -40.953  22.241  1.00  0.00     0.022 A 
ATOM     31  C   UNL     1     -20.371 -39.578  22.456  1.00  0.00     0.012 A 
ATOM     32  C   UNL     1     -20.562 -41.454  20.935  1.00  0.00     0.012 A 
ATOM     33  C   UNL     1     -20.223 -38.713  21.371  1.00  0.00     0.001 A 
ATOM     34  C   UNL     1     -20.414 -40.584  19.852  1.00  0.00     0.001 A 
ATOM     35  C   UNL     1     -20.239 -39.217  20.071  1.00  0.00     0.000 A 
ENDBRANCH  28  30
ENDBRANCH  24  28
ENDBRANCH  16  17
ENDBRANCH   1  16
TORSDOF 7
ENDMDL
MODEL 3
REMARK VINA RESULT:   -12.638      1.656      2.735
REMARK INTER + INTRA:         -19.052
REMARK INTER:                 -17.993
REMARK INTRA:                  -1.059
REMARK UNBOUND:                -1.243
REMARK SMILES O=C(c1ccccc1)c1ccc2c(c1)C(=O)N(CC[C@H]1CC[N@H+](Cc3ccccc3)CC1)C2=O
REMARK SMILES IDX 19 1 20 2 22 3 23 4 21 5 31 6 32 7 24 9 25 10 26 11 30 12
REMARK SMILES IDX 27 13 29 14 28 15 18 16 17 17 15 18 33 19 13 20 12 21 14 22
REMARK SMILES IDX 11 23 9 24 10 25 16 26 34 27 2 28 1 29 3 30 4 31 8 32 5 33
REMARK SMILES IDX 7 34 6 35
REMARK H PARENT 23 8
ROOT
ATOM      1  C   UNL     1     -13.771 -45.115  26.505  1.00  0.00     0.026 C 
ENDROOT
BRANCH   1   2
ATOM      2  C   UNL     1     -13.220 -45.801  27.772  1.00  0.00     0.002 C 
ATOM      3  C   UNL     1     -12.964 -45.630  30.296  1.00  0.00     0.262 C 
ATOM      4  N   UNL     1     -11.470 -45.706  30.128  1.00  0.00    -0.331 N 
ATOM      5  C   UNL     1     -13.591 -45.026  29.047  1.00  0.00     0.065 C 
ATOM      6  C   UNL     1     -11.076 -46.532  28.928  1.00  0.00     0.262 C 
ATOM      7  C   UNL     1     -11.692 -45.929  27.672  1.00  0.00     0.065 C 
ATOM      8  H   UNL     1     -11.126 -44.750  29.963  1.00  0.00     0.348 HD
BRANCH   4   9
ATOM      9  C   UNL     1     -10.796 -46.170  31.404  1.00  0.00     0.299 C 
BRANCH   9  10
ATOM     10  C   UNL     1      -9.535 -45.411  31.715  1.00  0.00     0.006 A 
ATOM     11  C   UNL     1      -8.279 -45.970  31.435  1.00  0.00     0.009 A 
ATOM     12  C   UNL     1      -9.599 -44.125  32.274  1.00  0.00     0.009 A 
ATOM     13  C   UNL     1      -7.112 -45.252  31.700  1.00  0.00     0.001 A 
ATOM     14  C   UNL     1      -8.428 -43.412  32.537  1.00  0.00     0.001 A 
ATOM     15  C   UNL     1      -7.187 -43.974  32.248  1.00  0.00     0.000 A 
ENDBRANCH   9  10
ENDBRANCH   4   9
ENDBRANCH   1   2
BRANCH   1  16
ATOM     16  C   UNL     1     -13.848 -43.584  26.612  1.00  0.00     0.129 C 
BRANCH  16  17
ATOM     17  N   UNL     1     -15.167 -43.095  26.267  1.00  0.00    -0.274 N 
ATOM     18  C   UNL     1     -16.145 -42.813  27.180  1.00  0.00     0.261 C 
ATOM     19  C   UNL     1     -15.627 -43.003  24.981  1.00  0.00     0.261 C 
ATOM     20  C   UNL     1     -17.328 -42.422  26.415  1.00  0.00     0.053 A 
ATOM     21  C   UNL     1     -17.011 -42.536  25.070  1.00  0.00     0.053 A 
ATOM     22  C   UNL     1     -18.580 -42.029  26.849  1.00  0.00     0.027 A 
ATOM     23  C   UNL     1     -17.930 -42.265  24.078  1.00  0.00     0.015 A 
ATOM     24  C   UNL     1     -19.530 -41.733  25.861  1.00  0.00     0.023 A 
ATOM     25  C   UNL     1     -19.206 -41.863  24.486  1.00  0.00     0.013 A 
ATOM     26  O   UNL     1     -16.102 -42.882  28.393  1.00  0.00    -0.269 OA
ATOM     27  O   UNL     1     -15.050 -43.289  23.949  1.00  0.00    -0.269 OA
BRANCH  24  28
ATOM     28  C   UNL     1     -20.920 -41.349  26.214  1.00  0.00     0.193 C 
ATOM     29  O   UNL     1     -21.115 -40.791  27.291  1.00  0.00    -0.289 OA
BRANCH  28  30
ATOM     30  C   UNL     1     -22.062 -41.610  25.303  1.00  0.00     0.022 A 
ATOM     31  C   UNL     1     -22.879 -42.716  25.563  1.00  0.00     0.012 A 
ATOM     32  C   UNL     1     -22.308 -40.808  24.182  1.00  0.00     0.012 A 
ATOM     33  C   UNL     1     -23.960 -42.998  24.725  1.00  0.00     0.001 A 
ATOM     34  C   UNL     1     -23.390 -41.096  23.346  1.00  0.00     0.001 A 
ATOM     35  C   UNL     1     -24.216 -42.185  23.621  1.00  0.00     0.000 A 
ENDBRANCH  28  30
ENDBRANCH  24  28
ENDBRANCH  16  17
ENDBRANCH   1  16
TORSDOF 7
ENDMDL
MODEL 4
REMARK VINA RESULT:   -12.197      1.949      3.762
REMARK INTER + INTRA:         -18.431
REMARK INTER:                 -17.348
REMARK INTRA:                  -1.083
REMARK UNBOUND:                -1.243
REMARK SMILES O=C(c1ccccc1)c1ccc2c(c1)C(=O)N(CC[C@H]1CC[N@H+](Cc3ccccc3)CC1)C2=O
REMARK SMILES IDX 19 1 20 2 22 3 23 4 21 5 31 6 32 7 24 9 25 10 26 11 30 12
REMARK SMILES IDX 27 13 29 14 28 15 18 16 17 17 15 18 33 19 13 20 12 21 14 22
REMARK SMILES IDX 11 23 9 24 10 25 16 26 34 27 2 28 1 29 3 30 4 31 8 32 5 33
REMARK SMILES IDX 7 34 6 35
REMARK H PARENT 23 8
ROOT
ATOM      1  C   UNL     1     -13.767 -44.783  26.996  1.00  0.00     0.026 C 
ENDROOT
BRANCH   1   2
ATOM      2  C   UNL     1     -12.388 -45.087  27.616  1.00  0.00     0.002 C 
ATOM      3  C   UNL     1     -11.157 -46.305  29.477  1.00  0.00     0.262 C 
ATOM      4  N   UNL     1     -10.595 -44.987  29.940  1.00  0.00    -0.331 N 
ATOM      5  C   UNL     1     -12.494 -46.079  28.786  1.00  0.00     0.065 C 
ATOM      6  C   UNL     1     -10.403 -44.022  28.798  1.00  0.00     0.262 C 
ATOM      7  C   UNL     1     -11.738 -43.782  28.104  1.00  0.00     0.065 C 
ATOM      8  H   UNL     1     -11.280 -44.565  30.581  1.00  0.00     0.348 HD
BRANCH   4   9
ATOM      9  C   UNL     1      -9.334 -45.185  30.759  1.00  0.00     0.299 C 
BRANCH   9  10
ATOM     10  C   UNL     1      -9.214 -44.213  31.901  1.00  0.00     0.006 A 
ATOM     11  C   UNL     1     -10.362 -43.690  32.516  1.00  0.00     0.009 A 
ATOM     12  C   UNL     1      -7.951 -43.830  32.379  1.00  0.00     0.009 A 
ATOM     13  C   UNL     1     -10.247 -42.809  33.593  1.00  0.00     0.001 A 
ATOM     14  C   UNL     1      -7.842 -42.948  33.456  1.00  0.00     0.001 A 
ATOM     15  C   UNL     1      -8.989 -42.441  34.063  1.00  0.00     0.000 A 
ENDBRANCH   9  10
ENDBRANCH   4   9
ENDBRANCH   1   2
BRANCH   1  16
ATOM     16  C   UNL     1     -13.835 -43.436  26.262  1.00  0.00     0.129 C 
BRANCH  16  17
ATOM     17  N   UNL     1     -15.204 -43.053  25.984  1.00  0.00    -0.274 N 
ATOM     18  C   UNL     1     -16.136 -42.778  26.946  1.00  0.00     0.261 C 
ATOM     19  C   UNL     1     -15.753 -43.069  24.730  1.00  0.00     0.261 C 
ATOM     20  C   UNL     1     -17.390 -42.510  26.244  1.00  0.00     0.053 A 
ATOM     21  C   UNL     1     -17.156 -42.686  24.889  1.00  0.00     0.053 A 
ATOM     22  C   UNL     1     -18.635 -42.172  26.742  1.00  0.00     0.027 A 
ATOM     23  C   UNL     1     -18.155 -42.535  23.950  1.00  0.00     0.015 A 
ATOM     24  C   UNL     1     -19.666 -41.997  25.807  1.00  0.00     0.023 A 
ATOM     25  C   UNL     1     -19.426 -42.190  24.423  1.00  0.00     0.013 A 
ATOM     26  O   UNL     1     -16.008 -42.770  28.154  1.00  0.00    -0.269 OA
ATOM     27  O   UNL     1     -15.228 -43.380  23.678  1.00  0.00    -0.269 OA
BRANCH  24  28
ATOM     28  C   UNL     1     -21.052 -41.680  26.235  1.00  0.00     0.193 C 
ATOM     29  O   UNL     1     -21.454 -40.528  26.104  1.00  0.00    -0.289 OA
BRANCH  28  30
ATOM     30  C   UNL     1     -21.954 -42.715  26.799  1.00  0.00     0.022 A 
ATOM     31  C   UNL     1     -23.238 -42.329  27.202  1.00  0.00     0.012 A 
ATOM     32  C   UNL     1     -21.537 -44.040  26.973  1.00  0.00     0.012 A 
ATOM     33  C   UNL     1     -24.113 -43.272  27.743  1.00  0.00     0.001 A 
ATOM     34  C   UNL     1     -22.417 -44.980  27.517  1.00  0.00     0.001 A 
ATOM     35  C   UNL     1     -23.704 -44.596  27.895  1.00  0.00     0.000 A 
ENDBRANCH  28  30
ENDBRANCH  24  28
ENDBRANCH  16  17
ENDBRANCH   1  16
TORSDOF 7
ENDMDL
MODEL 5
REMARK VINA RESULT:   -12.118      2.596     11.299
REMARK INTER + INTRA:         -18.320
REMARK INTER:                 -16.986
REMARK INTRA:                  -1.334
REMARK UNBOUND:                -1.243
REMARK SMILES O=C(c1ccccc1)c1ccc2c(c1)C(=O)N(CC[C@H]1CC[N@H+](Cc3ccccc3)CC1)C2=O
REMARK SMILES IDX 19 1 20 2 22 3 23 4 21 5 31 6 32 7 24 9 25 10 26 11 30 12
REMARK SMILES IDX 27 13 29 14 28 15 18 16 17 17 15 18 33 19 13 20 12 21 14 22
REMARK SMILES IDX 11 23 9 24 10 25 16 26 34 27 2 28 1 29 3 30 4 31 8 32 5 33
REMARK SMILES IDX 7 34 6 35
REMARK H PARENT 23 8
ROOT
ATOM      1  C   UNL     1     -17.435 -42.932  24.384  1.00  0.00     0.026 C 
ENDROOT
BRANCH   1   2
ATOM      2  C   UNL     1     -18.540 -41.921  24.753  1.00  0.00     0.002 C 
ATOM      3  C   UNL     1     -20.270 -41.260  26.494  1.00  0.00     0.262 C 
ATOM      4  N   UNL     1     -21.345 -41.399  25.449  1.00  0.00    -0.331 N 
ATOM      5  C   UNL     1     -19.106 -42.181  26.159  1.00  0.00     0.065 C 
ATOM      6  C   UNL     1     -20.836 -41.069  24.068  1.00  0.00     0.262 C 
ATOM      7  C   UNL     1     -19.675 -41.991  23.719  1.00  0.00     0.065 C 
ATOM      8  H   UNL     1     -21.640 -42.385  25.434  1.00  0.00     0.348 HD
BRANCH   4   9
ATOM      9  C   UNL     1     -22.581 -40.605  25.823  1.00  0.00     0.299 C 
BRANCH   9  10
ATOM     10  C   UNL     1     -23.329 -41.193  26.988  1.00  0.00     0.006 A 
ATOM     11  C   UNL     1     -23.825 -40.367  28.008  1.00  0.00     0.009 A 
ATOM     12  C   UNL     1     -23.558 -42.576  27.061  1.00  0.00     0.009 A 
ATOM     13  C   UNL     1     -24.543 -40.913  29.073  1.00  0.00     0.001 A 
ATOM     14  C   UNL     1     -24.275 -43.117  28.129  1.00  0.00     0.001 A 
ATOM     15  C   UNL     1     -24.769 -42.286  29.132  1.00  0.00     0.000 A 
ENDBRANCH   9  10
ENDBRANCH   4   9
ENDBRANCH   1   2
BRANCH   1  16
ATOM     16  C   UNL     1     -16.015 -42.446  24.709  1.00  0.00     0.129 C 
BRANCH  16  17
ATOM     17  N   UNL     1     -15.349 -43.337  25.637  1.00  0.00    -0.274 N 
ATOM     18  C   UNL     1     -15.390 -43.200  26.997  1.00  0.00     0.261 C 
ATOM     19  C   UNL     1     -14.487 -44.327  25.248  1.00  0.00     0.261 C 
ATOM     20  C   UNL     1     -14.535 -44.252  27.546  1.00  0.00     0.053 A 
ATOM     21  C   UNL     1     -13.985 -44.942  26.477  1.00  0.00     0.053 A 
ATOM     22  C   UNL     1     -14.238 -44.564  28.860  1.00  0.00     0.027 A 
ATOM     23  C   UNL     1     -13.103 -45.987  26.659  1.00  0.00     0.015 A 
ATOM     24  C   UNL     1     -13.355 -45.632  29.074  1.00  0.00     0.023 A 
ATOM     25  C   UNL     1     -12.785 -46.328  27.978  1.00  0.00     0.013 A 
ATOM     26  O   UNL     1     -15.977 -42.372  27.665  1.00  0.00    -0.269 OA
ATOM     27  O   UNL     1     -14.143 -44.631  24.122  1.00  0.00    -0.269 OA
BRANCH  24  28
ATOM     28  C   UNL     1     -12.930 -46.021  30.442  1.00  0.00     0.193 C 
ATOM     29  O   UNL     1     -13.668 -46.754  31.096  1.00  0.00    -0.289 OA
BRANCH  28  30
ATOM     30  C   UNL     1     -11.646 -45.561  31.025  1.00  0.00     0.022 A 
ATOM     31  C   UNL     1     -11.611 -44.309  31.652  1.00  0.00     0.012 A 
ATOM     32  C   UNL     1     -10.475 -46.323  30.924  1.00  0.00     0.012 A 
ATOM     33  C   UNL     1     -10.420 -43.839  32.206  1.00  0.00     0.001 A 
ATOM     34  C   UNL     1      -9.286 -45.846  31.481  1.00  0.00     0.001 A 
ATOM     35  C   UNL     1      -9.261 -44.609  32.125  1.00  0.00     0.000 A 
ENDBRANCH  28  30
ENDBRANCH  24  28
ENDBRANCH  16  17
ENDBRANCH   1  16
TORSDOF 7
ENDMDL
MODEL 6
REMARK VINA RESULT:   -12.076      1.856      2.946
REMARK INTER + INTRA:         -18.260
REMARK INTER:                 -17.959
REMARK INTRA:                  -0.301
REMARK UNBOUND:                -1.243
REMARK SMILES O=C(c1ccccc1)c1ccc2c(c1)C(=O)N(CC[C@H]1CC[N@H+](Cc3ccccc3)CC1)C2=O
REMARK SMILES IDX 19 1 20 2 22 3 23 4 21 5 31 6 32 7 24 9 25 10 26 11 30 12
REMARK SMILES IDX 27 13 29 14 28 15 18 16 17 17 15 18 33 19 13 20 12 21 14 22
REMARK SMILES IDX 11 23 9 24 10 25 16 26 34 27 2 28 1 29 3 30 4 31 8 32 5 33
REMARK SMILES IDX 7 34 6 35
REMARK H PARENT 23 8
ROOT
ATOM      1  C   UNL     1     -13.762 -44.605  26.664  1.00  0.00     0.026 C 
ENDROOT
BRANCH   1   2
ATOM      2  C   UNL     1     -12.680 -44.779  27.750  1.00  0.00     0.002 C 
ATOM      3  C   UNL     1     -11.040 -46.398  28.822  1.00  0.00     0.262 C 
ATOM      4  N   UNL     1     -11.721 -46.178  30.147  1.00  0.00    -0.331 N 
ATOM      5  C   UNL     1     -12.032 -46.172  27.691  1.00  0.00     0.065 C 
ATOM      6  C   UNL     1     -12.296 -44.789  30.264  1.00  0.00     0.262 C 
ATOM      7  C   UNL     1     -13.297 -44.556  29.140  1.00  0.00     0.065 C 
ATOM      8  H   UNL     1     -12.510 -46.837  30.204  1.00  0.00     0.348 HD
BRANCH   4   9
ATOM      9  C   UNL     1     -10.805 -46.532  31.301  1.00  0.00     0.299 C 
BRANCH   9  10
ATOM     10  C   UNL     1      -9.747 -45.493  31.555  1.00  0.00     0.006 A 
ATOM     11  C   UNL     1     -10.068 -44.292  32.204  1.00  0.00     0.009 A 
ATOM     12  C   UNL     1      -8.419 -45.721  31.161  1.00  0.00     0.009 A 
ATOM     13  C   UNL     1      -9.078 -43.342  32.462  1.00  0.00     0.001 A 
ATOM     14  C   UNL     1      -7.433 -44.767  31.420  1.00  0.00     0.001 A 
ATOM     15  C   UNL     1      -7.763 -43.580  32.071  1.00  0.00     0.000 A 
ENDBRANCH   9  10
ENDBRANCH   4   9
ENDBRANCH   1   2
BRANCH   1  16
ATOM     16  C   UNL     1     -13.981 -43.147  26.235  1.00  0.00     0.129 C 
BRANCH  16  17
ATOM     17  N   UNL     1     -15.389 -42.854  26.056  1.00  0.00    -0.274 N 
ATOM     18  C   UNL     1     -16.290 -42.755  27.080  1.00  0.00     0.261 C 
ATOM     19  C   UNL     1     -15.998 -42.789  24.831  1.00  0.00     0.261 C 
ATOM     20  C   UNL     1     -17.595 -42.524  26.463  1.00  0.00     0.053 A 
ATOM     21  C   UNL     1     -17.417 -42.543  25.088  1.00  0.00     0.053 A 
ATOM     22  C   UNL     1     -18.836 -42.343  27.045  1.00  0.00     0.027 A 
ATOM     23  C   UNL     1     -18.470 -42.382  24.213  1.00  0.00     0.015 A 
ATOM     24  C   UNL     1     -19.924 -42.161  26.178  1.00  0.00     0.023 A 
ATOM     25  C   UNL     1     -19.739 -42.193  24.773  1.00  0.00     0.013 A 
ATOM     26  O   UNL     1     -16.103 -42.859  28.276  1.00  0.00    -0.269 OA
ATOM     27  O   UNL     1     -15.503 -42.948  23.731  1.00  0.00    -0.269 OA
BRANCH  24  28
ATOM     28  C   UNL     1     -21.307 -42.007  26.695  1.00  0.00     0.193 C 
ATOM     29  O   UNL     1     -21.698 -42.788  27.557  1.00  0.00    -0.289 OA
BRANCH  28  30
ATOM     30  C   UNL     1     -22.211 -40.935  26.208  1.00  0.00     0.022 A 
ATOM     31  C   UNL     1     -22.830 -40.108  27.153  1.00  0.00     0.012 A 
ATOM     32  C   UNL     1     -22.485 -40.765  24.846  1.00  0.00     0.012 A 
ATOM     33  C   UNL     1     -23.692 -39.093  26.734  1.00  0.00     0.001 A 
ATOM     34  C   UNL     1     -23.349 -39.747  24.432  1.00  0.00     0.001 A 
ATOM     35  C   UNL     1     -23.946 -38.911  25.376  1.00  0.00     0.000 A 
ENDBRANCH  28  30
ENDBRANCH  24  28
ENDBRANCH  16  17
ENDBRANCH   1  16
TORSDOF 7
ENDMDL
MODEL 7
REMARK VINA RESULT:   -12.009      2.072     12.248
REMARK INTER + INTRA:         -18.166
REMARK INTER:                 -17.017
REMARK INTRA:                  -1.149
REMARK UNBOUND:                -1.243
REMARK SMILES O=C(c1ccccc1)c1ccc2c(c1)C(=O)N(CC[C@H]1CC[N@H+](Cc3ccccc3)CC1)C2=O
REMARK SMILES IDX 19 1 20 2 22 3 23 4 21 5 31 6 32 7 24 9 25 10 26 11 30 12
REMARK SMILES IDX 27 13 29 14 28 15 18 16 17 17 15 18 33 19 13 20 12 21 14 22
REMARK SMILES IDX 11 23 9 24 10 25 16 26 34 27 2 28 1 29 3 30 4 31 8 32 5 33
REMARK SMILES IDX 7 34 6 35
REMARK H PARENT 23 8
ROOT
ATOM      1  C   UNL     1     -17.583 -42.903  24.673  1.00  0.00     0.026 C 
ENDROOT
BRANCH   1   2
ATOM      2  C   UNL     1     -18.551 -41.738  24.384  1.00  0.00     0.002 C 
ATOM      3  C   UNL     1     -20.932 -40.886  24.643  1.00  0.00     0.262 C 
ATOM      4  N   UNL     1     -21.033 -40.775  23.146  1.00  0.00    -0.331 N 
ATOM      5  C   UNL     1     -19.934 -41.975  25.011  1.00  0.00     0.065 C 
ATOM      6  C   UNL     1     -19.702 -40.459  22.511  1.00  0.00     0.262 C 
ATOM      7  C   UNL     1     -18.698 -41.548  22.865  1.00  0.00     0.065 C 
ATOM      8  H   UNL     1     -21.331 -41.691  22.784  1.00  0.00     0.348 HD
BRANCH   4   9
ATOM      9  C   UNL     1     -22.121 -39.800  22.740  1.00  0.00     0.299 C 
BRANCH   9  10
ATOM     10  C   UNL     1     -22.351 -39.758  21.253  1.00  0.00     0.006 A 
ATOM     11  C   UNL     1     -22.228 -38.552  20.547  1.00  0.00     0.009 A 
ATOM     12  C   UNL     1     -22.673 -40.929  20.550  1.00  0.00     0.009 A 
ATOM     13  C   UNL     1     -22.415 -38.521  19.164  1.00  0.00     0.001 A 
ATOM     14  C   UNL     1     -22.860 -40.893  19.167  1.00  0.00     0.001 A 
ATOM     15  C   UNL     1     -22.729 -39.691  18.475  1.00  0.00     0.000 A 
ENDBRANCH   9  10
ENDBRANCH   4   9
ENDBRANCH   1   2
BRANCH   1  16
ATOM     16  C   UNL     1     -16.125 -42.464  24.876  1.00  0.00     0.129 C 
BRANCH  16  17
ATOM     17  N   UNL     1     -15.427 -43.349  25.787  1.00  0.00    -0.274 N 
ATOM     18  C   UNL     1     -15.445 -43.220  27.148  1.00  0.00     0.261 C 
ATOM     19  C   UNL     1     -14.556 -44.321  25.377  1.00  0.00     0.261 C 
ATOM     20  C   UNL     1     -14.563 -44.260  27.675  1.00  0.00     0.053 A 
ATOM     21  C   UNL     1     -14.021 -44.935  26.592  1.00  0.00     0.053 A 
ATOM     22  C   UNL     1     -14.237 -44.574  28.981  1.00  0.00     0.027 A 
ATOM     23  C   UNL     1     -13.118 -45.965  26.752  1.00  0.00     0.015 A 
ATOM     24  C   UNL     1     -13.332 -45.628  29.174  1.00  0.00     0.023 A 
ATOM     25  C   UNL     1     -12.770 -46.308  28.064  1.00  0.00     0.013 A 
ATOM     26  O   UNL     1     -16.034 -42.406  27.831  1.00  0.00    -0.269 OA
ATOM     27  O   UNL     1     -14.227 -44.614  24.242  1.00  0.00    -0.269 OA
BRANCH  24  28
ATOM     28  C   UNL     1     -12.876 -46.017  30.532  1.00  0.00     0.193 C 
ATOM     29  O   UNL     1     -13.606 -46.735  31.209  1.00  0.00    -0.289 OA
BRANCH  28  30
ATOM     30  C   UNL     1     -11.569 -45.574  31.077  1.00  0.00     0.022 A 
ATOM     31  C   UNL     1     -11.502 -44.327  31.711  1.00  0.00     0.012 A 
ATOM     32  C   UNL     1     -10.410 -46.346  30.933  1.00  0.00     0.012 A 
ATOM     33  C   UNL     1     -10.290 -43.872  32.231  1.00  0.00     0.001 A 
ATOM     34  C   UNL     1      -9.199 -45.885  31.455  1.00  0.00     0.001 A 
ATOM     35  C   UNL     1      -9.141 -44.653  32.107  1.00  0.00     0.000 A 
ENDBRANCH  28  30
ENDBRANCH  24  28
ENDBRANCH  16  17
ENDBRANCH   1  16
TORSDOF 7
ENDMDL
MODEL 8
REMARK VINA RESULT:   -11.358      3.364     12.862
REMARK INTER + INTRA:         -17.248
REMARK INTER:                 -16.094
REMARK INTRA:                  -1.154
REMARK UNBOUND:                -1.243
REMARK SMILES O=C(c1ccccc1)c1ccc2c(c1)C(=O)N(CC[C@H]1CC[N@H+](Cc3ccccc3)CC1)C2=O
REMARK SMILES IDX 19 1 20 2 22 3 23 4 21 5 31 6 32 7 24 9 25 10 26 11 30 12
REMARK SMILES IDX 27 13 29 14 28 15 18 16 17 17 15 18 33 19 13 20 12 21 14 22
REMARK SMILES IDX 11 23 9 24 10 25 16 26 34 27 2 28 1 29 3 30 4 31 8 32 5 33
REMARK SMILES IDX 7 34 6 35
REMARK H PARENT 23 8
ROOT
ATOM      1  C   UNL     1     -21.715 -40.294  24.206  1.00  0.00     0.026 C 
ENDROOT
BRANCH   1   2
ATOM      2  C   UNL     1     -21.646 -40.084  22.679  1.00  0.00     0.002 C 
ATOM      3  C   UNL     1     -20.412 -38.923  20.784  1.00  0.00     0.262 C 
ATOM      4  N   UNL     1     -21.699 -38.253  20.385  1.00  0.00    -0.331 N 
ATOM      5  C   UNL     1     -20.434 -39.229  22.275  1.00  0.00     0.065 C 
ATOM      6  C   UNL     1     -22.902 -39.107  20.696  1.00  0.00     0.262 C 
ATOM      7  C   UNL     1     -22.938 -39.412  22.188  1.00  0.00     0.065 C 
ATOM      8  H   UNL     1     -21.788 -37.392  20.942  1.00  0.00     0.348 HD
BRANCH   4   9
ATOM      9  C   UNL     1     -21.658 -37.803  18.937  1.00  0.00     0.299 C 
BRANCH   9  10
ATOM     10  C   UNL     1     -22.882 -37.032  18.524  1.00  0.00     0.006 A 
ATOM     11  C   UNL     1     -23.475 -36.111  19.402  1.00  0.00     0.009 A 
ATOM     12  C   UNL     1     -23.438 -37.211  17.248  1.00  0.00     0.009 A 
ATOM     13  C   UNL     1     -24.595 -35.378  19.005  1.00  0.00     0.001 A 
ATOM     14  C   UNL     1     -24.558 -36.476  16.857  1.00  0.00     0.001 A 
ATOM     15  C   UNL     1     -25.134 -35.559  17.733  1.00  0.00     0.000 A 
ENDBRANCH   9  10
ENDBRANCH   4   9
ENDBRANCH   1   2
BRANCH   1  16
ATOM     16  C   UNL     1     -21.474 -41.746  24.645  1.00  0.00     0.129 C 
BRANCH  16  17
ATOM     17  N   UNL     1     -20.103 -41.950  25.069  1.00  0.00    -0.274 N 
ATOM     18  C   UNL     1     -19.075 -42.260  24.222  1.00  0.00     0.261 C 
ATOM     19  C   UNL     1     -19.717 -41.999  26.381  1.00  0.00     0.261 C 
ATOM     20  C   UNL     1     -17.891 -42.449  25.059  1.00  0.00     0.053 A 
ATOM     21  C   UNL     1     -18.283 -42.288  26.379  1.00  0.00     0.053 A 
ATOM     22  C   UNL     1     -16.592 -42.764  24.707  1.00  0.00     0.027 A 
ATOM     23  C   UNL     1     -17.398 -42.433  27.427  1.00  0.00     0.015 A 
ATOM     24  C   UNL     1     -15.667 -42.902  25.752  1.00  0.00     0.023 A 
ATOM     25  C   UNL     1     -16.074 -42.749  27.101  1.00  0.00     0.013 A 
ATOM     26  O   UNL     1     -19.092 -42.393  23.014  1.00  0.00    -0.269 OA
ATOM     27  O   UNL     1     -20.406 -41.881  27.377  1.00  0.00    -0.269 OA
BRANCH  24  28
ATOM     28  C   UNL     1     -14.257 -43.286  25.490  1.00  0.00     0.193 C 
ATOM     29  O   UNL     1     -13.785 -43.053  24.381  1.00  0.00    -0.289 OA
BRANCH  28  30
ATOM     30  C   UNL     1     -13.412 -43.925  26.529  1.00  0.00     0.022 A 
ATOM     31  C   UNL     1     -13.626 -45.278  26.820  1.00  0.00     0.012 A 
ATOM     32  C   UNL     1     -12.449 -43.202  27.244  1.00  0.00     0.012 A 
ATOM     33  C   UNL     1     -12.857 -45.913  27.796  1.00  0.00     0.001 A 
ATOM     34  C   UNL     1     -11.682 -43.843  28.220  1.00  0.00     0.001 A 
ATOM     35  C   UNL     1     -11.883 -45.197  28.491  1.00  0.00     0.000 A 
ENDBRANCH  28  30
ENDBRANCH  24  28
ENDBRANCH  16  17
ENDBRANCH   1  16
TORSDOF 7
ENDMDL
MODEL 9
REMARK VINA RESULT:   -11.231      1.849      2.759
REMARK INTER + INTRA:         -17.070
REMARK INTER:                 -17.748
REMARK INTRA:                   0.678
REMARK UNBOUND:                -1.243
REMARK SMILES O=C(c1ccccc1)c1ccc2c(c1)C(=O)N(CC[C@H]1CC[N@H+](Cc3ccccc3)CC1)C2=O
REMARK SMILES IDX 19 1 20 2 22 3 23 4 21 5 31 6 32 7 24 9 25 10 26 11 30 12
REMARK SMILES IDX 27 13 29 14 28 15 18 16 17 17 15 18 33 19 13 20 12 21 14 22
REMARK SMILES IDX 11 23 9 24 10 25 16 26 34 27 2 28 1 29 3 30 4 31 8 32 5 33
REMARK SMILES IDX 7 34 6 35
REMARK H PARENT 23 8
ROOT
ATOM      1  C   UNL     1     -13.621 -42.948  26.555  1.00  0.00     0.026 C 
ENDROOT
BRANCH   1   2
ATOM      2  C   UNL     1     -12.721 -44.019  27.205  1.00  0.00     0.002 C 
ATOM      3  C   UNL     1     -12.622 -45.922  28.887  1.00  0.00     0.262 C 
ATOM      4  N   UNL     1     -11.541 -45.182  29.629  1.00  0.00    -0.331 N 
ATOM      5  C   UNL     1     -13.514 -44.930  28.156  1.00  0.00     0.065 C 
ATOM      6  C   UNL     1     -10.694 -44.343  28.706  1.00  0.00     0.262 C 
ATOM      7  C   UNL     1     -11.577 -43.340  27.975  1.00  0.00     0.065 C 
ATOM      8  H   UNL     1     -12.000 -44.538  30.287  1.00  0.00     0.348 HD
BRANCH   4   9
ATOM      9  C   UNL     1     -10.718 -46.125  30.484  1.00  0.00     0.299 C 
BRANCH   9  10
ATOM     10  C   UNL     1      -9.549 -45.450  31.149  1.00  0.00     0.006 A 
ATOM     11  C   UNL     1      -9.729 -44.259  31.870  1.00  0.00     0.009 A 
ATOM     12  C   UNL     1      -8.265 -46.013  31.073  1.00  0.00     0.009 A 
ATOM     13  C   UNL     1      -8.647 -43.650  32.508  1.00  0.00     0.001 A 
ATOM     14  C   UNL     1      -7.187 -45.399  31.713  1.00  0.00     0.001 A 
ATOM     15  C   UNL     1      -7.379 -44.220  32.431  1.00  0.00     0.000 A 
ENDBRANCH   9  10
ENDBRANCH   4   9
ENDBRANCH   1   2
BRANCH   1  16
ATOM     16  C   UNL     1     -14.483 -43.479  25.400  1.00  0.00     0.129 C 
BRANCH  16  17
ATOM     17  N   UNL     1     -15.871 -43.093  25.555  1.00  0.00    -0.274 N 
ATOM     18  C   UNL     1     -16.725 -42.861  24.513  1.00  0.00     0.261 C 
ATOM     19  C   UNL     1     -16.438 -42.777  26.760  1.00  0.00     0.261 C 
ATOM     20  C   UNL     1     -17.992 -42.430  25.102  1.00  0.00     0.053 A 
ATOM     21  C   UNL     1     -17.817 -42.381  26.477  1.00  0.00     0.053 A 
ATOM     22  C   UNL     1     -19.184 -42.083  24.495  1.00  0.00     0.027 A 
ATOM     23  C   UNL     1     -18.826 -41.979  27.327  1.00  0.00     0.015 A 
ATOM     24  C   UNL     1     -20.233 -41.685  25.338  1.00  0.00     0.023 A 
ATOM     25  C   UNL     1     -20.047 -41.624  26.742  1.00  0.00     0.013 A 
ATOM     26  O   UNL     1     -16.517 -42.951  23.319  1.00  0.00    -0.269 OA
ATOM     27  O   UNL     1     -15.919 -42.767  27.861  1.00  0.00    -0.269 OA
BRANCH  24  28
ATOM     28  C   UNL     1     -21.540 -41.244  24.790  1.00  0.00     0.193 C 
ATOM     29  O   UNL     1     -21.834 -41.575  23.644  1.00  0.00    -0.289 OA
BRANCH  28  30
ATOM     30  C   UNL     1     -22.493 -40.434  25.589  1.00  0.00     0.022 A 
ATOM     31  C   UNL     1     -23.374 -39.584  24.910  1.00  0.00     0.012 A 
ATOM     32  C   UNL     1     -22.497 -40.470  26.988  1.00  0.00     0.012 A 
ATOM     33  C   UNL     1     -24.281 -38.802  25.627  1.00  0.00     0.001 A 
ATOM     34  C   UNL     1     -23.406 -39.684  27.701  1.00  0.00     0.001 A 
ATOM     35  C   UNL     1     -24.299 -38.856  27.020  1.00  0.00     0.000 A 
ENDBRANCH  28  30
ENDBRANCH  24  28
ENDBRANCH  16  17
ENDBRANCH   1  16
TORSDOF 7
ENDMDL
