MODEL 1
REMARK VINA RESULT:   -10.185      0.000      0.000
REMARK INTER + INTRA:         -16.519
REMARK INTER:                 -15.544
REMARK INTRA:                  -0.974
REMARK UNBOUND:                -0.974
REMARK SMILES COc1ccc([C@@H](C)NS(=O)(=O)NC(=O)OCc2ccccc2)cc1OC
REMARK SMILES IDX 9 1 7 3 8 4 6 5 3 6 4 7 25 8 5 9 24 10 2 11 1 12 26 13 27 14
REMARK SMILES IDX 10 15 11 16 12 17 13 18 14 19 15 21 16 22 17 23 18 24 19 25
REMARK SMILES IDX 23 26 20 27 22 28 21 29
REMARK H PARENT 9 2 13 20
ROOT
ATOM      1  N   UNL     1     -12.972 -44.560  31.717  1.00  0.00    -0.190 NA
ATOM      2  H   UNL     1     -13.382 -43.974  30.986  1.00  0.00     0.143 HD
ENDROOT
BRANCH   1   3
ATOM      3  C   UNL     1     -11.762 -43.939  32.302  1.00  0.00     0.098 C 
ATOM      4  C   UNL     1     -12.211 -42.736  33.135  1.00  0.00     0.031 C 
BRANCH   3   5
ATOM      5  C   UNL     1     -10.765 -43.589  31.210  1.00  0.00    -0.026 A 
ATOM      6  C   UNL     1      -8.943 -42.805  29.178  1.00  0.00     0.160 A 
ATOM      7  C   UNL     1     -10.304 -42.499  29.080  1.00  0.00     0.051 A 
ATOM      8  C   UNL     1      -8.498 -43.528  30.298  1.00  0.00     0.161 A 
ATOM      9  C   UNL     1     -11.202 -42.884  30.082  1.00  0.00     0.009 A 
ATOM     10  C   UNL     1      -9.400 -43.886  31.312  1.00  0.00     0.055 A 
BRANCH   6  11
ATOM     11  O   UNL     1      -8.008 -42.416  28.257  1.00  0.00    -0.493 OA
ATOM     12  C   UNL     1      -8.454 -42.126  26.939  1.00  0.00     0.278 C 
ENDBRANCH   6  11
BRANCH   8  13
ATOM     13  O   UNL     1      -7.203 -43.897  30.567  1.00  0.00    -0.493 OA
ATOM     14  C   UNL     1      -7.037 -45.187  31.147  1.00  0.00     0.278 C 
ENDBRANCH   8  13
ENDBRANCH   3   5
ENDBRANCH   1   3
BRANCH   1  15
ATOM     15  S   UNL     1     -12.833 -46.117  31.133  1.00  0.00     0.304 S 
ATOM     16  O   UNL     1     -13.937 -46.904  31.614  1.00  0.00    -0.189 OA
ATOM     17  O   UNL     1     -11.466 -46.503  31.393  1.00  0.00    -0.189 OA
BRANCH  15  18
ATOM     18  N   UNL     1     -12.927 -45.851  29.526  1.00  0.00    -0.205 N 
ATOM     19  C   UNL     1     -13.836 -45.053  28.859  1.00  0.00     0.422 C 
ATOM     20  H   UNL     1     -12.322 -46.443  28.973  1.00  0.00     0.188 HD
ATOM     21  O   UNL     1     -14.621 -44.291  29.400  1.00  0.00    -0.223 OA
BRANCH  19  22
ATOM     22  O   UNL     1     -13.703 -45.207  27.519  1.00  0.00    -0.444 OA
BRANCH  22  23
ATOM     23  C   UNL     1     -13.396 -44.016  26.786  1.00  0.00     0.270 C 
BRANCH  23  24
ATOM     24  C   UNL     1     -14.577 -43.640  25.930  1.00  0.00    -0.011 A 
ATOM     25  C   UNL     1     -14.592 -43.953  24.564  1.00  0.00     0.007 A 
ATOM     26  C   UNL     1     -15.656 -42.933  26.478  1.00  0.00     0.007 A 
ATOM     27  C   UNL     1     -15.676 -43.582  23.766  1.00  0.00     0.000 A 
ATOM     28  C   UNL     1     -16.739 -42.563  25.678  1.00  0.00     0.000 A 
ATOM     29  C   UNL     1     -16.749 -42.891  24.323  1.00  0.00     0.000 A 
ENDBRANCH  23  24
ENDBRANCH  22  23
ENDBRANCH  19  22
ENDBRANCH  15  18
ENDBRANCH   1  15
TORSDOF 9
ENDMDL
MODEL 2
REMARK VINA RESULT:   -10.080      1.898      2.581
REMARK INTER + INTRA:         -16.357
REMARK INTER:                 -15.012
REMARK INTRA:                  -1.345
REMARK UNBOUND:                -0.974
REMARK SMILES COc1ccc([C@@H](C)NS(=O)(=O)NC(=O)OCc2ccccc2)cc1OC
REMARK SMILES IDX 9 1 7 3 8 4 6 5 3 6 4 7 25 8 5 9 24 10 2 11 1 12 26 13 27 14
REMARK SMILES IDX 10 15 11 16 12 17 13 18 14 19 15 21 16 22 17 23 18 24 19 25
REMARK SMILES IDX 23 26 20 27 22 28 21 29
REMARK H PARENT 9 2 13 20
ROOT
ATOM      1  N   UNL     1     -12.522 -44.300  31.670  1.00  0.00    -0.190 NA
ATOM      2  H   UNL     1     -11.710 -43.787  32.020  1.00  0.00     0.143 HD
ENDROOT
BRANCH   1   3
ATOM      3  C   UNL     1     -12.388 -44.619  30.230  1.00  0.00     0.098 C 
ATOM      4  C   UNL     1     -12.308 -46.142  30.094  1.00  0.00     0.031 C 
BRANCH   3   5
ATOM      5  C   UNL     1     -11.198 -43.888  29.634  1.00  0.00    -0.026 A 
ATOM      6  C   UNL     1      -9.049 -42.408  28.513  1.00  0.00     0.160 A 
ATOM      7  C   UNL     1     -10.292 -42.467  27.873  1.00  0.00     0.051 A 
ATOM      8  C   UNL     1      -8.880 -43.114  29.716  1.00  0.00     0.161 A 
ATOM      9  C   UNL     1     -11.351 -43.195  28.427  1.00  0.00     0.009 A 
ATOM     10  C   UNL     1      -9.955 -43.819  30.278  1.00  0.00     0.055 A 
BRANCH   6  11
ATOM     11  O   UNL     1      -7.989 -41.677  28.048  1.00  0.00    -0.493 OA
ATOM     12  C   UNL     1      -7.791 -41.613  26.642  1.00  0.00     0.278 C 
ENDBRANCH   6  11
BRANCH   8  13
ATOM     13  O   UNL     1      -7.742 -43.154  30.484  1.00  0.00    -0.493 OA
ATOM     14  C   UNL     1      -7.325 -44.450  30.901  1.00  0.00     0.278 C 
ENDBRANCH   8  13
ENDBRANCH   3   5
ENDBRANCH   1   3
BRANCH   1  15
ATOM     15  S   UNL     1     -13.904 -43.504  32.157  1.00  0.00     0.304 S 
ATOM     16  O   UNL     1     -13.578 -42.138  32.473  1.00  0.00    -0.189 OA
ATOM     17  O   UNL     1     -14.523 -44.373  33.130  1.00  0.00    -0.189 OA
BRANCH  15  18
ATOM     18  N   UNL     1     -14.815 -43.618  30.809  1.00  0.00    -0.205 N 
ATOM     19  C   UNL     1     -15.949 -42.894  30.499  1.00  0.00     0.422 C 
ATOM     20  H   UNL     1     -14.572 -44.396  30.210  1.00  0.00     0.188 HD
ATOM     21  O   UNL     1     -16.356 -41.933  31.132  1.00  0.00    -0.223 OA
BRANCH  19  22
ATOM     22  O   UNL     1     -16.522 -43.377  29.369  1.00  0.00    -0.444 OA
BRANCH  22  23
ATOM     23  C   UNL     1     -16.646 -42.445  28.290  1.00  0.00     0.270 C 
BRANCH  23  24
ATOM     24  C   UNL     1     -15.972 -43.007  27.065  1.00  0.00    -0.011 A 
ATOM     25  C   UNL     1     -14.872 -43.865  27.191  1.00  0.00     0.007 A 
ATOM     26  C   UNL     1     -16.409 -42.645  25.783  1.00  0.00     0.007 A 
ATOM     27  C   UNL     1     -14.232 -44.366  26.055  1.00  0.00     0.000 A 
ATOM     28  C   UNL     1     -15.769 -43.147  24.649  1.00  0.00     0.000 A 
ATOM     29  C   UNL     1     -14.683 -44.010  24.786  1.00  0.00     0.000 A 
ENDBRANCH  23  24
ENDBRANCH  22  23
ENDBRANCH  19  22
ENDBRANCH  15  18
ENDBRANCH   1  15
TORSDOF 9
ENDMDL
MODEL 3
REMARK VINA RESULT:    -9.668      2.456      4.305
REMARK INTER + INTRA:         -15.729
REMARK INTER:                 -15.002
REMARK INTRA:                  -0.727
REMARK UNBOUND:                -0.974
REMARK SMILES COc1ccc([C@@H](C)NS(=O)(=O)NC(=O)OCc2ccccc2)cc1OC
REMARK SMILES IDX 9 1 7 3 8 4 6 5 3 6 4 7 25 8 5 9 24 10 2 11 1 12 26 13 27 14
REMARK SMILES IDX 10 15 11 16 12 17 13 18 14 19 15 21 16 22 17 23 18 24 19 25
REMARK SMILES IDX 23 26 20 27 22 28 21 29
REMARK H PARENT 9 2 13 20
ROOT
ATOM      1  N   UNL     1     -11.082 -44.796  29.512  1.00  0.00    -0.190 NA
ATOM      2  H   UNL     1     -12.080 -45.018  29.492  1.00  0.00     0.143 HD
ENDROOT
BRANCH   1   3
ATOM      3  C   UNL     1     -10.560 -44.748  30.896  1.00  0.00     0.098 C 
ATOM      4  C   UNL     1     -10.322 -46.189  31.356  1.00  0.00     0.031 C 
BRANCH   3   5
ATOM      5  C   UNL     1     -11.506 -43.968  31.792  1.00  0.00    -0.026 A 
ATOM      6  C   UNL     1     -13.322 -42.629  33.517  1.00  0.00     0.160 A 
ATOM      7  C   UNL     1     -13.769 -43.607  32.621  1.00  0.00     0.051 A 
ATOM      8  C   UNL     1     -11.954 -42.309  33.532  1.00  0.00     0.161 A 
ATOM      9  C   UNL     1     -12.873 -44.267  31.773  1.00  0.00     0.009 A 
ATOM     10  C   UNL     1     -11.059 -42.997  32.698  1.00  0.00     0.055 A 
BRANCH   6  11
ATOM     11  O   UNL     1     -14.139 -41.981  34.405  1.00  0.00    -0.493 OA
ATOM     12  C   UNL     1     -15.217 -41.217  33.880  1.00  0.00     0.278 C 
ENDBRANCH   6  11
BRANCH   8  13
ATOM     13  O   UNL     1     -11.340 -41.395  34.353  1.00  0.00    -0.493 OA
ATOM     14  C   UNL     1     -10.082 -41.793  34.886  1.00  0.00     0.278 C 
ENDBRANCH   8  13
ENDBRANCH   3   5
ENDBRANCH   1   3
BRANCH   1  15
ATOM     15  S   UNL     1     -10.815 -43.466  28.541  1.00  0.00     0.304 S 
ATOM     16  O   UNL     1      -9.497 -43.554  27.968  1.00  0.00    -0.189 OA
ATOM     17  O   UNL     1     -11.215 -42.327  29.332  1.00  0.00    -0.189 OA
BRANCH  15  18
ATOM     18  N   UNL     1     -11.982 -43.666  27.418  1.00  0.00    -0.205 N 
ATOM     19  C   UNL     1     -13.240 -44.205  27.603  1.00  0.00     0.422 C 
ATOM     20  H   UNL     1     -11.681 -43.481  26.471  1.00  0.00     0.188 HD
ATOM     21  O   UNL     1     -13.730 -44.474  28.687  1.00  0.00    -0.223 OA
BRANCH  19  22
ATOM     22  O   UNL     1     -13.867 -44.354  26.410  1.00  0.00    -0.444 OA
BRANCH  22  23
ATOM     23  C   UNL     1     -14.183 -43.140  25.721  1.00  0.00     0.270 C 
BRANCH  23  24
ATOM     24  C   UNL     1     -15.666 -42.892  25.802  1.00  0.00    -0.011 A 
ATOM     25  C   UNL     1     -16.440 -42.824  24.635  1.00  0.00     0.007 A 
ATOM     26  C   UNL     1     -16.286 -42.682  27.042  1.00  0.00     0.007 A 
ATOM     27  C   UNL     1     -17.811 -42.570  24.710  1.00  0.00     0.000 A 
ATOM     28  C   UNL     1     -17.656 -42.428  27.114  1.00  0.00     0.000 A 
ATOM     29  C   UNL     1     -18.419 -42.375  25.948  1.00  0.00     0.000 A 
ENDBRANCH  23  24
ENDBRANCH  22  23
ENDBRANCH  19  22
ENDBRANCH  15  18
ENDBRANCH   1  15
TORSDOF 9
ENDMDL
MODEL 4
REMARK VINA RESULT:    -9.661      2.455      3.902
REMARK INTER + INTRA:         -15.719
REMARK INTER:                 -15.136
REMARK INTRA:                  -0.583
REMARK UNBOUND:                -0.974
REMARK SMILES COc1ccc([C@@H](C)NS(=O)(=O)NC(=O)OCc2ccccc2)cc1OC
REMARK SMILES IDX 9 1 7 3 8 4 6 5 3 6 4 7 25 8 5 9 24 10 2 11 1 12 26 13 27 14
REMARK SMILES IDX 10 15 11 16 12 17 13 18 14 19 15 21 16 22 17 23 18 24 19 25
REMARK SMILES IDX 23 26 20 27 22 28 21 29
REMARK H PARENT 9 2 13 20
ROOT
ATOM      1  N   UNL     1     -13.169 -44.373  29.327  1.00  0.00    -0.190 NA
ATOM      2  H   UNL     1     -13.022 -43.433  29.701  1.00  0.00     0.143 HD
ENDROOT
BRANCH   1   3
ATOM      3  C   UNL     1     -12.283 -45.366  29.977  1.00  0.00     0.098 C 
ATOM      4  C   UNL     1     -13.068 -46.013  31.122  1.00  0.00     0.031 C 
BRANCH   3   5
ATOM      5  C   UNL     1     -10.987 -44.709  30.419  1.00  0.00    -0.026 A 
ATOM      6  C   UNL     1      -8.525 -43.601  31.302  1.00  0.00     0.160 A 
ATOM      7  C   UNL     1      -9.389 -44.239  32.199  1.00  0.00     0.051 A 
ATOM      8  C   UNL     1      -8.911 -43.503  29.954  1.00  0.00     0.161 A 
ATOM      9  C   UNL     1     -10.602 -44.786  31.763  1.00  0.00     0.009 A 
ATOM     10  C   UNL     1     -10.115 -44.080  29.521  1.00  0.00     0.055 A 
BRANCH   6  11
ATOM     11  O   UNL     1      -7.306 -43.087  31.656  1.00  0.00    -0.493 OA
ATOM     12  C   UNL     1      -6.895 -43.224  33.009  1.00  0.00     0.278 C 
ENDBRANCH   6  11
BRANCH   8  13
ATOM     13  O   UNL     1      -8.185 -42.932  28.939  1.00  0.00    -0.493 OA
ATOM     14  C   UNL     1      -8.945 -42.431  27.844  1.00  0.00     0.278 C 
ENDBRANCH   8  13
ENDBRANCH   3   5
ENDBRANCH   1   3
BRANCH   1  15
ATOM     15  S   UNL     1     -13.141 -44.292  27.661  1.00  0.00     0.304 S 
ATOM     16  O   UNL     1     -12.914 -45.609  27.126  1.00  0.00    -0.189 OA
ATOM     17  O   UNL     1     -12.263 -43.191  27.345  1.00  0.00    -0.189 OA
BRANCH  15  18
ATOM     18  N   UNL     1     -14.654 -43.762  27.355  1.00  0.00    -0.205 N 
ATOM     19  C   UNL     1     -15.227 -43.525  26.121  1.00  0.00     0.422 C 
ATOM     20  H   UNL     1     -15.162 -43.466  28.178  1.00  0.00     0.188 HD
ATOM     21  O   UNL     1     -14.727 -43.832  25.051  1.00  0.00    -0.223 OA
BRANCH  19  22
ATOM     22  O   UNL     1     -16.441 -42.941  26.271  1.00  0.00    -0.444 OA
BRANCH  22  23
ATOM     23  C   UNL     1     -17.132 -42.628  25.057  1.00  0.00     0.270 C 
BRANCH  23  24
ATOM     24  C   UNL     1     -18.499 -42.087  25.385  1.00  0.00    -0.011 A 
ATOM     25  C   UNL     1     -19.360 -41.666  24.364  1.00  0.00     0.007 A 
ATOM     26  C   UNL     1     -18.910 -41.957  26.720  1.00  0.00     0.007 A 
ATOM     27  C   UNL     1     -20.618 -41.142  24.671  1.00  0.00     0.000 A 
ATOM     28  C   UNL     1     -20.167 -41.432  27.024  1.00  0.00     0.000 A 
ATOM     29  C   UNL     1     -21.022 -41.028  25.999  1.00  0.00     0.000 A 
ENDBRANCH  23  24
ENDBRANCH  22  23
ENDBRANCH  19  22
ENDBRANCH  15  18
ENDBRANCH   1  15
TORSDOF 9
ENDMDL
MODEL 5
REMARK VINA RESULT:    -9.634      2.087      3.715
REMARK INTER + INTRA:         -15.678
REMARK INTER:                 -14.778
REMARK INTRA:                  -0.900
REMARK UNBOUND:                -0.974
REMARK SMILES COc1ccc([C@@H](C)NS(=O)(=O)NC(=O)OCc2ccccc2)cc1OC
REMARK SMILES IDX 9 1 7 3 8 4 6 5 3 6 4 7 25 8 5 9 24 10 2 11 1 12 26 13 27 14
REMARK SMILES IDX 10 15 11 16 12 17 13 18 14 19 15 21 16 22 17 23 18 24 19 25
REMARK SMILES IDX 23 26 20 27 22 28 21 29
REMARK H PARENT 9 2 13 20
ROOT
ATOM      1  N   UNL     1     -10.047 -44.912  28.731  1.00  0.00    -0.190 NA
ATOM      2  H   UNL     1      -9.299 -45.277  29.326  1.00  0.00     0.143 HD
ENDROOT
BRANCH   1   3
ATOM      3  C   UNL     1     -10.365 -43.503  29.056  1.00  0.00     0.098 C 
ATOM      4  C   UNL     1      -9.362 -42.614  28.315  1.00  0.00     0.031 C 
BRANCH   3   5
ATOM      5  C   UNL     1     -10.372 -43.295  30.560  1.00  0.00    -0.026 A 
ATOM      6  C   UNL     1     -10.279 -42.818  33.358  1.00  0.00     0.160 A 
ATOM      7  C   UNL     1      -9.140 -43.238  32.662  1.00  0.00     0.051 A 
ATOM      8  C   UNL     1     -11.478 -42.655  32.645  1.00  0.00     0.161 A 
ATOM      9  C   UNL     1      -9.186 -43.471  31.283  1.00  0.00     0.009 A 
ATOM     10  C   UNL     1     -11.508 -42.864  31.257  1.00  0.00     0.055 A 
BRANCH   6  11
ATOM     11  O   UNL     1     -10.289 -42.529  34.697  1.00  0.00    -0.493 OA
ATOM     12  C   UNL     1      -9.095 -42.021  35.276  1.00  0.00     0.278 C 
ENDBRANCH   6  11
BRANCH   8  13
ATOM     13  O   UNL     1     -12.681 -42.235  33.158  1.00  0.00    -0.493 OA
ATOM     14  C   UNL     1     -13.832 -42.909  32.662  1.00  0.00     0.278 C 
ENDBRANCH   8  13
ENDBRANCH   3   5
ENDBRANCH   1   3
BRANCH   1  15
ATOM     15  S   UNL     1     -11.306 -46.006  28.730  1.00  0.00     0.304 S 
ATOM     16  O   UNL     1     -11.527 -46.476  30.072  1.00  0.00    -0.189 OA
ATOM     17  O   UNL     1     -11.018 -46.921  27.651  1.00  0.00    -0.189 OA
BRANCH  15  18
ATOM     18  N   UNL     1     -12.530 -45.063  28.205  1.00  0.00    -0.205 N 
ATOM     19  C   UNL     1     -13.756 -44.865  28.810  1.00  0.00     0.422 C 
ATOM     20  H   UNL     1     -12.397 -44.694  27.273  1.00  0.00     0.188 HD
ATOM     21  O   UNL     1     -14.050 -45.253  29.929  1.00  0.00    -0.223 OA
BRANCH  19  22
ATOM     22  O   UNL     1     -14.569 -44.144  28.000  1.00  0.00    -0.444 OA
BRANCH  22  23
ATOM     23  C   UNL     1     -14.045 -43.851  26.700  1.00  0.00     0.270 C 
BRANCH  23  24
ATOM     24  C   UNL     1     -15.175 -43.454  25.785  1.00  0.00    -0.011 A 
ATOM     25  C   UNL     1     -15.050 -43.601  24.398  1.00  0.00     0.007 A 
ATOM     26  C   UNL     1     -16.348 -42.890  26.307  1.00  0.00     0.007 A 
ATOM     27  C   UNL     1     -16.088 -43.209  23.549  1.00  0.00     0.000 A 
ATOM     28  C   UNL     1     -17.384 -42.500  25.457  1.00  0.00     0.000 A 
ATOM     29  C   UNL     1     -17.254 -42.662  24.079  1.00  0.00     0.000 A 
ENDBRANCH  23  24
ENDBRANCH  22  23
ENDBRANCH  19  22
ENDBRANCH  15  18
ENDBRANCH   1  15
TORSDOF 9
ENDMDL
MODEL 6
REMARK VINA RESULT:    -9.596      3.042      8.674
REMARK INTER + INTRA:         -15.619
REMARK INTER:                 -14.470
REMARK INTRA:                  -1.149
REMARK UNBOUND:                -0.974
REMARK SMILES COc1ccc([C@@H](C)NS(=O)(=O)NC(=O)OCc2ccccc2)cc1OC
REMARK SMILES IDX 9 1 7 3 8 4 6 5 3 6 4 7 25 8 5 9 24 10 2 11 1 12 26 13 27 14
REMARK SMILES IDX 10 15 11 16 12 17 13 18 14 19 15 21 16 22 17 23 18 24 19 25
REMARK SMILES IDX 23 26 20 27 22 28 21 29
REMARK H PARENT 9 2 13 20
ROOT
ATOM      1  N   UNL     1     -15.601 -43.898  27.526  1.00  0.00    -0.190 NA
ATOM      2  H   UNL     1     -16.187 -44.602  27.072  1.00  0.00     0.143 HD
ENDROOT
BRANCH   1   3
ATOM      3  C   UNL     1     -16.250 -42.567  27.530  1.00  0.00     0.098 C 
ATOM      4  C   UNL     1     -16.881 -42.358  28.909  1.00  0.00     0.031 C 
BRANCH   3   5
ATOM      5  C   UNL     1     -17.238 -42.456  26.381  1.00  0.00    -0.026 A 
ATOM      6  C   UNL     1     -19.127 -42.128  24.286  1.00  0.00     0.160 A 
ATOM      7  C   UNL     1     -19.521 -42.060  25.627  1.00  0.00     0.051 A 
ATOM      8  C   UNL     1     -17.776 -42.383  23.997  1.00  0.00     0.161 A 
ATOM      9  C   UNL     1     -18.589 -42.220  26.659  1.00  0.00     0.009 A 
ATOM     10  C   UNL     1     -16.843 -42.513  25.038  1.00  0.00     0.055 A 
BRANCH   6  11
ATOM     11  O   UNL     1     -19.979 -41.935  23.232  1.00  0.00    -0.493 OA
ATOM     12  C   UNL     1     -20.093 -40.622  22.701  1.00  0.00     0.278 C 
ENDBRANCH   6  11
BRANCH   8  13
ATOM     13  O   UNL     1     -17.211 -42.464  22.748  1.00  0.00    -0.493 OA
ATOM     14  C   UNL     1     -16.386 -41.366  22.372  1.00  0.00     0.278 C 
ENDBRANCH   8  13
ENDBRANCH   3   5
ENDBRANCH   1   3
BRANCH   1  15
ATOM     15  S   UNL     1     -14.060 -44.002  26.896  1.00  0.00     0.304 S 
ATOM     16  O   UNL     1     -13.429 -42.710  26.970  1.00  0.00    -0.189 OA
ATOM     17  O   UNL     1     -14.206 -44.695  25.639  1.00  0.00    -0.189 OA
BRANCH  15  18
ATOM     18  N   UNL     1     -13.381 -45.072  27.924  1.00  0.00    -0.205 N 
ATOM     19  C   UNL     1     -13.472 -45.086  29.302  1.00  0.00     0.422 C 
ATOM     20  H   UNL     1     -12.729 -45.708  27.486  1.00  0.00     0.188 HD
ATOM     21  O   UNL     1     -14.218 -44.376  29.957  1.00  0.00    -0.223 OA
BRANCH  19  22
ATOM     22  O   UNL     1     -12.646 -46.029  29.818  1.00  0.00    -0.444 OA
BRANCH  22  23
ATOM     23  C   UNL     1     -12.366 -45.908  31.217  1.00  0.00     0.270 C 
BRANCH  23  24
ATOM     24  C   UNL     1     -10.899 -45.630  31.410  1.00  0.00    -0.011 A 
ATOM     25  C   UNL     1      -9.944 -46.607  31.098  1.00  0.00     0.007 A 
ATOM     26  C   UNL     1     -10.471 -44.407  31.944  1.00  0.00     0.007 A 
ATOM     27  C   UNL     1      -8.585 -46.357  31.300  1.00  0.00     0.000 A 
ATOM     28  C   UNL     1      -9.112 -44.159  32.145  1.00  0.00     0.000 A 
ATOM     29  C   UNL     1      -8.169 -45.134  31.820  1.00  0.00     0.000 A 
ENDBRANCH  23  24
ENDBRANCH  22  23
ENDBRANCH  19  22
ENDBRANCH  15  18
ENDBRANCH   1  15
TORSDOF 9
ENDMDL
MODEL 7
REMARK VINA RESULT:    -9.462      4.243      9.771
REMARK INTER + INTRA:         -15.415
REMARK INTER:                 -14.572
REMARK INTRA:                  -0.844
REMARK UNBOUND:                -0.974
REMARK SMILES COc1ccc([C@@H](C)NS(=O)(=O)NC(=O)OCc2ccccc2)cc1OC
REMARK SMILES IDX 9 1 7 3 8 4 6 5 3 6 4 7 25 8 5 9 24 10 2 11 1 12 26 13 27 14
REMARK SMILES IDX 10 15 11 16 12 17 13 18 14 19 15 21 16 22 17 23 18 24 19 25
REMARK SMILES IDX 23 26 20 27 22 28 21 29
REMARK H PARENT 9 2 13 20
ROOT
ATOM      1  N   UNL     1     -15.927 -42.986  25.072  1.00  0.00    -0.190 NA
ATOM      2  H   UNL     1     -16.336 -43.484  25.866  1.00  0.00     0.143 HD
ENDROOT
BRANCH   1   3
ATOM      3  C   UNL     1     -16.920 -42.754  24.000  1.00  0.00     0.098 C 
ATOM      4  C   UNL     1     -16.295 -41.797  22.981  1.00  0.00     0.031 C 
BRANCH   3   5
ATOM      5  C   UNL     1     -18.227 -42.251  24.589  1.00  0.00    -0.026 A 
ATOM      6  C   UNL     1     -20.598 -41.223  25.767  1.00  0.00     0.160 A 
ATOM      7  C   UNL     1     -19.555 -41.715  26.560  1.00  0.00     0.051 A 
ATOM      8  C   UNL     1     -20.455 -41.267  24.370  1.00  0.00     0.161 A 
ATOM      9  C   UNL     1     -18.386 -42.219  25.979  1.00  0.00     0.009 A 
ATOM     10  C   UNL     1     -19.268 -41.749  23.797  1.00  0.00     0.055 A 
BRANCH   6  11
ATOM     11  O   UNL     1     -21.745 -40.675  26.274  1.00  0.00    -0.493 OA
ATOM     12  C   UNL     1     -22.724 -41.557  26.808  1.00  0.00     0.278 C 
ENDBRANCH   6  11
BRANCH   8  13
ATOM     13  O   UNL     1     -21.363 -40.816  23.444  1.00  0.00    -0.493 OA
ATOM     14  C   UNL     1     -20.925 -39.733  22.629  1.00  0.00     0.278 C 
ENDBRANCH   8  13
ENDBRANCH   3   5
ENDBRANCH   1   3
BRANCH   1  15
ATOM     15  S   UNL     1     -14.500 -43.741  24.650  1.00  0.00     0.304 S 
ATOM     16  O   UNL     1     -13.476 -42.748  24.460  1.00  0.00    -0.189 OA
ATOM     17  O   UNL     1     -14.853 -44.667  23.601  1.00  0.00    -0.189 OA
BRANCH  15  18
ATOM     18  N   UNL     1     -14.230 -44.649  25.979  1.00  0.00    -0.205 N 
ATOM     19  C   UNL     1     -14.391 -44.275  27.298  1.00  0.00     0.422 C 
ATOM     20  H   UNL     1     -13.779 -45.534  25.789  1.00  0.00     0.188 HD
ATOM     21  O   UNL     1     -14.918 -43.239  27.668  1.00  0.00    -0.223 OA
BRANCH  19  22
ATOM     22  O   UNL     1     -13.916 -45.241  28.122  1.00  0.00    -0.444 OA
BRANCH  22  23
ATOM     23  C   UNL     1     -12.751 -45.933  27.658  1.00  0.00     0.270 C 
BRANCH  23  24
ATOM     24  C   UNL     1     -11.792 -46.118  28.805  1.00  0.00    -0.011 A 
ATOM     25  C   UNL     1     -12.224 -45.951  30.127  1.00  0.00     0.007 A 
ATOM     26  C   UNL     1     -10.443 -46.416  28.563  1.00  0.00     0.007 A 
ATOM     27  C   UNL     1     -11.329 -46.099  31.188  1.00  0.00     0.000 A 
ATOM     28  C   UNL     1      -9.550 -46.564  29.625  1.00  0.00     0.000 A 
ATOM     29  C   UNL     1      -9.994 -46.408  30.937  1.00  0.00     0.000 A 
ENDBRANCH  23  24
ENDBRANCH  22  23
ENDBRANCH  19  22
ENDBRANCH  15  18
ENDBRANCH   1  15
TORSDOF 9
ENDMDL
MODEL 8
REMARK VINA RESULT:    -9.422      2.530      3.997
REMARK INTER + INTRA:         -15.354
REMARK INTER:                 -14.586
REMARK INTRA:                  -0.768
REMARK UNBOUND:                -0.974
REMARK SMILES COc1ccc([C@@H](C)NS(=O)(=O)NC(=O)OCc2ccccc2)cc1OC
REMARK SMILES IDX 9 1 7 3 8 4 6 5 3 6 4 7 25 8 5 9 24 10 2 11 1 12 26 13 27 14
REMARK SMILES IDX 10 15 11 16 12 17 13 18 14 19 15 21 16 22 17 23 18 24 19 25
REMARK SMILES IDX 23 26 20 27 22 28 21 29
REMARK H PARENT 9 2 13 20
ROOT
ATOM      1  N   UNL     1     -13.699 -44.923  29.966  1.00  0.00    -0.190 NA
ATOM      2  H   UNL     1     -13.801 -44.017  30.429  1.00  0.00     0.143 HD
ENDROOT
BRANCH   1   3
ATOM      3  C   UNL     1     -12.838 -45.842  30.745  1.00  0.00     0.098 C 
ATOM      4  C   UNL     1     -13.708 -46.500  31.820  1.00  0.00     0.031 C 
BRANCH   3   5
ATOM      5  C   UNL     1     -11.637 -45.098  31.302  1.00  0.00    -0.026 A 
ATOM      6  C   UNL     1      -9.333 -43.713  32.218  1.00  0.00     0.160 A 
ATOM      7  C   UNL     1      -9.222 -44.962  31.597  1.00  0.00     0.051 A 
ATOM      8  C   UNL     1     -10.614 -43.166  32.397  1.00  0.00     0.161 A 
ATOM      9  C   UNL     1     -10.358 -45.643  31.144  1.00  0.00     0.009 A 
ATOM     10  C   UNL     1     -11.745 -43.842  31.915  1.00  0.00     0.055 A 
BRANCH   6  11
ATOM     11  O   UNL     1      -8.259 -42.977  32.642  1.00  0.00    -0.493 OA
ATOM     12  C   UNL     1      -7.027 -43.654  32.847  1.00  0.00     0.278 C 
ENDBRANCH   6  11
BRANCH   8  13
ATOM     13  O   UNL     1     -10.909 -41.951  32.966  1.00  0.00    -0.493 OA
ATOM     14  C   UNL     1     -11.096 -41.961  34.378  1.00  0.00     0.278 C 
ENDBRANCH   8  13
ENDBRANCH   3   5
ENDBRANCH   1   3
BRANCH   1  15
ATOM     15  S   UNL     1     -13.299 -44.662  28.368  1.00  0.00     0.304 S 
ATOM     16  O   UNL     1     -13.087 -45.929  27.719  1.00  0.00    -0.189 OA
ATOM     17  O   UNL     1     -12.271 -43.649  28.391  1.00  0.00    -0.189 OA
BRANCH  15  18
ATOM     18  N   UNL     1     -14.649 -43.920  27.831  1.00  0.00    -0.205 N 
ATOM     19  C   UNL     1     -14.892 -43.435  26.561  1.00  0.00     0.422 C 
ATOM     20  H   UNL     1     -15.313 -43.693  28.559  1.00  0.00     0.188 HD
ATOM     21  O   UNL     1     -14.178 -43.634  25.592  1.00  0.00    -0.223 OA
BRANCH  19  22
ATOM     22  O   UNL     1     -16.057 -42.743  26.537  1.00  0.00    -0.444 OA
BRANCH  22  23
ATOM     23  C   UNL     1     -16.781 -42.792  25.303  1.00  0.00     0.270 C 
BRANCH  23  24
ATOM     24  C   UNL     1     -18.163 -42.230  25.513  1.00  0.00    -0.011 A 
ATOM     25  C   UNL     1     -18.691 -42.107  26.805  1.00  0.00     0.007 A 
ATOM     26  C   UNL     1     -18.957 -41.865  24.416  1.00  0.00     0.007 A 
ATOM     27  C   UNL     1     -19.982 -41.610  26.997  1.00  0.00     0.000 A 
ATOM     28  C   UNL     1     -20.246 -41.368  24.610  1.00  0.00     0.000 A 
ATOM     29  C   UNL     1     -20.757 -41.238  25.901  1.00  0.00     0.000 A 
ENDBRANCH  23  24
ENDBRANCH  22  23
ENDBRANCH  19  22
ENDBRANCH  15  18
ENDBRANCH   1  15
TORSDOF 9
ENDMDL
MODEL 9
REMARK VINA RESULT:    -9.419      2.577      3.626
REMARK INTER + INTRA:         -15.348
REMARK INTER:                 -14.573
REMARK INTRA:                  -0.775
REMARK UNBOUND:                -0.974
REMARK SMILES COc1ccc([C@@H](C)NS(=O)(=O)NC(=O)OCc2ccccc2)cc1OC
REMARK SMILES IDX 9 1 7 3 8 4 6 5 3 6 4 7 25 8 5 9 24 10 2 11 1 12 26 13 27 14
REMARK SMILES IDX 10 15 11 16 12 17 13 18 14 19 15 21 16 22 17 23 18 24 19 25
REMARK SMILES IDX 23 26 20 27 22 28 21 29
REMARK H PARENT 9 2 13 20
ROOT
ATOM      1  N   UNL     1     -13.583 -44.866  29.895  1.00  0.00    -0.190 NA
ATOM      2  H   UNL     1     -13.833 -43.953  30.282  1.00  0.00     0.143 HD
ENDROOT
BRANCH   1   3
ATOM      3  C   UNL     1     -12.792 -45.669  30.855  1.00  0.00     0.098 C 
ATOM      4  C   UNL     1     -13.768 -46.307  31.847  1.00  0.00     0.031 C 
BRANCH   3   5
ATOM      5  C   UNL     1     -11.726 -44.809  31.512  1.00  0.00    -0.026 A 
ATOM      6  C   UNL     1      -9.806 -43.206  32.857  1.00  0.00     0.160 A 
ATOM      7  C   UNL     1     -11.155 -42.838  32.827  1.00  0.00     0.051 A 
ATOM      8  C   UNL     1      -9.416 -44.380  32.189  1.00  0.00     0.161 A 
ATOM      9  C   UNL     1     -12.102 -43.630  32.166  1.00  0.00     0.009 A 
ATOM     10  C   UNL     1     -10.376 -45.182  31.553  1.00  0.00     0.055 A 
BRANCH   6  11
ATOM     11  O   UNL     1      -8.840 -42.501  33.525  1.00  0.00    -0.493 OA
ATOM     12  C   UNL     1      -9.126 -42.075  34.850  1.00  0.00     0.278 C 
ENDBRANCH   6  11
BRANCH   8  13
ATOM     13  O   UNL     1      -8.147 -44.899  32.130  1.00  0.00    -0.493 OA
ATOM     14  C   UNL     1      -8.017 -46.131  31.428  1.00  0.00     0.278 C 
ENDBRANCH   8  13
ENDBRANCH   3   5
ENDBRANCH   1   3
BRANCH   1  15
ATOM     15  S   UNL     1     -12.944 -44.640  28.370  1.00  0.00     0.304 S 
ATOM     16  O   UNL     1     -12.341 -45.868  27.922  1.00  0.00    -0.189 OA
ATOM     17  O   UNL     1     -12.184 -43.415  28.451  1.00  0.00    -0.189 OA
BRANCH  15  18
ATOM     18  N   UNL     1     -14.292 -44.278  27.525  1.00  0.00    -0.205 N 
ATOM     19  C   UNL     1     -14.379 -43.542  26.359  1.00  0.00     0.422 C 
ATOM     20  H   UNL     1     -15.153 -44.527  27.993  1.00  0.00     0.188 HD
ATOM     21  O   UNL     1     -13.424 -43.177  25.694  1.00  0.00    -0.223 OA
BRANCH  19  22
ATOM     22  O   UNL     1     -15.678 -43.318  26.041  1.00  0.00    -0.444 OA
BRANCH  22  23
ATOM     23  C   UNL     1     -16.478 -42.739  27.078  1.00  0.00     0.270 C 
BRANCH  23  24
ATOM     24  C   UNL     1     -17.818 -42.346  26.512  1.00  0.00    -0.011 A 
ATOM     25  C   UNL     1     -18.023 -42.318  25.127  1.00  0.00     0.007 A 
ATOM     26  C   UNL     1     -18.864 -41.960  27.363  1.00  0.00     0.007 A 
ATOM     27  C   UNL     1     -19.258 -41.929  24.602  1.00  0.00     0.000 A 
ATOM     28  C   UNL     1     -20.097 -41.573  26.837  1.00  0.00     0.000 A 
ATOM     29  C   UNL     1     -20.294 -41.560  25.457  1.00  0.00     0.000 A 
ENDBRANCH  23  24
ENDBRANCH  22  23
ENDBRANCH  19  22
ENDBRANCH  15  18
ENDBRANCH   1  15
TORSDOF 9
ENDMDL
