MODEL 1
REMARK VINA RESULT:   -11.217      0.000      0.000
REMARK INTER + INTRA:         -13.348
REMARK INTER:                 -13.184
REMARK INTRA:                  -0.164
REMARK UNBOUND:                -0.164
REMARK SMILES Cc1ccccc1NC(=O)Oc1ccc2c(c1)[C@]1(C)CC[N@@H+](C)[C@@H]1N2C
REMARK SMILES IDX 9 1 8 2 10 3 11 5 12 6 21 7 22 8 20 9 24 10 18 11 25 12
REMARK SMILES IDX 16 13 15 14 17 15 14 16 13 17 23 18 19 20 26 21 7 22 6 23
REMARK SMILES IDX 2 24 5 25 3 26 4 27 1 28
REMARK H PARENT 8 4 22 19
ROOT
ATOM      1  C   UNL     1     -15.335 -43.311  26.388  1.00  0.00     0.417 C 
ATOM      2  N   UNL     1     -15.693 -43.486  25.080  1.00  0.00    -0.291 N 
ATOM      3  O   UNL     1     -15.621 -42.390  27.137  1.00  0.00    -0.224 OA
ATOM      4  H   UNL     1     -15.143 -44.200  24.622  1.00  0.00     0.173 HD
ENDROOT
BRANCH   1   5
ATOM      5  O   UNL     1     -14.494 -44.370  26.743  1.00  0.00    -0.410 OA
BRANCH   5   6
ATOM      6  C   UNL     1     -13.260 -44.015  27.306  1.00  0.00     0.133 A 
ATOM      7  C   UNL     1      -9.959 -44.432  32.089  1.00  0.00     0.265 C 
ATOM      8  N   UNL     1      -9.135 -43.606  31.156  1.00  0.00    -0.317 N 
ATOM      9  C   UNL     1     -11.173 -44.799  31.268  1.00  0.00     0.081 C 
ATOM     10  C   UNL     1      -9.329 -44.149  29.788  1.00  0.00     0.296 C 
ATOM     11  C   UNL     1     -10.610 -45.026  29.862  1.00  0.00     0.072 C 
ATOM     12  N   UNL     1      -9.592 -42.939  29.019  1.00  0.00    -0.325 N 
ATOM     13  C   UNL     1     -11.455 -44.371  28.817  1.00  0.00    -0.007 A 
ATOM     14  C   UNL     1     -10.833 -43.199  28.372  1.00  0.00     0.045 A 
ATOM     15  C   UNL     1     -12.676 -44.791  28.307  1.00  0.00     0.054 A 
ATOM     16  C   UNL     1     -11.452 -42.406  27.413  1.00  0.00     0.030 A 
ATOM     17  C   UNL     1     -12.675 -42.821  26.874  1.00  0.00     0.049 A 
ATOM     18  C   UNL     1      -7.729 -43.406  31.582  1.00  0.00     0.334 C 
ATOM     19  H   UNL     1      -9.575 -42.683  31.039  1.00  0.00     0.349 HD
ATOM     20  C   UNL     1     -10.308 -46.494  29.573  1.00  0.00     0.025 C 
ATOM     21  C   UNL     1      -8.555 -42.524  28.068  1.00  0.00     0.150 C 
ENDBRANCH   5   6
ENDBRANCH   1   5
BRANCH   2  22
ATOM     22  C   UNL     1     -16.505 -42.688  24.248  1.00  0.00     0.047 A 
ATOM     23  C   UNL     1     -15.821 -42.072  23.182  1.00  0.00     0.026 A 
ATOM     24  C   UNL     1     -17.892 -42.490  24.365  1.00  0.00    -0.027 A 
ATOM     25  C   UNL     1     -16.471 -41.215  22.294  1.00  0.00     0.002 A 
ATOM     26  C   UNL     1     -18.528 -41.600  23.471  1.00  0.00     0.005 A 
ATOM     27  C   UNL     1     -17.825 -40.967  22.448  1.00  0.00     0.000 A 
ATOM     28  C   UNL     1     -18.786 -43.194  25.346  1.00  0.00     0.046 C 
ENDBRANCH   2  22
TORSDOF 3
ENDMDL
MODEL 2
REMARK VINA RESULT:   -10.920      2.198      9.420
REMARK INTER + INTRA:         -13.000
REMARK INTER:                 -13.229
REMARK INTRA:                   0.230
REMARK UNBOUND:                -0.164
REMARK SMILES Cc1ccccc1NC(=O)Oc1ccc2c(c1)[C@]1(C)CC[N@@H+](C)[C@@H]1N2C
REMARK SMILES IDX 9 1 8 2 10 3 11 5 12 6 21 7 22 8 20 9 24 10 18 11 25 12
REMARK SMILES IDX 16 13 15 14 17 15 14 16 13 17 23 18 19 20 26 21 7 22 6 23
REMARK SMILES IDX 2 24 5 25 3 26 4 27 1 28
REMARK H PARENT 8 4 22 19
ROOT
ATOM      1  C   UNL     1     -14.154 -43.490  26.400  1.00  0.00     0.417 C 
ATOM      2  N   UNL     1     -13.181 -43.330  27.348  1.00  0.00    -0.291 N 
ATOM      3  O   UNL     1     -14.372 -44.461  25.692  1.00  0.00    -0.224 OA
ATOM      4  H   UNL     1     -13.068 -42.364  27.625  1.00  0.00     0.173 HD
ENDROOT
BRANCH   1   5
ATOM      5  O   UNL     1     -14.864 -42.289  26.313  1.00  0.00    -0.410 OA
BRANCH   5   6
ATOM      6  C   UNL     1     -15.960 -42.282  25.438  1.00  0.00     0.133 A 
ATOM      7  C   UNL     1     -21.421 -44.174  24.700  1.00  0.00     0.265 C 
ATOM      8  N   UNL     1     -21.128 -43.426  23.440  1.00  0.00    -0.317 N 
ATOM      9  C   UNL     1     -20.180 -43.969  25.538  1.00  0.00     0.081 C 
ATOM     10  C   UNL     1     -20.314 -42.239  23.803  1.00  0.00     0.296 C 
ATOM     11  C   UNL     1     -19.764 -42.527  25.229  1.00  0.00     0.072 C 
ATOM     12  N   UNL     1     -19.235 -42.304  22.826  1.00  0.00    -0.325 N 
ATOM     13  C   UNL     1     -18.293 -42.418  24.986  1.00  0.00    -0.007 A 
ATOM     14  C   UNL     1     -18.049 -42.290  23.614  1.00  0.00     0.045 A 
ATOM     15  C   UNL     1     -17.262 -42.430  25.915  1.00  0.00     0.054 A 
ATOM     16  C   UNL     1     -16.743 -42.198  23.147  1.00  0.00     0.030 A 
ATOM     17  C   UNL     1     -15.690 -42.191  24.069  1.00  0.00     0.049 A 
ATOM     18  C   UNL     1     -22.310 -43.167  22.584  1.00  0.00     0.334 C 
ATOM     19  H   UNL     1     -20.433 -43.949  22.888  1.00  0.00     0.349 HD
ATOM     20  C   UNL     1     -20.291 -41.525  26.252  1.00  0.00     0.025 C 
ATOM     21  C   UNL     1     -19.218 -41.262  21.793  1.00  0.00     0.150 C 
ENDBRANCH   5   6
ENDBRANCH   1   5
BRANCH   2  22
ATOM     22  C   UNL     1     -12.193 -44.231  27.793  1.00  0.00     0.047 A 
ATOM     23  C   UNL     1     -12.524 -45.590  27.624  1.00  0.00     0.026 A 
ATOM     24  C   UNL     1     -10.938 -43.904  28.337  1.00  0.00    -0.027 A 
ATOM     25  C   UNL     1     -11.672 -46.608  28.053  1.00  0.00     0.002 A 
ATOM     26  C   UNL     1     -10.100 -44.948  28.787  1.00  0.00     0.005 A 
ATOM     27  C   UNL     1     -10.465 -46.286  28.650  1.00  0.00     0.000 A 
ATOM     28  C   UNL     1     -10.376 -42.514  28.439  1.00  0.00     0.046 C 
ENDBRANCH   2  22
TORSDOF 3
ENDMDL
MODEL 3
REMARK VINA RESULT:   -10.692      1.484      2.885
REMARK INTER + INTRA:         -12.731
REMARK INTER:                 -12.562
REMARK INTRA:                  -0.169
REMARK UNBOUND:                -0.164
REMARK SMILES Cc1ccccc1NC(=O)Oc1ccc2c(c1)[C@]1(C)CC[N@@H+](C)[C@@H]1N2C
REMARK SMILES IDX 9 1 8 2 10 3 11 5 12 6 21 7 22 8 20 9 24 10 18 11 25 12
REMARK SMILES IDX 16 13 15 14 17 15 14 16 13 17 23 18 19 20 26 21 7 22 6 23
REMARK SMILES IDX 2 24 5 25 3 26 4 27 1 28
REMARK H PARENT 8 4 22 19
ROOT
ATOM      1  C   UNL     1     -14.819 -42.881  26.088  1.00  0.00     0.417 C 
ATOM      2  N   UNL     1     -16.048 -43.353  25.717  1.00  0.00    -0.291 N 
ATOM      3  O   UNL     1     -14.532 -41.780  26.535  1.00  0.00    -0.224 OA
ATOM      4  H   UNL     1     -15.986 -44.200  25.168  1.00  0.00     0.173 HD
ENDROOT
BRANCH   1   5
ATOM      5  O   UNL     1     -13.879 -43.876  25.808  1.00  0.00    -0.410 OA
BRANCH   5   6
ATOM      6  C   UNL     1     -13.111 -44.323  26.893  1.00  0.00     0.133 A 
ATOM      7  C   UNL     1      -8.127 -43.511  29.801  1.00  0.00     0.265 C 
ATOM      8  N   UNL     1      -8.776 -44.653  30.513  1.00  0.00    -0.317 N 
ATOM      9  C   UNL     1      -9.146 -43.112  28.759  1.00  0.00     0.081 C 
ATOM     10  C   UNL     1     -10.236 -44.387  30.548  1.00  0.00     0.296 C 
ATOM     11  C   UNL     1     -10.490 -43.295  29.471  1.00  0.00     0.072 C 
ATOM     12  N   UNL     1     -10.785 -45.663  30.109  1.00  0.00    -0.325 N 
ATOM     13  C   UNL     1     -11.486 -43.990  28.601  1.00  0.00    -0.007 A 
ATOM     14  C   UNL     1     -11.618 -45.324  29.005  1.00  0.00     0.045 A 
ATOM     15  C   UNL     1     -12.213 -43.473  27.538  1.00  0.00     0.054 A 
ATOM     16  C   UNL     1     -12.476 -46.175  28.319  1.00  0.00     0.030 A 
ATOM     17  C   UNL     1     -13.231 -45.668  27.256  1.00  0.00     0.049 A 
ATOM     18  C   UNL     1      -8.149 -45.012  31.808  1.00  0.00     0.334 C 
ATOM     19  H   UNL     1      -8.767 -45.484  29.905  1.00  0.00     0.349 HD
ATOM     20  C   UNL     1     -11.015 -42.001  30.089  1.00  0.00     0.025 C 
ATOM     21  C   UNL     1     -11.504 -46.453  31.115  1.00  0.00     0.150 C 
ENDBRANCH   5   6
ENDBRANCH   1   5
BRANCH   2  22
ATOM     22  C   UNL     1     -17.312 -42.732  25.773  1.00  0.00     0.047 A 
ATOM     23  C   UNL     1     -17.786 -42.487  27.076  1.00  0.00     0.026 A 
ATOM     24  C   UNL     1     -18.096 -42.318  24.681  1.00  0.00    -0.027 A 
ATOM     25  C   UNL     1     -19.039 -41.919  27.304  1.00  0.00     0.002 A 
ATOM     26  C   UNL     1     -19.372 -41.766  24.931  1.00  0.00     0.005 A 
ATOM     27  C   UNL     1     -19.840 -41.572  26.229  1.00  0.00     0.000 A 
ATOM     28  C   UNL     1     -17.666 -42.366  23.241  1.00  0.00     0.046 C 
ENDBRANCH   2  22
TORSDOF 3
ENDMDL
MODEL 4
REMARK VINA RESULT:   -10.570      3.128      9.205
REMARK INTER + INTRA:         -12.588
REMARK INTER:                 -12.440
REMARK INTRA:                  -0.149
REMARK UNBOUND:                -0.164
REMARK SMILES Cc1ccccc1NC(=O)Oc1ccc2c(c1)[C@]1(C)CC[N@@H+](C)[C@@H]1N2C
REMARK SMILES IDX 9 1 8 2 10 3 11 5 12 6 21 7 22 8 20 9 24 10 18 11 25 12
REMARK SMILES IDX 16 13 15 14 17 15 14 16 13 17 23 18 19 20 26 21 7 22 6 23
REMARK SMILES IDX 2 24 5 25 3 26 4 27 1 28
REMARK H PARENT 8 4 22 19
ROOT
ATOM      1  C   UNL     1     -14.376 -43.169  25.938  1.00  0.00     0.417 C 
ATOM      2  N   UNL     1     -14.256 -44.453  26.393  1.00  0.00    -0.291 N 
ATOM      3  O   UNL     1     -14.220 -42.126  26.556  1.00  0.00    -0.224 OA
ATOM      4  H   UNL     1     -14.659 -45.127  25.757  1.00  0.00     0.173 HD
ENDROOT
BRANCH   1   5
ATOM      5  O   UNL     1     -14.787 -43.228  24.604  1.00  0.00    -0.410 OA
BRANCH   5   6
ATOM      6  C   UNL     1     -16.083 -42.761  24.336  1.00  0.00     0.133 A 
ATOM      7  C   UNL     1     -21.713 -43.437  25.672  1.00  0.00     0.265 C 
ATOM      8  N   UNL     1     -21.718 -42.367  24.630  1.00  0.00    -0.317 N 
ATOM      9  C   UNL     1     -20.245 -43.716  25.894  1.00  0.00     0.081 C 
ATOM     10  C   UNL     1     -20.530 -41.508  24.864  1.00  0.00     0.296 C 
ATOM     11  C   UNL     1     -19.589 -42.336  25.784  1.00  0.00     0.072 C 
ATOM     12  N   UNL     1     -19.963 -41.408  23.526  1.00  0.00    -0.325 N 
ATOM     13  C   UNL     1     -18.351 -42.379  24.947  1.00  0.00    -0.007 A 
ATOM     14  C   UNL     1     -18.616 -41.840  23.683  1.00  0.00     0.045 A 
ATOM     15  C   UNL     1     -17.094 -42.858  25.290  1.00  0.00     0.054 A 
ATOM     16  C   UNL     1     -17.612 -41.799  22.723  1.00  0.00     0.030 A 
ATOM     17  C   UNL     1     -16.334 -42.262  23.054  1.00  0.00     0.049 A 
ATOM     18  C   UNL     1     -23.012 -41.658  24.475  1.00  0.00     0.334 C 
ATOM     19  H   UNL     1     -21.459 -42.775  23.721  1.00  0.00     0.349 HD
ATOM     20  C   UNL     1     -19.388 -41.665  27.140  1.00  0.00     0.025 C 
ATOM     21  C   UNL     1     -20.045 -40.097  22.872  1.00  0.00     0.150 C 
ENDBRANCH   5   6
ENDBRANCH   1   5
BRANCH   2  22
ATOM     22  C   UNL     1     -13.894 -44.932  27.669  1.00  0.00     0.047 A 
ATOM     23  C   UNL     1     -14.556 -44.299  28.740  1.00  0.00     0.026 A 
ATOM     24  C   UNL     1     -12.991 -45.971  27.953  1.00  0.00    -0.027 A 
ATOM     25  C   UNL     1     -14.278 -44.626  30.067  1.00  0.00     0.002 A 
ATOM     26  C   UNL     1     -12.705 -46.272  29.303  1.00  0.00     0.005 A 
ATOM     27  C   UNL     1     -13.339 -45.605  30.349  1.00  0.00     0.000 A 
ATOM     28  C   UNL     1     -12.326 -46.843  26.925  1.00  0.00     0.046 C 
ENDBRANCH   2  22
TORSDOF 3
ENDMDL
MODEL 5
REMARK VINA RESULT:   -10.441      1.862      2.701
REMARK INTER + INTRA:         -12.437
REMARK INTER:                 -12.281
REMARK INTRA:                  -0.156
REMARK UNBOUND:                -0.164
REMARK SMILES Cc1ccccc1NC(=O)Oc1ccc2c(c1)[C@]1(C)CC[N@@H+](C)[C@@H]1N2C
REMARK SMILES IDX 9 1 8 2 10 3 11 5 12 6 21 7 22 8 20 9 24 10 18 11 25 12
REMARK SMILES IDX 16 13 15 14 17 15 14 16 13 17 23 18 19 20 26 21 7 22 6 23
REMARK SMILES IDX 2 24 5 25 3 26 4 27 1 28
REMARK H PARENT 8 4 22 19
ROOT
ATOM      1  C   UNL     1     -16.187 -42.860  24.606  1.00  0.00     0.417 C 
ATOM      2  N   UNL     1     -17.274 -43.179  25.372  1.00  0.00    -0.291 N 
ATOM      3  O   UNL     1     -16.009 -41.867  23.917  1.00  0.00    -0.224 OA
ATOM      4  H   UNL     1     -17.275 -44.150  25.654  1.00  0.00     0.173 HD
ENDROOT
BRANCH   1   5
ATOM      5  O   UNL     1     -15.287 -43.926  24.681  1.00  0.00    -0.410 OA
BRANCH   5   6
ATOM      6  C   UNL     1     -14.282 -43.817  25.654  1.00  0.00     0.133 A 
ATOM      7  C   UNL     1     -12.222 -46.130  30.589  1.00  0.00     0.265 C 
ATOM      8  N   UNL     1     -11.309 -44.979  30.324  1.00  0.00    -0.317 N 
ATOM      9  C   UNL     1     -13.143 -46.142  29.390  1.00  0.00     0.081 C 
ATOM     10  C   UNL     1     -11.092 -44.907  28.857  1.00  0.00     0.296 C 
ATOM     11  C   UNL     1     -12.229 -45.756  28.223  1.00  0.00     0.072 C 
ATOM     12  N   UNL     1     -11.312 -43.492  28.590  1.00  0.00    -0.325 N 
ATOM     13  C   UNL     1     -12.870 -44.740  27.333  1.00  0.00    -0.007 A 
ATOM     14  C   UNL     1     -12.314 -43.479  27.578  1.00  0.00     0.045 A 
ATOM     15  C   UNL     1     -13.866 -44.929  26.385  1.00  0.00     0.054 A 
ATOM     16  C   UNL     1     -12.777 -42.369  26.881  1.00  0.00     0.030 A 
ATOM     17  C   UNL     1     -13.768 -42.542  25.908  1.00  0.00     0.049 A 
ATOM     18  C   UNL     1     -10.087 -44.951  31.164  1.00  0.00     0.334 C 
ATOM     19  H   UNL     1     -11.822 -44.097  30.466  1.00  0.00     0.349 HD
ATOM     20  C   UNL     1     -11.681 -46.967  27.473  1.00  0.00     0.025 C 
ATOM     21  C   UNL     1     -10.137 -42.702  28.206  1.00  0.00     0.150 C 
ENDBRANCH   5   6
ENDBRANCH   1   5
BRANCH   2  22
ATOM     22  C   UNL     1     -18.461 -42.455  25.608  1.00  0.00     0.047 A 
ATOM     23  C   UNL     1     -19.164 -42.090  24.443  1.00  0.00     0.026 A 
ATOM     24  C   UNL     1     -19.002 -42.109  26.859  1.00  0.00    -0.027 A 
ATOM     25  C   UNL     1     -20.334 -41.333  24.502  1.00  0.00     0.002 A 
ATOM     26  C   UNL     1     -20.174 -41.322  26.898  1.00  0.00     0.005 A 
ATOM     27  C   UNL     1     -20.831 -40.935  25.732  1.00  0.00     0.000 A 
ATOM     28  C   UNL     1     -18.458 -42.554  28.188  1.00  0.00     0.046 C 
ENDBRANCH   2  22
TORSDOF 3
ENDMDL
MODEL 6
REMARK VINA RESULT:    -9.867      1.947      9.360
REMARK INTER + INTRA:         -11.762
REMARK INTER:                 -11.382
REMARK INTRA:                  -0.380
REMARK UNBOUND:                -0.164
REMARK SMILES Cc1ccccc1NC(=O)Oc1ccc2c(c1)[C@]1(C)CC[N@@H+](C)[C@@H]1N2C
REMARK SMILES IDX 9 1 8 2 10 3 11 5 12 6 21 7 22 8 20 9 24 10 18 11 25 12
REMARK SMILES IDX 16 13 15 14 17 15 14 16 13 17 23 18 19 20 26 21 7 22 6 23
REMARK SMILES IDX 2 24 5 25 3 26 4 27 1 28
REMARK H PARENT 8 4 22 19
ROOT
ATOM      1  C   UNL     1     -13.492 -43.944  27.183  1.00  0.00     0.417 C 
ATOM      2  N   UNL     1     -12.662 -43.614  28.218  1.00  0.00    -0.291 N 
ATOM      3  O   UNL     1     -13.801 -45.056  26.783  1.00  0.00    -0.224 OA
ATOM      4  H   UNL     1     -12.390 -42.640  28.198  1.00  0.00     0.173 HD
ENDROOT
BRANCH   1   5
ATOM      5  O   UNL     1     -13.910 -42.756  26.578  1.00  0.00    -0.410 OA
BRANCH   5   6
ATOM      6  C   UNL     1     -15.279 -42.658  26.289  1.00  0.00     0.133 A 
ATOM      7  C   UNL     1     -19.155 -40.705  22.402  1.00  0.00     0.265 C 
ATOM      8  N   UNL     1     -19.999 -41.292  23.486  1.00  0.00    -0.317 N 
ATOM      9  C   UNL     1     -17.742 -41.007  22.843  1.00  0.00     0.081 C 
ATOM     10  C   UNL     1     -19.312 -42.512  23.978  1.00  0.00     0.296 C 
ATOM     11  C   UNL     1     -17.845 -42.399  23.475  1.00  0.00     0.072 C 
ATOM     12  N   UNL     1     -19.364 -42.326  25.422  1.00  0.00    -0.325 N 
ATOM     13  C   UNL     1     -17.102 -42.474  24.769  1.00  0.00    -0.007 A 
ATOM     14  C   UNL     1     -18.006 -42.433  25.837  1.00  0.00     0.045 A 
ATOM     15  C   UNL     1     -15.733 -42.573  24.973  1.00  0.00     0.054 A 
ATOM     16  C   UNL     1     -17.537 -42.463  27.145  1.00  0.00     0.030 A 
ATOM     17  C   UNL     1     -16.161 -42.580  27.371  1.00  0.00     0.049 A 
ATOM     18  C   UNL     1     -21.433 -41.448  23.140  1.00  0.00     0.334 C 
ATOM     19  H   UNL     1     -19.930 -40.704  24.329  1.00  0.00     0.349 HD
ATOM     20  C   UNL     1     -17.493 -43.521  22.501  1.00  0.00     0.025 C 
ATOM     21  C   UNL     1     -20.239 -43.233  26.172  1.00  0.00     0.150 C 
ENDBRANCH   5   6
ENDBRANCH   1   5
BRANCH   2  22
ATOM     22  C   UNL     1     -11.965 -44.443  29.121  1.00  0.00     0.047 A 
ATOM     23  C   UNL     1     -12.788 -45.285  29.894  1.00  0.00     0.026 A 
ATOM     24  C   UNL     1     -10.571 -44.526  29.284  1.00  0.00    -0.027 A 
ATOM     25  C   UNL     1     -12.257 -46.134  30.865  1.00  0.00     0.002 A 
ATOM     26  C   UNL     1     -10.054 -45.374  30.288  1.00  0.00     0.005 A 
ATOM     27  C   UNL     1     -10.888 -46.168  31.073  1.00  0.00     0.000 A 
ATOM     28  C   UNL     1      -9.557 -43.813  28.433  1.00  0.00     0.046 C 
ENDBRANCH   2  22
TORSDOF 3
ENDMDL
MODEL 7
REMARK VINA RESULT:    -9.743      3.420      9.563
REMARK INTER + INTRA:         -11.616
REMARK INTER:                 -11.186
REMARK INTRA:                  -0.430
REMARK UNBOUND:                -0.164
REMARK SMILES Cc1ccccc1NC(=O)Oc1ccc2c(c1)[C@]1(C)CC[N@@H+](C)[C@@H]1N2C
REMARK SMILES IDX 9 1 8 2 10 3 11 5 12 6 21 7 22 8 20 9 24 10 18 11 25 12
REMARK SMILES IDX 16 13 15 14 17 15 14 16 13 17 23 18 19 20 26 21 7 22 6 23
REMARK SMILES IDX 2 24 5 25 3 26 4 27 1 28
REMARK H PARENT 8 4 22 19
ROOT
ATOM      1  C   UNL     1     -14.952 -43.124  24.114  1.00  0.00     0.417 C 
ATOM      2  N   UNL     1     -14.804 -42.648  25.388  1.00  0.00    -0.291 N 
ATOM      3  O   UNL     1     -14.852 -44.275  23.718  1.00  0.00    -0.224 OA
ATOM      4  H   UNL     1     -14.706 -41.642  25.414  1.00  0.00     0.173 HD
ENDROOT
BRANCH   1   5
ATOM      5  O   UNL     1     -15.185 -42.030  23.276  1.00  0.00    -0.410 OA
BRANCH   5   6
ATOM      6  C   UNL     1     -16.526 -41.656  23.109  1.00  0.00     0.133 A 
ATOM      7  C   UNL     1     -22.033 -43.205  24.214  1.00  0.00     0.265 C 
ATOM      8  N   UNL     1     -22.166 -41.935  23.438  1.00  0.00    -0.317 N 
ATOM      9  C   UNL     1     -20.540 -43.370  24.380  1.00  0.00     0.081 C 
ATOM     10  C   UNL     1     -21.071 -41.030  23.868  1.00  0.00     0.296 C 
ATOM     11  C   UNL     1     -20.034 -41.939  24.587  1.00  0.00     0.072 C 
ATOM     12  N   UNL     1     -20.539 -40.574  22.591  1.00  0.00    -0.325 N 
ATOM     13  C   UNL     1     -18.812 -41.662  23.772  1.00  0.00    -0.007 A 
ATOM     14  C   UNL     1     -19.152 -40.885  22.659  1.00  0.00     0.045 A 
ATOM     15  C   UNL     1     -17.507 -42.070  24.009  1.00  0.00     0.054 A 
ATOM     16  C   UNL     1     -18.173 -40.524  21.740  1.00  0.00     0.030 A 
ATOM     17  C   UNL     1     -16.848 -40.911  21.970  1.00  0.00     0.049 A 
ATOM     18  C   UNL     1     -23.529 -41.351  23.436  1.00  0.00     0.334 C 
ATOM     19  H   UNL     1     -21.881 -42.100  22.463  1.00  0.00     0.349 HD
ATOM     20  C   UNL     1     -19.883 -41.570  26.061  1.00  0.00     0.025 C 
ATOM     21  C   UNL     1     -20.769 -39.166  22.247  1.00  0.00     0.150 C 
ENDBRANCH   5   6
ENDBRANCH   1   5
BRANCH   2  22
ATOM     22  C   UNL     1     -14.533 -43.338  26.587  1.00  0.00     0.047 A 
ATOM     23  C   UNL     1     -13.270 -43.959  26.631  1.00  0.00     0.026 A 
ATOM     24  C   UNL     1     -15.369 -43.426  27.715  1.00  0.00    -0.027 A 
ATOM     25  C   UNL     1     -12.866 -44.717  27.729  1.00  0.00     0.002 A 
ATOM     26  C   UNL     1     -14.953 -44.218  28.808  1.00  0.00     0.005 A 
ATOM     27  C   UNL     1     -13.716 -44.860  28.814  1.00  0.00     0.000 A 
ATOM     28  C   UNL     1     -16.672 -42.696  27.885  1.00  0.00     0.046 C 
ENDBRANCH   2  22
TORSDOF 3
ENDMDL
MODEL 8
REMARK VINA RESULT:    -9.705      2.602      9.686
REMARK INTER + INTRA:         -11.572
REMARK INTER:                 -11.589
REMARK INTRA:                   0.017
REMARK UNBOUND:                -0.164
REMARK SMILES Cc1ccccc1NC(=O)Oc1ccc2c(c1)[C@]1(C)CC[N@@H+](C)[C@@H]1N2C
REMARK SMILES IDX 9 1 8 2 10 3 11 5 12 6 21 7 22 8 20 9 24 10 18 11 25 12
REMARK SMILES IDX 16 13 15 14 17 15 14 16 13 17 23 18 19 20 26 21 7 22 6 23
REMARK SMILES IDX 2 24 5 25 3 26 4 27 1 28
REMARK H PARENT 8 4 22 19
ROOT
ATOM      1  C   UNL     1     -14.525 -43.541  25.255  1.00  0.00     0.417 C 
ATOM      2  N   UNL     1     -13.800 -43.301  26.389  1.00  0.00    -0.291 N 
ATOM      3  O   UNL     1     -14.574 -44.563  24.587  1.00  0.00    -0.224 OA
ATOM      4  H   UNL     1     -13.752 -42.316  26.615  1.00  0.00     0.173 HD
ENDROOT
BRANCH   1   5
ATOM      5  O   UNL     1     -15.191 -42.360  24.918  1.00  0.00    -0.410 OA
BRANCH   5   6
ATOM      6  C   UNL     1     -16.572 -42.339  25.161  1.00  0.00     0.133 A 
ATOM      7  C   UNL     1     -21.644 -40.087  23.385  1.00  0.00     0.265 C 
ATOM      8  N   UNL     1     -22.018 -40.934  24.557  1.00  0.00    -0.317 N 
ATOM      9  C   UNL     1     -20.161 -40.332  23.223  1.00  0.00     0.081 C 
ATOM     10  C   UNL     1     -21.174 -42.154  24.517  1.00  0.00     0.296 C 
ATOM     11  C   UNL     1     -19.997 -41.818  23.558  1.00  0.00     0.072 C 
ATOM     12  N   UNL     1     -20.695 -42.234  25.890  1.00  0.00    -0.325 N 
ATOM     13  C   UNL     1     -18.829 -42.055  24.460  1.00  0.00    -0.007 A 
ATOM     14  C   UNL     1     -19.279 -42.288  25.765  1.00  0.00     0.045 A 
ATOM     15  C   UNL     1     -17.479 -42.062  24.139  1.00  0.00     0.054 A 
ATOM     16  C   UNL     1     -18.361 -42.509  26.785  1.00  0.00     0.030 A 
ATOM     17  C   UNL     1     -16.996 -42.537  26.479  1.00  0.00     0.049 A 
ATOM     18  C   UNL     1     -23.475 -41.157  24.721  1.00  0.00     0.334 C 
ATOM     19  H   UNL     1     -21.656 -40.502  25.419  1.00  0.00     0.349 HD
ATOM     20  C   UNL     1     -20.004 -42.710  22.319  1.00  0.00     0.025 C 
ATOM     21  C   UNL     1     -21.215 -43.338  26.706  1.00  0.00     0.150 C 
ENDBRANCH   5   6
ENDBRANCH   1   5
BRANCH   2  22
ATOM     22  C   UNL     1     -12.945 -44.155  27.116  1.00  0.00     0.047 A 
ATOM     23  C   UNL     1     -13.321 -45.512  27.096  1.00  0.00     0.026 A 
ATOM     24  C   UNL     1     -11.774 -43.788  27.804  1.00  0.00    -0.027 A 
ATOM     25  C   UNL     1     -12.606 -46.479  27.802  1.00  0.00     0.002 A 
ATOM     26  C   UNL     1     -11.077 -44.777  28.532  1.00  0.00     0.005 A 
ATOM     27  C   UNL     1     -11.490 -46.108  28.534  1.00  0.00     0.000 A 
ATOM     28  C   UNL     1     -11.158 -42.417  27.792  1.00  0.00     0.046 C 
ENDBRANCH   2  22
TORSDOF 3
ENDMDL
MODEL 9
REMARK VINA RESULT:    -9.438      5.260     11.309
REMARK INTER + INTRA:         -11.258
REMARK INTER:                 -10.723
REMARK INTRA:                  -0.535
REMARK UNBOUND:                -0.164
REMARK SMILES Cc1ccccc1NC(=O)Oc1ccc2c(c1)[C@]1(C)CC[N@@H+](C)[C@@H]1N2C
REMARK SMILES IDX 9 1 8 2 10 3 11 5 12 6 21 7 22 8 20 9 24 10 18 11 25 12
REMARK SMILES IDX 16 13 15 14 17 15 14 16 13 17 23 18 19 20 26 21 7 22 6 23
REMARK SMILES IDX 2 24 5 25 3 26 4 27 1 28
REMARK H PARENT 8 4 22 19
ROOT
ATOM      1  C   UNL     1     -20.009 -42.546  27.010  1.00  0.00     0.417 C 
ATOM      2  N   UNL     1     -18.839 -41.895  26.734  1.00  0.00    -0.291 N 
ATOM      3  O   UNL     1     -20.238 -43.746  26.968  1.00  0.00    -0.224 OA
ATOM      4  H   UNL     1     -18.971 -40.899  26.617  1.00  0.00     0.173 HD
ENDROOT
BRANCH   1   5
ATOM      5  O   UNL     1     -20.975 -41.580  27.304  1.00  0.00    -0.410 OA
BRANCH   5   6
ATOM      6  C   UNL     1     -21.603 -40.981  26.203  1.00  0.00     0.133 A 
ATOM      7  C   UNL     1     -20.685 -38.579  20.975  1.00  0.00     0.265 C 
ATOM      8  N   UNL     1     -22.161 -38.462  21.168  1.00  0.00    -0.317 N 
ATOM      9  C   UNL     1     -20.221 -39.338  22.196  1.00  0.00     0.081 C 
ATOM     10  C   UNL     1     -22.623 -39.696  21.851  1.00  0.00     0.296 C 
ATOM     11  C   UNL     1     -21.344 -40.349  22.447  1.00  0.00     0.072 C 
ATOM     12  N   UNL     1     -23.455 -39.157  22.918  1.00  0.00    -0.325 N 
ATOM     13  C   UNL     1     -21.715 -40.415  23.894  1.00  0.00    -0.007 A 
ATOM     14  C   UNL     1     -22.916 -39.729  24.105  1.00  0.00     0.045 A 
ATOM     15  C   UNL     1     -21.034 -41.036  24.931  1.00  0.00     0.054 A 
ATOM     16  C   UNL     1     -23.445 -39.635  25.387  1.00  0.00     0.030 A 
ATOM     17  C   UNL     1     -22.783 -40.269  26.444  1.00  0.00     0.049 A 
ATOM     18  C   UNL     1     -22.917 -38.069  19.954  1.00  0.00     0.334 C 
ATOM     19  H   UNL     1     -22.355 -37.773  21.909  1.00  0.00     0.349 HD
ATOM     20  C   UNL     1     -21.063 -41.715  21.825  1.00  0.00     0.025 C 
ATOM     21  C   UNL     1     -24.900 -39.388  22.807  1.00  0.00     0.150 C 
ENDBRANCH   5   6
ENDBRANCH   1   5
BRANCH   2  22
ATOM     22  C   UNL     1     -17.581 -42.411  26.361  1.00  0.00     0.047 A 
ATOM     23  C   UNL     1     -16.719 -42.683  27.441  1.00  0.00     0.026 A 
ATOM     24  C   UNL     1     -17.142 -42.700  25.057  1.00  0.00    -0.027 A 
ATOM     25  C   UNL     1     -15.422 -43.156  27.240  1.00  0.00     0.002 A 
ATOM     26  C   UNL     1     -15.817 -43.155  24.871  1.00  0.00     0.005 A 
ATOM     27  C   UNL     1     -14.965 -43.378  25.951  1.00  0.00     0.000 A 
ATOM     28  C   UNL     1     -17.991 -42.612  23.819  1.00  0.00     0.046 C 
ENDBRANCH   2  22
TORSDOF 3
ENDMDL
