MODEL 1
REMARK VINA RESULT:   -10.526      0.000      0.000
REMARK INTER + INTRA:         -16.163
REMARK INTER:                 -15.449
REMARK INTRA:                  -0.715
REMARK UNBOUND:                -0.715
REMARK SMILES COc1cc2c(cc1OC)S[C@H](C(=O)CCc1cc[n+](Cc3ccsc3)cc1)C2
REMARK SMILES IDX 15 1 13 2 14 3 12 4 3 5 4 6 8 7 5 8 7 9 6 10 29 11 11 12
REMARK SMILES IDX 2 13 1 14 9 15 10 16 16 17 17 18 18 19 28 20 19 21 27 22
REMARK SMILES IDX 20 23 21 24 22 25 23 26 26 27 24 28 25 29
REMARK H PARENT
ROOT
ATOM      1  C   UNL     1     -14.020 -43.681  26.025  1.00  0.00     0.081 C 
ENDROOT
BRANCH   1   2
ATOM      2  C   UNL     1     -14.810 -43.489  24.737  1.00  0.00     0.146 C 
ATOM      3  O   UNL     1     -14.557 -44.188  23.751  1.00  0.00    -0.298 OA
BRANCH   2   4
ATOM      4  C   UNL     1     -15.878 -42.407  24.719  1.00  0.00     0.123 C 
ATOM      5  C   UNL     1     -20.541 -41.243  24.970  1.00  0.00     0.161 A 
ATOM      6  C   UNL     1     -19.471 -41.797  25.684  1.00  0.00     0.055 A 
ATOM      7  C   UNL     1     -20.407 -40.972  23.586  1.00  0.00     0.161 A 
ATOM      8  C   UNL     1     -18.277 -42.063  25.021  1.00  0.00    -0.029 A 
ATOM      9  C   UNL     1     -19.205 -41.258  22.930  1.00  0.00     0.065 A 
ATOM     10  C   UNL     1     -18.156 -41.800  23.657  1.00  0.00     0.015 A 
ATOM     11  C   UNL     1     -17.071 -42.711  25.640  1.00  0.00     0.059 C 
ATOM     12  S   UNL     1     -16.560 -42.238  23.033  1.00  0.00    -0.114 SA
BRANCH   5  13
ATOM     13  O   UNL     1     -21.762 -40.939  25.523  1.00  0.00    -0.493 OA
ATOM     14  C   UNL     1     -21.841 -40.824  26.936  1.00  0.00     0.278 C 
ENDBRANCH   5  13
BRANCH   7  15
ATOM     15  O   UNL     1     -21.513 -40.436  22.972  1.00  0.00    -0.493 OA
ATOM     16  C   UNL     1     -21.316 -39.343  22.087  1.00  0.00     0.278 C 
ENDBRANCH   7  15
ENDBRANCH   2   4
ENDBRANCH   1   2
BRANCH   1  17
ATOM     17  C   UNL     1     -13.807 -45.151  26.389  1.00  0.00     0.044 C 
BRANCH  17  18
ATOM     18  C   UNL     1     -13.057 -45.347  27.686  1.00  0.00    -0.036 A 
ATOM     19  C   UNL     1     -13.508 -44.765  28.869  1.00  0.00     0.074 A 
ATOM     20  C   UNL     1     -11.940 -46.183  27.737  1.00  0.00     0.074 A 
ATOM     21  C   UNL     1     -12.860 -45.047  30.067  1.00  0.00     0.308 A 
ATOM     22  C   UNL     1     -11.329 -46.445  28.958  1.00  0.00     0.308 A 
ATOM     23  N   UNL     1     -11.797 -45.885  30.096  1.00  0.00    -0.201 N 
BRANCH  23  24
ATOM     24  C   UNL     1     -11.150 -46.201  31.392  1.00  0.00     0.394 C 
BRANCH  24  25
ATOM     25  C   UNL     1      -9.789 -45.577  31.473  1.00  0.00     0.027 A 
ATOM     26  C   UNL     1      -8.548 -46.257  31.223  1.00  0.00     0.022 A 
ATOM     27  C   UNL     1      -9.559 -44.249  31.793  1.00  0.00     0.075 A 
ATOM     28  C   UNL     1      -7.452 -45.436  31.377  1.00  0.00     0.065 A 
ATOM     29  S   UNL     1      -7.897 -43.848  31.813  1.00  0.00    -0.152 S 
ENDBRANCH  24  25
ENDBRANCH  23  24
ENDBRANCH  17  18
ENDBRANCH   1  17
TORSDOF 8
ENDMDL
MODEL 2
REMARK VINA RESULT:   -10.524      1.479      2.128
REMARK INTER + INTRA:         -16.161
REMARK INTER:                 -15.609
REMARK INTRA:                  -0.552
REMARK UNBOUND:                -0.715
REMARK SMILES COc1cc2c(cc1OC)S[C@H](C(=O)CCc1cc[n+](Cc3ccsc3)cc1)C2
REMARK SMILES IDX 15 1 13 2 14 3 12 4 3 5 4 6 8 7 5 8 7 9 6 10 29 11 11 12
REMARK SMILES IDX 2 13 1 14 9 15 10 16 16 17 17 18 18 19 28 20 19 21 27 22
REMARK SMILES IDX 20 23 21 24 22 25 23 26 26 27 24 28 25 29
REMARK H PARENT
ROOT
ATOM      1  C   UNL     1     -13.530 -44.768  26.653  1.00  0.00     0.081 C 
ENDROOT
BRANCH   1   2
ATOM      2  C   UNL     1     -13.411 -43.251  26.707  1.00  0.00     0.146 C 
ATOM      3  O   UNL     1     -12.394 -42.729  27.173  1.00  0.00    -0.298 OA
BRANCH   2   4
ATOM      4  C   UNL     1     -14.587 -42.434  26.195  1.00  0.00     0.123 C 
ATOM      5  C   UNL     1     -19.300 -42.173  25.255  1.00  0.00     0.161 A 
ATOM      6  C   UNL     1     -18.354 -42.319  26.278  1.00  0.00     0.055 A 
ATOM      7  C   UNL     1     -18.893 -42.223  23.899  1.00  0.00     0.161 A 
ATOM      8  C   UNL     1     -17.016 -42.500  25.944  1.00  0.00    -0.029 A 
ATOM      9  C   UNL     1     -17.545 -42.420  23.579  1.00  0.00     0.065 A 
ATOM     10  C   UNL     1     -16.625 -42.556  24.608  1.00  0.00     0.015 A 
ATOM     11  C   UNL     1     -15.905 -42.732  26.930  1.00  0.00     0.059 C 
ATOM     12  S   UNL     1     -14.884 -42.813  24.433  1.00  0.00    -0.114 SA
BRANCH   5  13
ATOM     13  O   UNL     1     -20.644 -41.988  25.468  1.00  0.00    -0.493 OA
ATOM     14  C   UNL     1     -21.047 -41.385  26.690  1.00  0.00     0.278 C 
ENDBRANCH   5  13
BRANCH   7  15
ATOM     15  O   UNL     1     -19.893 -42.077  22.969  1.00  0.00    -0.493 OA
ATOM     16  C   UNL     1     -19.690 -41.144  21.918  1.00  0.00     0.278 C 
ENDBRANCH   7  15
ENDBRANCH   2   4
ENDBRANCH   1   2
BRANCH   1  17
ATOM     17  C   UNL     1     -13.884 -45.395  28.003  1.00  0.00     0.044 C 
BRANCH  17  18
ATOM     18  C   UNL     1     -12.676 -45.818  28.805  1.00  0.00    -0.036 A 
ATOM     19  C   UNL     1     -11.451 -46.057  28.183  1.00  0.00     0.074 A 
ATOM     20  C   UNL     1     -12.745 -45.899  30.197  1.00  0.00     0.074 A 
ATOM     21  C   UNL     1     -10.330 -46.342  28.956  1.00  0.00     0.308 A 
ATOM     22  C   UNL     1     -11.597 -46.178  30.929  1.00  0.00     0.308 A 
ATOM     23  N   UNL     1     -10.415 -46.385  30.306  1.00  0.00    -0.201 N 
BRANCH  23  24
ATOM     24  C   UNL     1      -9.197 -46.650  31.108  1.00  0.00     0.394 C 
BRANCH  24  25
ATOM     25  C   UNL     1      -8.670 -45.382  31.710  1.00  0.00     0.027 A 
ATOM     26  C   UNL     1      -9.477 -44.300  32.204  1.00  0.00     0.022 A 
ATOM     27  C   UNL     1      -7.325 -45.096  31.874  1.00  0.00     0.075 A 
ATOM     28  C   UNL     1      -8.724 -43.257  32.696  1.00  0.00     0.065 A 
ATOM     29  S   UNL     1      -7.050 -43.564  32.580  1.00  0.00    -0.152 S 
ENDBRANCH  24  25
ENDBRANCH  23  24
ENDBRANCH  17  18
ENDBRANCH   1  17
TORSDOF 8
ENDMDL
MODEL 3
REMARK VINA RESULT:    -9.991      1.482      2.654
REMARK INTER + INTRA:         -15.378
REMARK INTER:                 -14.710
REMARK INTRA:                  -0.667
REMARK UNBOUND:                -0.715
REMARK SMILES COc1cc2c(cc1OC)S[C@H](C(=O)CCc1cc[n+](Cc3ccsc3)cc1)C2
REMARK SMILES IDX 15 1 13 2 14 3 12 4 3 5 4 6 8 7 5 8 7 9 6 10 29 11 11 12
REMARK SMILES IDX 2 13 1 14 9 15 10 16 16 17 17 18 18 19 28 20 19 21 27 22
REMARK SMILES IDX 20 23 21 24 22 25 23 26 26 27 24 28 25 29
REMARK H PARENT
ROOT
ATOM      1  C   UNL     1     -15.107 -43.235  25.776  1.00  0.00     0.081 C 
ENDROOT
BRANCH   1   2
ATOM      2  C   UNL     1     -15.259 -42.598  24.400  1.00  0.00     0.146 C 
ATOM      3  O   UNL     1     -14.294 -42.042  23.870  1.00  0.00    -0.298 OA
BRANCH   2   4
ATOM      4  C   UNL     1     -16.630 -42.659  23.744  1.00  0.00     0.123 C 
ATOM      5  C   UNL     1     -20.327 -40.314  21.745  1.00  0.00     0.161 A 
ATOM      6  C   UNL     1     -18.966 -40.614  21.605  1.00  0.00     0.055 A 
ATOM      7  C   UNL     1     -21.011 -40.656  22.938  1.00  0.00     0.161 A 
ATOM      8  C   UNL     1     -18.303 -41.260  22.644  1.00  0.00    -0.029 A 
ATOM      9  C   UNL     1     -20.327 -41.293  23.979  1.00  0.00     0.065 A 
ATOM     10  C   UNL     1     -18.982 -41.587  23.817  1.00  0.00     0.015 A 
ATOM     11  C   UNL     1     -16.836 -41.587  22.660  1.00  0.00     0.059 C 
ATOM     12  S   UNL     1     -17.929 -42.380  24.996  1.00  0.00    -0.114 SA
BRANCH   5  13
ATOM     13  O   UNL     1     -21.080 -39.682  20.786  1.00  0.00    -0.493 OA
ATOM     14  C   UNL     1     -20.465 -39.400  19.537  1.00  0.00     0.278 C 
ENDBRANCH   5  13
BRANCH   7  15
ATOM     15  O   UNL     1     -22.341 -40.315  22.983  1.00  0.00    -0.493 OA
ATOM     16  C   UNL     1     -23.290 -41.363  23.128  1.00  0.00     0.278 C 
ENDBRANCH   7  15
ENDBRANCH   2   4
ENDBRANCH   1   2
BRANCH   1  17
ATOM     17  C   UNL     1     -14.148 -44.427  25.786  1.00  0.00     0.044 C 
BRANCH  17  18
ATOM     18  C   UNL     1     -13.836 -44.935  27.174  1.00  0.00    -0.036 A 
ATOM     19  C   UNL     1     -12.866 -45.915  27.377  1.00  0.00     0.074 A 
ATOM     20  C   UNL     1     -14.458 -44.371  28.289  1.00  0.00     0.074 A 
ATOM     21  C   UNL     1     -12.524 -46.288  28.673  1.00  0.00     0.308 A 
ATOM     22  C   UNL     1     -14.079 -44.767  29.566  1.00  0.00     0.308 A 
ATOM     23  N   UNL     1     -13.120 -45.705  29.739  1.00  0.00    -0.201 N 
BRANCH  23  24
ATOM     24  C   UNL     1     -12.708 -46.092  31.110  1.00  0.00     0.394 C 
BRANCH  24  25
ATOM     25  C   UNL     1     -11.334 -45.576  31.417  1.00  0.00     0.027 A 
ATOM     26  C   UNL     1     -10.114 -46.320  31.261  1.00  0.00     0.022 A 
ATOM     27  C   UNL     1     -11.067 -44.300  31.886  1.00  0.00     0.075 A 
ATOM     28  C   UNL     1      -9.000 -45.596  31.626  1.00  0.00     0.065 A 
ATOM     29  S   UNL     1      -9.401 -44.023  32.149  1.00  0.00    -0.152 S 
ENDBRANCH  24  25
ENDBRANCH  23  24
ENDBRANCH  17  18
ENDBRANCH   1  17
TORSDOF 8
ENDMDL
MODEL 4
REMARK VINA RESULT:    -9.771      1.450      2.231
REMARK INTER + INTRA:         -15.055
REMARK INTER:                 -14.202
REMARK INTRA:                  -0.853
REMARK UNBOUND:                -0.715
REMARK SMILES COc1cc2c(cc1OC)S[C@H](C(=O)CCc1cc[n+](Cc3ccsc3)cc1)C2
REMARK SMILES IDX 15 1 13 2 14 3 12 4 3 5 4 6 8 7 5 8 7 9 6 10 29 11 11 12
REMARK SMILES IDX 2 13 1 14 9 15 10 16 16 17 17 18 18 19 28 20 19 21 27 22
REMARK SMILES IDX 20 23 21 24 22 25 23 26 26 27 24 28 25 29
REMARK H PARENT
ROOT
ATOM      1  C   UNL     1     -13.785 -43.917  25.749  1.00  0.00     0.081 C 
ENDROOT
BRANCH   1   2
ATOM      2  C   UNL     1     -14.756 -42.869  26.277  1.00  0.00     0.146 C 
ATOM      3  O   UNL     1     -14.325 -41.857  26.836  1.00  0.00    -0.298 OA
BRANCH   2   4
ATOM      4  C   UNL     1     -16.243 -43.138  26.107  1.00  0.00     0.123 C 
ATOM      5  C   UNL     1     -20.547 -41.585  24.613  1.00  0.00     0.161 A 
ATOM      6  C   UNL     1     -19.256 -41.928  24.190  1.00  0.00     0.055 A 
ATOM      7  C   UNL     1     -20.840 -41.489  25.996  1.00  0.00     0.161 A 
ATOM      8  C   UNL     1     -18.276 -42.185  25.144  1.00  0.00    -0.029 A 
ATOM      9  C   UNL     1     -19.839 -41.737  26.942  1.00  0.00     0.065 A 
ATOM     10  C   UNL     1     -18.570 -42.082  26.502  1.00  0.00     0.015 A 
ATOM     11  C   UNL     1     -16.839 -42.502  24.839  1.00  0.00     0.059 C 
ATOM     12  S   UNL     1     -17.165 -42.432  27.517  1.00  0.00    -0.114 SA
BRANCH   5  13
ATOM     13  O   UNL     1     -21.590 -41.313  23.762  1.00  0.00    -0.493 OA
ATOM     14  C   UNL     1     -21.914 -42.283  22.776  1.00  0.00     0.278 C 
ENDBRANCH   5  13
BRANCH   7  15
ATOM     15  O   UNL     1     -22.130 -41.140  26.311  1.00  0.00    -0.493 OA
ATOM     16  C   UNL     1     -22.969 -42.139  26.875  1.00  0.00     0.278 C 
ENDBRANCH   7  15
ENDBRANCH   2   4
ENDBRANCH   1   2
BRANCH   1  17
ATOM     17  C   UNL     1     -13.954 -45.285  26.413  1.00  0.00     0.044 C 
BRANCH  17  18
ATOM     18  C   UNL     1     -13.175 -45.428  27.700  1.00  0.00    -0.036 A 
ATOM     19  C   UNL     1     -13.668 -44.911  28.897  1.00  0.00     0.074 A 
ATOM     20  C   UNL     1     -11.984 -46.155  27.727  1.00  0.00     0.074 A 
ATOM     21  C   UNL     1     -12.983 -45.149  30.084  1.00  0.00     0.308 A 
ATOM     22  C   UNL     1     -11.338 -46.376  28.938  1.00  0.00     0.308 A 
ATOM     23  N   UNL     1     -11.846 -45.882  30.089  1.00  0.00    -0.201 N 
BRANCH  23  24
ATOM     24  C   UNL     1     -11.158 -46.156  31.374  1.00  0.00     0.394 C 
BRANCH  24  25
ATOM     25  C   UNL     1      -9.811 -45.497  31.407  1.00  0.00     0.027 A 
ATOM     26  C   UNL     1      -8.549 -46.184  31.371  1.00  0.00     0.022 A 
ATOM     27  C   UNL     1      -9.615 -44.127  31.468  1.00  0.00     0.075 A 
ATOM     28  C   UNL     1      -7.474 -45.324  31.421  1.00  0.00     0.065 A 
ATOM     29  S   UNL     1      -7.962 -43.692  31.503  1.00  0.00    -0.152 S 
ENDBRANCH  24  25
ENDBRANCH  23  24
ENDBRANCH  17  18
ENDBRANCH   1  17
TORSDOF 8
ENDMDL
MODEL 5
REMARK VINA RESULT:    -9.395      1.341      1.589
REMARK INTER + INTRA:         -14.504
REMARK INTER:                 -13.862
REMARK INTRA:                  -0.642
REMARK UNBOUND:                -0.715
REMARK SMILES COc1cc2c(cc1OC)S[C@H](C(=O)CCc1cc[n+](Cc3ccsc3)cc1)C2
REMARK SMILES IDX 15 1 13 2 14 3 12 4 3 5 4 6 8 7 5 8 7 9 6 10 29 11 11 12
REMARK SMILES IDX 2 13 1 14 9 15 10 16 16 17 17 18 18 19 28 20 19 21 27 22
REMARK SMILES IDX 20 23 21 24 22 25 23 26 26 27 24 28 25 29
REMARK H PARENT
ROOT
ATOM      1  C   UNL     1     -14.266 -44.084  26.146  1.00  0.00     0.081 C 
ENDROOT
BRANCH   1   2
ATOM      2  C   UNL     1     -14.934 -43.673  24.841  1.00  0.00     0.146 C 
ATOM      3  O   UNL     1     -14.599 -44.211  23.782  1.00  0.00    -0.298 OA
BRANCH   2   4
ATOM      4  C   UNL     1     -15.988 -42.579  24.904  1.00  0.00     0.123 C 
ATOM      5  C   UNL     1     -20.641 -41.377  25.185  1.00  0.00     0.161 A 
ATOM      6  C   UNL     1     -19.590 -42.008  25.863  1.00  0.00     0.055 A 
ATOM      7  C   UNL     1     -20.479 -40.985  23.832  1.00  0.00     0.161 A 
ATOM      8  C   UNL     1     -18.388 -42.229  25.197  1.00  0.00    -0.029 A 
ATOM      9  C   UNL     1     -19.270 -41.228  23.172  1.00  0.00     0.065 A 
ATOM     10  C   UNL     1     -18.241 -41.847  23.865  1.00  0.00     0.015 A 
ATOM     11  C   UNL     1     -17.201 -42.948  25.775  1.00  0.00     0.059 C 
ATOM     12  S   UNL     1     -16.640 -42.250  23.230  1.00  0.00    -0.114 SA
BRANCH   5  13
ATOM     13  O   UNL     1     -21.867 -41.107  25.742  1.00  0.00    -0.493 OA
ATOM     14  C   UNL     1     -21.894 -40.431  26.991  1.00  0.00     0.278 C 
ENDBRANCH   5  13
BRANCH   7  15
ATOM     15  O   UNL     1     -21.568 -40.380  23.252  1.00  0.00    -0.493 OA
ATOM     16  C   UNL     1     -22.260 -41.094  22.238  1.00  0.00     0.278 C 
ENDBRANCH   7  15
ENDBRANCH   2   4
ENDBRANCH   1   2
BRANCH   1  17
ATOM     17  C   UNL     1     -13.155 -43.127  26.583  1.00  0.00     0.044 C 
BRANCH  17  18
ATOM     18  C   UNL     1     -12.189 -43.738  27.571  1.00  0.00    -0.036 A 
ATOM     19  C   UNL     1     -11.086 -43.021  28.032  1.00  0.00     0.074 A 
ATOM     20  C   UNL     1     -12.431 -45.006  28.103  1.00  0.00     0.074 A 
ATOM     21  C   UNL     1     -10.273 -43.568  29.019  1.00  0.00     0.308 A 
ATOM     22  C   UNL     1     -11.597 -45.509  29.095  1.00  0.00     0.308 A 
ATOM     23  N   UNL     1     -10.545 -44.786  29.542  1.00  0.00    -0.201 N 
BRANCH  23  24
ATOM     24  C   UNL     1      -9.686 -45.328  30.623  1.00  0.00     0.394 C 
BRANCH  24  25
ATOM     25  C   UNL     1      -9.559 -44.341  31.744  1.00  0.00     0.027 A 
ATOM     26  C   UNL     1      -8.319 -43.842  32.275  1.00  0.00     0.022 A 
ATOM     27  C   UNL     1     -10.633 -43.774  32.410  1.00  0.00     0.075 A 
ATOM     28  C   UNL     1      -8.504 -42.950  33.308  1.00  0.00     0.065 A 
ATOM     29  S   UNL     1     -10.156 -42.695  33.647  1.00  0.00    -0.152 S 
ENDBRANCH  24  25
ENDBRANCH  23  24
ENDBRANCH  17  18
ENDBRANCH   1  17
TORSDOF 8
ENDMDL
MODEL 6
REMARK VINA RESULT:    -9.094      1.964      2.758
REMARK INTER + INTRA:         -14.062
REMARK INTER:                 -13.498
REMARK INTRA:                  -0.564
REMARK UNBOUND:                -0.715
REMARK SMILES COc1cc2c(cc1OC)S[C@H](C(=O)CCc1cc[n+](Cc3ccsc3)cc1)C2
REMARK SMILES IDX 15 1 13 2 14 3 12 4 3 5 4 6 8 7 5 8 7 9 6 10 29 11 11 12
REMARK SMILES IDX 2 13 1 14 9 15 10 16 16 17 17 18 18 19 28 20 19 21 27 22
REMARK SMILES IDX 20 23 21 24 22 25 23 26 26 27 24 28 25 29
REMARK H PARENT
ROOT
ATOM      1  C   UNL     1     -14.796 -42.815  26.549  1.00  0.00     0.081 C 
ENDROOT
BRANCH   1   2
ATOM      2  C   UNL     1     -16.225 -42.720  27.066  1.00  0.00     0.146 C 
ATOM      3  O   UNL     1     -16.433 -42.503  28.264  1.00  0.00    -0.298 OA
BRANCH   2   4
ATOM      4  C   UNL     1     -17.352 -42.926  26.066  1.00  0.00     0.123 C 
ATOM      5  C   UNL     1     -19.773 -41.321  22.228  1.00  0.00     0.161 A 
ATOM      6  C   UNL     1     -18.526 -41.778  22.672  1.00  0.00     0.055 A 
ATOM      7  C   UNL     1     -20.806 -41.056  23.162  1.00  0.00     0.161 A 
ATOM      8  C   UNL     1     -18.321 -41.980  24.034  1.00  0.00    -0.029 A 
ATOM      9  C   UNL     1     -20.580 -41.250  24.530  1.00  0.00     0.065 A 
ATOM     10  C   UNL     1     -19.340 -41.709  24.946  1.00  0.00     0.015 A 
ATOM     11  C   UNL     1     -17.022 -42.404  24.657  1.00  0.00     0.059 C 
ATOM     12  S   UNL     1     -18.840 -42.019  26.614  1.00  0.00    -0.114 SA
BRANCH   5  13
ATOM     13  O   UNL     1     -20.086 -41.090  20.911  1.00  0.00    -0.493 OA
ATOM     14  C   UNL     1     -19.598 -39.899  20.311  1.00  0.00     0.278 C 
ENDBRANCH   5  13
BRANCH   7  15
ATOM     15  O   UNL     1     -21.990 -40.606  22.632  1.00  0.00    -0.493 OA
ATOM     16  C   UNL     1     -22.888 -39.926  23.496  1.00  0.00     0.278 C 
ENDBRANCH   7  15
ENDBRANCH   2   4
ENDBRANCH   1   2
BRANCH   1  17
ATOM     17  C   UNL     1     -14.309 -44.255  26.380  1.00  0.00     0.044 C 
BRANCH  17  18
ATOM     18  C   UNL     1     -13.161 -44.613  27.295  1.00  0.00    -0.036 A 
ATOM     19  C   UNL     1     -12.178 -43.677  27.609  1.00  0.00     0.074 A 
ATOM     20  C   UNL     1     -13.110 -45.866  27.907  1.00  0.00     0.074 A 
ATOM     21  C   UNL     1     -11.192 -43.998  28.536  1.00  0.00     0.308 A 
ATOM     22  C   UNL     1     -12.112 -46.141  28.835  1.00  0.00     0.308 A 
ATOM     23  N   UNL     1     -11.180 -45.210  29.140  1.00  0.00    -0.201 N 
BRANCH  23  24
ATOM     24  C   UNL     1     -10.142 -45.512  30.155  1.00  0.00     0.394 C 
BRANCH  24  25
ATOM     25  C   UNL     1     -10.207 -44.533  31.288  1.00  0.00     0.027 A 
ATOM     26  C   UNL     1      -9.071 -43.994  31.985  1.00  0.00     0.022 A 
ATOM     27  C   UNL     1     -11.382 -44.014  31.805  1.00  0.00     0.075 A 
ATOM     28  C   UNL     1      -9.428 -43.120  32.988  1.00  0.00     0.065 A 
ATOM     29  S   UNL     1     -11.120 -42.931  33.101  1.00  0.00    -0.152 S 
ENDBRANCH  24  25
ENDBRANCH  23  24
ENDBRANCH  17  18
ENDBRANCH   1  17
TORSDOF 8
ENDMDL
MODEL 7
REMARK VINA RESULT:    -8.886      1.513      2.441
REMARK INTER + INTRA:         -13.756
REMARK INTER:                 -13.098
REMARK INTRA:                  -0.658
REMARK UNBOUND:                -0.715
REMARK SMILES COc1cc2c(cc1OC)S[C@H](C(=O)CCc1cc[n+](Cc3ccsc3)cc1)C2
REMARK SMILES IDX 15 1 13 2 14 3 12 4 3 5 4 6 8 7 5 8 7 9 6 10 29 11 11 12
REMARK SMILES IDX 2 13 1 14 9 15 10 16 16 17 17 18 18 19 28 20 19 21 27 22
REMARK SMILES IDX 20 23 21 24 22 25 23 26 26 27 24 28 25 29
REMARK H PARENT
ROOT
ATOM      1  C   UNL     1     -15.956 -43.268  25.634  1.00  0.00     0.081 C 
ENDROOT
BRANCH   1   2
ATOM      2  C   UNL     1     -16.295 -42.919  24.190  1.00  0.00     0.146 C 
ATOM      3  O   UNL     1     -15.783 -43.558  23.266  1.00  0.00    -0.298 OA
BRANCH   2   4
ATOM      4  C   UNL     1     -17.250 -41.760  23.951  1.00  0.00     0.123 C 
ATOM      5  C   UNL     1     -21.586 -40.251  22.506  1.00  0.00     0.161 A 
ATOM      6  C   UNL     1     -20.914 -41.013  23.470  1.00  0.00     0.055 A 
ATOM      7  C   UNL     1     -20.885 -39.755  21.378  1.00  0.00     0.161 A 
ATOM      8  C   UNL     1     -19.554 -41.263  23.312  1.00  0.00    -0.029 A 
ATOM      9  C   UNL     1     -19.521 -40.028  21.225  1.00  0.00     0.065 A 
ATOM     10  C   UNL     1     -18.875 -40.779  22.195  1.00  0.00     0.015 A 
ATOM     11  C   UNL     1     -18.721 -42.113  24.229  1.00  0.00     0.059 C 
ATOM     12  S   UNL     1     -17.168 -41.241  22.202  1.00  0.00    -0.114 SA
BRANCH   5  13
ATOM     13  O   UNL     1     -22.923 -39.941  22.561  1.00  0.00    -0.493 OA
ATOM     14  C   UNL     1     -23.857 -40.992  22.362  1.00  0.00     0.278 C 
ENDBRANCH   5  13
BRANCH   7  15
ATOM     15  O   UNL     1     -21.631 -39.025  20.485  1.00  0.00    -0.493 OA
ATOM     16  C   UNL     1     -20.938 -38.295  19.482  1.00  0.00     0.278 C 
ENDBRANCH   7  15
ENDBRANCH   2   4
ENDBRANCH   1   2
BRANCH   1  17
ATOM     17  C   UNL     1     -14.458 -43.477  25.868  1.00  0.00     0.044 C 
BRANCH  17  18
ATOM     18  C   UNL     1     -14.150 -44.253  27.127  1.00  0.00    -0.036 A 
ATOM     19  C   UNL     1     -13.201 -45.274  27.125  1.00  0.00     0.074 A 
ATOM     20  C   UNL     1     -14.753 -43.904  28.337  1.00  0.00     0.074 A 
ATOM     21  C   UNL     1     -12.860 -45.900  28.320  1.00  0.00     0.308 A 
ATOM     22  C   UNL     1     -14.375 -44.550  29.508  1.00  0.00     0.308 A 
ATOM     23  N   UNL     1     -13.437 -45.524  29.485  1.00  0.00    -0.201 N 
BRANCH  23  24
ATOM     24  C   UNL     1     -13.025 -46.179  30.750  1.00  0.00     0.394 C 
BRANCH  24  25
ATOM     25  C   UNL     1     -11.678 -45.688  31.189  1.00  0.00     0.027 A 
ATOM     26  C   UNL     1     -10.466 -46.460  31.167  1.00  0.00     0.022 A 
ATOM     27  C   UNL     1     -11.431 -44.412  31.667  1.00  0.00     0.075 A 
ATOM     28  C   UNL     1      -9.378 -45.755  31.634  1.00  0.00     0.065 A 
ATOM     29  S   UNL     1      -9.794 -44.167  32.095  1.00  0.00    -0.152 S 
ENDBRANCH  24  25
ENDBRANCH  23  24
ENDBRANCH  17  18
ENDBRANCH   1  17
TORSDOF 8
ENDMDL
MODEL 8
REMARK VINA RESULT:    -8.773      3.946     11.051
REMARK INTER + INTRA:         -13.591
REMARK INTER:                 -13.048
REMARK INTRA:                  -0.543
REMARK UNBOUND:                -0.715
REMARK SMILES COc1cc2c(cc1OC)S[C@H](C(=O)CCc1cc[n+](Cc3ccsc3)cc1)C2
REMARK SMILES IDX 15 1 13 2 14 3 12 4 3 5 4 6 8 7 5 8 7 9 6 10 29 11 11 12
REMARK SMILES IDX 2 13 1 14 9 15 10 16 16 17 17 18 18 19 28 20 19 21 27 22
REMARK SMILES IDX 20 23 21 24 22 25 23 26 26 27 24 28 25 29
REMARK H PARENT
ROOT
ATOM      1  C   UNL     1     -16.265 -42.675  24.909  1.00  0.00     0.081 C 
ENDROOT
BRANCH   1   2
ATOM      2  C   UNL     1     -14.962 -43.459  25.002  1.00  0.00     0.146 C 
ATOM      3  O   UNL     1     -14.449 -43.923  23.980  1.00  0.00    -0.298 OA
BRANCH   2   4
ATOM      4  C   UNL     1     -14.357 -43.658  26.383  1.00  0.00     0.123 C 
ATOM      5  C   UNL     1     -10.422 -43.823  29.150  1.00  0.00     0.161 A 
ATOM      6  C   UNL     1     -11.206 -42.989  28.343  1.00  0.00     0.055 A 
ATOM      7  C   UNL     1     -10.674 -45.218  29.187  1.00  0.00     0.161 A 
ATOM      8  C   UNL     1     -12.237 -43.545  27.592  1.00  0.00    -0.029 A 
ATOM      9  C   UNL     1     -11.705 -45.763  28.415  1.00  0.00     0.065 A 
ATOM     10  C   UNL     1     -12.473 -44.918  27.628  1.00  0.00     0.015 A 
ATOM     11  C   UNL     1     -13.115 -42.786  26.637  1.00  0.00     0.059 C 
ATOM     12  S   UNL     1     -13.816 -45.391  26.578  1.00  0.00    -0.114 SA
BRANCH   5  13
ATOM     13  O   UNL     1      -9.382 -43.384  29.933  1.00  0.00    -0.493 OA
ATOM     14  C   UNL     1      -8.243 -42.842  29.281  1.00  0.00     0.278 C 
ENDBRANCH   5  13
BRANCH   7  15
ATOM     15  O   UNL     1      -9.849 -45.952  30.002  1.00  0.00    -0.493 OA
ATOM     16  C   UNL     1     -10.366 -46.385  31.253  1.00  0.00     0.278 C 
ENDBRANCH   7  15
ENDBRANCH   2   4
ENDBRANCH   1   2
BRANCH   1  17
ATOM     17  C   UNL     1     -17.141 -42.810  26.157  1.00  0.00     0.044 C 
BRANCH  17  18
ATOM     18  C   UNL     1     -18.536 -42.261  25.973  1.00  0.00    -0.036 A 
ATOM     19  C   UNL     1     -19.278 -41.808  27.063  1.00  0.00     0.074 A 
ATOM     20  C   UNL     1     -19.078 -42.123  24.694  1.00  0.00     0.074 A 
ATOM     21  C   UNL     1     -20.516 -41.211  26.854  1.00  0.00     0.308 A 
ATOM     22  C   UNL     1     -20.315 -41.511  24.531  1.00  0.00     0.308 A 
ATOM     23  N   UNL     1     -21.007 -41.061  25.601  1.00  0.00    -0.201 N 
BRANCH  23  24
ATOM     24  C   UNL     1     -22.311 -40.384  25.403  1.00  0.00     0.394 C 
BRANCH  24  25
ATOM     25  C   UNL     1     -23.203 -40.589  26.591  1.00  0.00     0.027 A 
ATOM     26  C   UNL     1     -23.459 -39.614  27.615  1.00  0.00     0.022 A 
ATOM     27  C   UNL     1     -23.905 -41.755  26.846  1.00  0.00     0.075 A 
ATOM     28  C   UNL     1     -24.314 -40.079  28.590  1.00  0.00     0.065 A 
ATOM     29  S   UNL     1     -24.822 -41.679  28.287  1.00  0.00    -0.152 S 
ENDBRANCH  24  25
ENDBRANCH  23  24
ENDBRANCH  17  18
ENDBRANCH   1  17
TORSDOF 8
ENDMDL
MODEL 9
REMARK VINA RESULT:    -8.732      3.762     11.488
REMARK INTER + INTRA:         -13.530
REMARK INTER:                 -12.959
REMARK INTRA:                  -0.571
REMARK UNBOUND:                -0.715
REMARK SMILES COc1cc2c(cc1OC)S[C@H](C(=O)CCc1cc[n+](Cc3ccsc3)cc1)C2
REMARK SMILES IDX 15 1 13 2 14 3 12 4 3 5 4 6 8 7 5 8 7 9 6 10 29 11 11 12
REMARK SMILES IDX 2 13 1 14 9 15 10 16 16 17 17 18 18 19 28 20 19 21 27 22
REMARK SMILES IDX 20 23 21 24 22 25 23 26 26 27 24 28 25 29
REMARK H PARENT
ROOT
ATOM      1  C   UNL     1     -15.665 -42.756  24.808  1.00  0.00     0.081 C 
ENDROOT
BRANCH   1   2
ATOM      2  C   UNL     1     -14.775 -43.971  25.036  1.00  0.00     0.146 C 
ATOM      3  O   UNL     1     -14.582 -44.773  24.118  1.00  0.00    -0.298 OA
BRANCH   2   4
ATOM      4  C   UNL     1     -14.174 -44.154  26.421  1.00  0.00     0.123 C 
ATOM      5  C   UNL     1     -10.273 -44.101  29.239  1.00  0.00     0.161 A 
ATOM      6  C   UNL     1     -11.103 -43.308  28.436  1.00  0.00     0.055 A 
ATOM      7  C   UNL     1     -10.427 -45.510  29.245  1.00  0.00     0.161 A 
ATOM      8  C   UNL     1     -12.083 -43.919  27.661  1.00  0.00    -0.029 A 
ATOM      9  C   UNL     1     -11.408 -46.111  28.448  1.00  0.00     0.065 A 
ATOM     10  C   UNL     1     -12.223 -45.306  27.667  1.00  0.00     0.015 A 
ATOM     11  C   UNL     1     -13.000 -43.204  26.709  1.00  0.00     0.059 C 
ATOM     12  S   UNL     1     -13.517 -45.850  26.591  1.00  0.00    -0.114 SA
BRANCH   5  13
ATOM     13  O   UNL     1      -9.276 -43.607  30.044  1.00  0.00    -0.493 OA
ATOM     14  C   UNL     1      -8.247 -42.841  29.433  1.00  0.00     0.278 C 
ENDBRANCH   5  13
BRANCH   7  15
ATOM     15  O   UNL     1      -9.563 -46.202  30.058  1.00  0.00    -0.493 OA
ATOM     16  C   UNL     1     -10.005 -46.535  31.366  1.00  0.00     0.278 C 
ENDBRANCH   7  15
ENDBRANCH   2   4
ENDBRANCH   1   2
BRANCH   1  17
ATOM     17  C   UNL     1     -16.901 -42.735  25.709  1.00  0.00     0.044 C 
BRANCH  17  18
ATOM     18  C   UNL     1     -18.141 -42.219  25.017  1.00  0.00    -0.036 A 
ATOM     19  C   UNL     1     -18.289 -42.331  23.636  1.00  0.00     0.074 A 
ATOM     20  C   UNL     1     -19.198 -41.693  25.762  1.00  0.00     0.074 A 
ATOM     21  C   UNL     1     -19.484 -41.945  23.038  1.00  0.00     0.308 A 
ATOM     22  C   UNL     1     -20.377 -41.329  25.123  1.00  0.00     0.308 A 
ATOM     23  N   UNL     1     -20.506 -41.466  23.784  1.00  0.00    -0.201 N 
BRANCH  23  24
ATOM     24  C   UNL     1     -21.784 -41.100  23.126  1.00  0.00     0.394 C 
BRANCH  24  25
ATOM     25  C   UNL     1     -21.531 -40.297  21.885  1.00  0.00     0.027 A 
ATOM     26  C   UNL     1     -20.740 -39.099  21.817  1.00  0.00     0.022 A 
ATOM     27  C   UNL     1     -22.029 -40.620  20.633  1.00  0.00     0.075 A 
ATOM     28  C   UNL     1     -20.686 -38.569  20.547  1.00  0.00     0.065 A 
ATOM     29  S   UNL     1     -21.572 -39.500  19.426  1.00  0.00    -0.152 S 
ENDBRANCH  24  25
ENDBRANCH  23  24
ENDBRANCH  17  18
ENDBRANCH   1  17
TORSDOF 8
ENDMDL
