MODEL 1
REMARK VINA RESULT:   -10.248      0.000      0.000
REMARK INTER + INTRA:         -15.379
REMARK INTER:                 -14.142
REMARK INTRA:                  -1.236
REMARK UNBOUND:                -1.236
REMARK SMILES COc1cccc([C@@H]2C=C(c3cc(F)ccc3F)NN2c2ccc(S(N)(=O)=O)cc2)c1OC
REMARK SMILES IDX 21 1 22 2 23 3 24 4 29 5 30 6 20 7 19 8 10 9 9 10 8 11 11 13
REMARK SMILES IDX 12 14 17 15 13 16 16 17 15 18 18 19 14 20 7 21 6 22 31 23
REMARK SMILES IDX 5 24 3 25 4 26 32 27 33 28 2 29 1 30 25 31 27 32 28 33 26 34
REMARK H PARENT 19 12 26 35 26 36
ROOT
ATOM      1  C   UNL     1     -17.685 -42.420  25.107  1.00  0.00     0.058 A 
ATOM      2  C   UNL     1     -16.636 -42.955  24.341  1.00  0.00     0.029 A 
ATOM      3  C   UNL     1     -15.465 -43.442  24.934  1.00  0.00     0.024 A 
ATOM      4  C   UNL     1     -15.332 -43.406  26.321  1.00  0.00     0.082 A 
ATOM      5  C   UNL     1     -16.345 -42.871  27.112  1.00  0.00     0.024 A 
ATOM      6  C   UNL     1     -17.509 -42.389  26.504  1.00  0.00     0.029 A 
ENDROOT
BRANCH   1   7
ATOM      7  N   UNL     1     -18.859 -41.934  24.534  1.00  0.00    -0.276 N 
ATOM      8  N   UNL     1     -19.038 -41.625  23.198  1.00  0.00    -0.297 N 
ATOM      9  C   UNL     1     -20.270 -41.008  23.014  1.00  0.00     0.063 C 
ATOM     10  C   UNL     1     -20.947 -40.993  24.175  1.00  0.00     0.033 C 
ATOM     11  C   UNL     1     -20.112 -41.621  25.281  1.00  0.00     0.165 C 
ATOM     12  H   UNL     1     -18.280 -41.111  22.741  1.00  0.00     0.188 HD
BRANCH   9  13
ATOM     13  C   UNL     1     -20.675 -40.435  21.726  1.00  0.00     0.038 A 
ATOM     14  C   UNL     1     -21.331 -41.220  20.766  1.00  0.00     0.052 A 
ATOM     15  C   UNL     1     -20.404 -39.095  21.401  1.00  0.00     0.132 A 
ATOM     16  C   UNL     1     -21.701 -40.669  19.541  1.00  0.00     0.124 A 
ATOM     17  C   UNL     1     -20.776 -38.547  20.172  1.00  0.00     0.043 A 
ATOM     18  C   UNL     1     -21.431 -39.341  19.235  1.00  0.00     0.042 A 
ATOM     19  F   UNL     1     -19.784 -38.295  22.284  1.00  0.00    -0.206 F 
ATOM     20  F   UNL     1     -22.326 -41.436  18.638  1.00  0.00    -0.207 F 
ENDBRANCH   9  13
BRANCH  11  21
ATOM     21  C   UNL     1     -20.794 -42.845  25.868  1.00  0.00     0.026 A 
ATOM     22  C   UNL     1     -20.586 -44.126  25.316  1.00  0.00     0.010 A 
ATOM     23  C   UNL     1     -21.687 -42.718  26.947  1.00  0.00     0.166 A 
ATOM     24  C   UNL     1     -21.224 -45.250  25.840  1.00  0.00     0.004 A 
ATOM     25  C   UNL     1     -22.278 -43.862  27.504  1.00  0.00     0.161 A 
ATOM     26  C   UNL     1     -22.071 -45.119  26.937  1.00  0.00     0.050 A 
BRANCH  23  27
ATOM     27  O   UNL     1     -21.893 -41.454  27.447  1.00  0.00    -0.492 OA
ATOM     28  C   UNL     1     -23.175 -40.925  27.108  1.00  0.00     0.278 C 
ENDBRANCH  23  27
BRANCH  25  29
ATOM     29  O   UNL     1     -23.102 -43.797  28.600  1.00  0.00    -0.493 OA
ATOM     30  C   UNL     1     -23.664 -45.086  28.856  1.00  0.00     0.278 C 
ENDBRANCH  25  29
ENDBRANCH  11  21
ENDBRANCH   1   7
BRANCH   4  31
ATOM     31  S   UNL     1     -13.857 -44.016  27.087  1.00  0.00     0.238 S 
ATOM     32  O   UNL     1     -12.884 -42.950  27.127  1.00  0.00    -0.207 OA
ATOM     33  O   UNL     1     -13.560 -45.322  26.544  1.00  0.00    -0.207 OA
BRANCH  31  34
ATOM     34  N   UNL     1     -14.388 -44.294  28.662  1.00  0.00    -0.225 NA
ATOM     35  H   UNL     1     -15.245 -44.844  28.704  1.00  0.00     0.137 HD
ATOM     36  H   UNL     1     -13.630 -44.727  29.192  1.00  0.00     0.137 HD
ENDBRANCH  31  34
ENDBRANCH   4  31
TORSDOF 7
ENDMDL
MODEL 2
REMARK VINA RESULT:   -10.159      0.706      1.432
REMARK INTER + INTRA:         -15.255
REMARK INTER:                 -13.949
REMARK INTRA:                  -1.306
REMARK UNBOUND:                -1.236
REMARK SMILES COc1cccc([C@@H]2C=C(c3cc(F)ccc3F)NN2c2ccc(S(N)(=O)=O)cc2)c1OC
REMARK SMILES IDX 21 1 22 2 23 3 24 4 29 5 30 6 20 7 19 8 10 9 9 10 8 11 11 13
REMARK SMILES IDX 12 14 17 15 13 16 16 17 15 18 18 19 14 20 7 21 6 22 31 23
REMARK SMILES IDX 5 24 3 25 4 26 32 27 33 28 2 29 1 30 25 31 27 32 28 33 26 34
REMARK H PARENT 19 12 26 35 26 36
ROOT
ATOM      1  C   UNL     1     -17.578 -42.453  25.039  1.00  0.00     0.058 A 
ATOM      2  C   UNL     1     -16.520 -42.997  24.293  1.00  0.00     0.029 A 
ATOM      3  C   UNL     1     -15.359 -43.483  24.907  1.00  0.00     0.024 A 
ATOM      4  C   UNL     1     -15.246 -43.435  26.295  1.00  0.00     0.082 A 
ATOM      5  C   UNL     1     -16.269 -42.891  27.067  1.00  0.00     0.024 A 
ATOM      6  C   UNL     1     -17.422 -42.411  26.438  1.00  0.00     0.029 A 
ENDROOT
BRANCH   1   7
ATOM      7  N   UNL     1     -18.742 -41.968  24.445  1.00  0.00    -0.276 N 
ATOM      8  N   UNL     1     -18.905 -41.680  23.102  1.00  0.00    -0.297 N 
ATOM      9  C   UNL     1     -20.130 -41.058  22.894  1.00  0.00     0.063 C 
ATOM     10  C   UNL     1     -20.820 -41.018  24.047  1.00  0.00     0.033 C 
ATOM     11  C   UNL     1     -20.002 -41.634  25.173  1.00  0.00     0.165 C 
ATOM     12  H   UNL     1     -18.138 -41.179  22.646  1.00  0.00     0.188 HD
BRANCH   9  13
ATOM     13  C   UNL     1     -20.517 -40.503  21.593  1.00  0.00     0.038 A 
ATOM     14  C   UNL     1     -20.511 -39.118  21.373  1.00  0.00     0.052 A 
ATOM     15  C   UNL     1     -20.926 -41.331  20.534  1.00  0.00     0.132 A 
ATOM     16  C   UNL     1     -20.893 -38.600  20.137  1.00  0.00     0.124 A 
ATOM     17  C   UNL     1     -21.308 -40.809  19.297  1.00  0.00     0.043 A 
ATOM     18  C   UNL     1     -21.290 -39.432  19.097  1.00  0.00     0.042 A 
ATOM     19  F   UNL     1     -20.946 -42.666  20.686  1.00  0.00    -0.206 F 
ATOM     20  F   UNL     1     -20.879 -37.274  19.949  1.00  0.00    -0.207 F 
ENDBRANCH   9  13
BRANCH  11  21
ATOM     21  C   UNL     1     -20.698 -42.844  25.773  1.00  0.00     0.026 A 
ATOM     22  C   UNL     1     -20.565 -44.120  25.190  1.00  0.00     0.010 A 
ATOM     23  C   UNL     1     -21.533 -42.704  26.896  1.00  0.00     0.166 A 
ATOM     24  C   UNL     1     -21.217 -45.231  25.726  1.00  0.00     0.004 A 
ATOM     25  C   UNL     1     -22.138 -43.837  27.463  1.00  0.00     0.161 A 
ATOM     26  C   UNL     1     -22.005 -45.090  26.864  1.00  0.00     0.050 A 
BRANCH  23  27
ATOM     27  O   UNL     1     -21.668 -41.444  27.427  1.00  0.00    -0.492 OA
ATOM     28  C   UNL     1     -22.915 -40.832  27.096  1.00  0.00     0.278 C 
ENDBRANCH  23  27
BRANCH  25  29
ATOM     29  O   UNL     1     -22.905 -43.762  28.598  1.00  0.00    -0.493 OA
ATOM     30  C   UNL     1     -23.553 -45.015  28.823  1.00  0.00     0.278 C 
ENDBRANCH  25  29
ENDBRANCH  11  21
ENDBRANCH   1   7
BRANCH   4  31
ATOM     31  S   UNL     1     -13.784 -44.044  27.088  1.00  0.00     0.238 S 
ATOM     32  O   UNL     1     -12.810 -42.980  27.134  1.00  0.00    -0.207 OA
ATOM     33  O   UNL     1     -13.483 -45.354  26.559  1.00  0.00    -0.207 OA
BRANCH  31  34
ATOM     34  N   UNL     1     -14.340 -44.308  28.657  1.00  0.00    -0.225 NA
ATOM     35  H   UNL     1     -14.843 -43.511  29.042  1.00  0.00     0.137 HD
ATOM     36  H   UNL     1     -14.907 -45.158  28.665  1.00  0.00     0.137 HD
ENDBRANCH  31  34
ENDBRANCH   4  31
TORSDOF 7
ENDMDL
MODEL 3
REMARK VINA RESULT:    -9.121      4.511      7.413
REMARK INTER + INTRA:         -13.823
REMARK INTER:                 -12.228
REMARK INTRA:                  -1.595
REMARK UNBOUND:                -1.236
REMARK SMILES COc1cccc([C@@H]2C=C(c3cc(F)ccc3F)NN2c2ccc(S(N)(=O)=O)cc2)c1OC
REMARK SMILES IDX 21 1 22 2 23 3 24 4 29 5 30 6 20 7 19 8 10 9 9 10 8 11 11 13
REMARK SMILES IDX 12 14 17 15 13 16 16 17 15 18 18 19 14 20 7 21 6 22 31 23
REMARK SMILES IDX 5 24 3 25 4 26 32 27 33 28 2 29 1 30 25 31 27 32 28 33 26 34
REMARK H PARENT 19 12 26 35 26 36
ROOT
ATOM      1  C   UNL     1     -20.715 -40.760  22.395  1.00  0.00     0.058 A 
ATOM      2  C   UNL     1     -21.860 -41.182  21.699  1.00  0.00     0.029 A 
ATOM      3  C   UNL     1     -22.476 -40.373  20.737  1.00  0.00     0.024 A 
ATOM      4  C   UNL     1     -21.942 -39.118  20.451  1.00  0.00     0.082 A 
ATOM      5  C   UNL     1     -20.816 -38.661  21.131  1.00  0.00     0.024 A 
ATOM      6  C   UNL     1     -20.212 -39.482  22.088  1.00  0.00     0.029 A 
ENDROOT
BRANCH   1   7
ATOM      7  N   UNL     1     -20.086 -41.553  23.353  1.00  0.00    -0.276 N 
ATOM      8  N   UNL     1     -18.732 -41.558  23.637  1.00  0.00    -0.297 N 
ATOM      9  C   UNL     1     -18.435 -42.588  24.521  1.00  0.00     0.063 C 
ATOM     10  C   UNL     1     -19.571 -43.198  24.904  1.00  0.00     0.033 C 
ATOM     11  C   UNL     1     -20.768 -42.569  24.208  1.00  0.00     0.165 C 
ATOM     12  H   UNL     1     -18.096 -41.547  22.835  1.00  0.00     0.188 HD
BRANCH   9  13
ATOM     13  C   UNL     1     -17.059 -42.933  24.890  1.00  0.00     0.038 A 
ATOM     14  C   UNL     1     -16.191 -43.519  23.958  1.00  0.00     0.052 A 
ATOM     15  C   UNL     1     -16.569 -42.710  26.189  1.00  0.00     0.132 A 
ATOM     16  C   UNL     1     -14.889 -43.855  24.322  1.00  0.00     0.124 A 
ATOM     17  C   UNL     1     -15.263 -43.048  26.550  1.00  0.00     0.043 A 
ATOM     18  C   UNL     1     -14.416 -43.624  25.608  1.00  0.00     0.042 A 
ATOM     19  F   UNL     1     -17.353 -42.146  27.122  1.00  0.00    -0.206 F 
ATOM     20  F   UNL     1     -14.077 -44.414  23.415  1.00  0.00    -0.207 F 
ENDBRANCH   9  13
BRANCH  11  21
ATOM     21  C   UNL     1     -21.744 -41.970  25.206  1.00  0.00     0.026 A 
ATOM     22  C   UNL     1     -21.340 -40.951  26.093  1.00  0.00     0.010 A 
ATOM     23  C   UNL     1     -23.060 -42.455  25.299  1.00  0.00     0.166 A 
ATOM     24  C   UNL     1     -22.227 -40.410  27.024  1.00  0.00     0.004 A 
ATOM     25  C   UNL     1     -23.962 -41.864  26.198  1.00  0.00     0.161 A 
ATOM     26  C   UNL     1     -23.540 -40.867  27.077  1.00  0.00     0.050 A 
BRANCH  23  27
ATOM     27  O   UNL     1     -23.419 -43.468  24.442  1.00  0.00    -0.492 OA
ATOM     28  C   UNL     1     -23.316 -44.762  25.037  1.00  0.00     0.278 C 
ENDBRANCH  23  27
BRANCH  25  29
ATOM     29  O   UNL     1     -25.275 -42.256  26.277  1.00  0.00    -0.493 OA
ATOM     30  C   UNL     1     -25.498 -42.941  27.512  1.00  0.00     0.278 C 
ENDBRANCH  25  29
ENDBRANCH  11  21
ENDBRANCH   1   7
BRANCH   4  31
ATOM     31  S   UNL     1     -22.710 -38.081  19.239  1.00  0.00     0.238 S 
ATOM     32  O   UNL     1     -24.123 -38.010  19.524  1.00  0.00    -0.207 OA
ATOM     33  O   UNL     1     -22.195 -38.434  17.935  1.00  0.00    -0.207 OA
BRANCH  31  34
ATOM     34  N   UNL     1     -22.030 -36.583  19.600  1.00  0.00    -0.225 NA
ATOM     35  H   UNL     1     -21.989 -35.958  18.797  1.00  0.00     0.137 HD
ATOM     36  H   UNL     1     -22.544 -36.169  20.380  1.00  0.00     0.137 HD
ENDBRANCH  31  34
ENDBRANCH   4  31
TORSDOF 7
ENDMDL
MODEL 4
REMARK VINA RESULT:    -9.116      5.244      8.442
REMARK INTER + INTRA:         -13.817
REMARK INTER:                 -12.263
REMARK INTRA:                  -1.554
REMARK UNBOUND:                -1.236
REMARK SMILES COc1cccc([C@@H]2C=C(c3cc(F)ccc3F)NN2c2ccc(S(N)(=O)=O)cc2)c1OC
REMARK SMILES IDX 21 1 22 2 23 3 24 4 29 5 30 6 20 7 19 8 10 9 9 10 8 11 11 13
REMARK SMILES IDX 12 14 17 15 13 16 16 17 15 18 18 19 14 20 7 21 6 22 31 23
REMARK SMILES IDX 5 24 3 25 4 26 32 27 33 28 2 29 1 30 25 31 27 32 28 33 26 34
REMARK H PARENT 19 12 26 35 26 36
ROOT
ATOM      1  C   UNL     1     -21.359 -43.341  21.320  1.00  0.00     0.058 A 
ATOM      2  C   UNL     1     -21.248 -43.563  19.938  1.00  0.00     0.029 A 
ATOM      3  C   UNL     1     -22.160 -44.367  19.244  1.00  0.00     0.024 A 
ATOM      4  C   UNL     1     -23.213 -44.963  19.937  1.00  0.00     0.082 A 
ATOM      5  C   UNL     1     -23.348 -44.777  21.310  1.00  0.00     0.024 A 
ATOM      6  C   UNL     1     -22.429 -43.969  21.987  1.00  0.00     0.029 A 
ENDROOT
BRANCH   1   7
ATOM      7  N   UNL     1     -20.462 -42.541  22.025  1.00  0.00    -0.276 N 
ATOM      8  N   UNL     1     -19.182 -42.902  22.404  1.00  0.00    -0.297 N 
ATOM      9  C   UNL     1     -18.640 -41.929  23.235  1.00  0.00     0.063 C 
ATOM     10  C   UNL     1     -19.490 -40.891  23.333  1.00  0.00     0.033 C 
ATOM     11  C   UNL     1     -20.753 -41.167  22.531  1.00  0.00     0.165 C 
ATOM     12  H   UNL     1     -19.067 -43.843  22.790  1.00  0.00     0.188 HD
BRANCH   9  13
ATOM     13  C   UNL     1     -17.351 -42.105  23.912  1.00  0.00     0.038 A 
ATOM     14  C   UNL     1     -17.290 -42.620  25.215  1.00  0.00     0.052 A 
ATOM     15  C   UNL     1     -16.141 -41.745  23.294  1.00  0.00     0.132 A 
ATOM     16  C   UNL     1     -16.061 -42.771  25.855  1.00  0.00     0.124 A 
ATOM     17  C   UNL     1     -14.912 -41.899  23.938  1.00  0.00     0.043 A 
ATOM     18  C   UNL     1     -14.873 -42.417  25.229  1.00  0.00     0.042 A 
ATOM     19  F   UNL     1     -16.139 -41.252  22.044  1.00  0.00    -0.206 F 
ATOM     20  F   UNL     1     -16.026 -43.266  27.100  1.00  0.00    -0.207 F 
ENDBRANCH   9  13
BRANCH  11  21
ATOM     21  C   UNL     1     -20.950 -40.140  21.428  1.00  0.00     0.026 A 
ATOM     22  C   UNL     1     -19.986 -39.971  20.414  1.00  0.00     0.010 A 
ATOM     23  C   UNL     1     -22.078 -39.301  21.426  1.00  0.00     0.166 A 
ATOM     24  C   UNL     1     -20.153 -39.018  19.409  1.00  0.00     0.004 A 
ATOM     25  C   UNL     1     -22.267 -38.386  20.379  1.00  0.00     0.161 A 
ATOM     26  C   UNL     1     -21.296 -38.223  19.392  1.00  0.00     0.050 A 
BRANCH  23  27
ATOM     27  O   UNL     1     -22.988 -39.468  22.443  1.00  0.00    -0.492 OA
ATOM     28  C   UNL     1     -24.021 -40.398  22.116  1.00  0.00     0.278 C 
ENDBRANCH  23  27
BRANCH  25  29
ATOM     29  O   UNL     1     -23.385 -37.594  20.296  1.00  0.00    -0.493 OA
ATOM     30  C   UNL     1     -23.122 -36.481  19.438  1.00  0.00     0.278 C 
ENDBRANCH  25  29
ENDBRANCH  11  21
ENDBRANCH   1   7
BRANCH   4  31
ATOM     31  S   UNL     1     -24.375 -45.985  19.076  1.00  0.00     0.238 S 
ATOM     32  O   UNL     1     -25.164 -45.149  18.202  1.00  0.00    -0.207 OA
ATOM     33  O   UNL     1     -24.969 -46.905  20.019  1.00  0.00    -0.207 OA
BRANCH  31  34
ATOM     34  N   UNL     1     -23.353 -46.921  18.118  1.00  0.00    -0.225 NA
ATOM     35  H   UNL     1     -23.360 -47.908  18.371  1.00  0.00     0.137 HD
ATOM     36  H   UNL     1     -23.599 -46.775  17.137  1.00  0.00     0.137 HD
ENDBRANCH  31  34
ENDBRANCH   4  31
TORSDOF 7
ENDMDL
MODEL 5
REMARK VINA RESULT:    -8.850      3.292      6.183
REMARK INTER + INTRA:         -13.449
REMARK INTER:                 -12.274
REMARK INTRA:                  -1.175
REMARK UNBOUND:                -1.236
REMARK SMILES COc1cccc([C@@H]2C=C(c3cc(F)ccc3F)NN2c2ccc(S(N)(=O)=O)cc2)c1OC
REMARK SMILES IDX 21 1 22 2 23 3 24 4 29 5 30 6 20 7 19 8 10 9 9 10 8 11 11 13
REMARK SMILES IDX 12 14 17 15 13 16 16 17 15 18 18 19 14 20 7 21 6 22 31 23
REMARK SMILES IDX 5 24 3 25 4 26 32 27 33 28 2 29 1 30 25 31 27 32 28 33 26 34
REMARK H PARENT 19 12 26 35 26 36
ROOT
ATOM      1  C   UNL     1     -19.068 -42.033  25.407  1.00  0.00     0.058 A 
ATOM      2  C   UNL     1     -18.435 -42.332  24.189  1.00  0.00     0.029 A 
ATOM      3  C   UNL     1     -17.092 -42.722  24.133  1.00  0.00     0.024 A 
ATOM      4  C   UNL     1     -16.358 -42.825  25.314  1.00  0.00     0.082 A 
ATOM      5  C   UNL     1     -16.948 -42.523  26.538  1.00  0.00     0.024 A 
ATOM      6  C   UNL     1     -18.291 -42.136  26.576  1.00  0.00     0.029 A 
ENDROOT
BRANCH   1   7
ATOM      7  N   UNL     1     -20.405 -41.646  25.481  1.00  0.00    -0.276 N 
ATOM      8  N   UNL     1     -21.005 -41.011  26.554  1.00  0.00    -0.297 N 
ATOM      9  C   UNL     1     -22.377 -40.932  26.353  1.00  0.00     0.063 C 
ATOM     10  C   UNL     1     -22.685 -41.409  25.134  1.00  0.00     0.033 C 
ATOM     11  C   UNL     1     -21.430 -41.896  24.426  1.00  0.00     0.165 C 
ATOM     12  H   UNL     1     -20.773 -41.368  27.485  1.00  0.00     0.188 HD
BRANCH   9  13
ATOM     13  C   UNL     1     -23.294 -40.442  27.387  1.00  0.00     0.038 A 
ATOM     14  C   UNL     1     -23.482 -39.067  27.586  1.00  0.00     0.052 A 
ATOM     15  C   UNL     1     -23.996 -41.325  28.225  1.00  0.00     0.132 A 
ATOM     16  C   UNL     1     -24.346 -38.611  28.579  1.00  0.00     0.124 A 
ATOM     17  C   UNL     1     -24.861 -40.865  29.219  1.00  0.00     0.043 A 
ATOM     18  C   UNL     1     -25.038 -39.496  29.397  1.00  0.00     0.042 A 
ATOM     19  F   UNL     1     -23.860 -42.653  28.076  1.00  0.00    -0.206 F 
ATOM     20  F   UNL     1     -24.511 -37.292  28.752  1.00  0.00    -0.207 F 
ENDBRANCH   9  13
BRANCH  11  21
ATOM     21  C   UNL     1     -21.181 -41.127  23.139  1.00  0.00     0.026 A 
ATOM     22  C   UNL     1     -20.658 -39.818  23.167  1.00  0.00     0.010 A 
ATOM     23  C   UNL     1     -21.514 -41.688  21.894  1.00  0.00     0.166 A 
ATOM     24  C   UNL     1     -20.444 -39.100  21.990  1.00  0.00     0.004 A 
ATOM     25  C   UNL     1     -21.241 -40.982  20.712  1.00  0.00     0.161 A 
ATOM     26  C   UNL     1     -20.736 -39.683  20.760  1.00  0.00     0.050 A 
BRANCH  23  27
ATOM     27  O   UNL     1     -22.049 -42.954  21.898  1.00  0.00    -0.492 OA
ATOM     28  C   UNL     1     -23.466 -42.960  21.724  1.00  0.00     0.278 C 
ENDBRANCH  23  27
BRANCH  25  29
ATOM     29  O   UNL     1     -21.484 -41.516  19.472  1.00  0.00    -0.493 OA
ATOM     30  C   UNL     1     -22.543 -40.795  18.838  1.00  0.00     0.278 C 
ENDBRANCH  25  29
ENDBRANCH  11  21
ENDBRANCH   1   7
BRANCH   4  31
ATOM     31  S   UNL     1     -14.657 -43.315  25.261  1.00  0.00     0.238 S 
ATOM     32  O   UNL     1     -14.058 -42.768  24.068  1.00  0.00    -0.207 OA
ATOM     33  O   UNL     1     -14.568 -44.715  25.606  1.00  0.00    -0.207 OA
BRANCH  31  34
ATOM     34  N   UNL     1     -14.029 -42.485  26.586  1.00  0.00    -0.225 NA
ATOM     35  H   UNL     1     -14.732 -41.946  27.091  1.00  0.00     0.137 HD
ATOM     36  H   UNL     1     -13.550 -43.152  27.194  1.00  0.00     0.137 HD
ENDBRANCH  31  34
ENDBRANCH   4  31
TORSDOF 7
ENDMDL
MODEL 6
REMARK VINA RESULT:    -8.813      5.196      8.518
REMARK INTER + INTRA:         -13.398
REMARK INTER:                 -11.902
REMARK INTRA:                  -1.497
REMARK UNBOUND:                -1.236
REMARK SMILES COc1cccc([C@@H]2C=C(c3cc(F)ccc3F)NN2c2ccc(S(N)(=O)=O)cc2)c1OC
REMARK SMILES IDX 21 1 22 2 23 3 24 4 29 5 30 6 20 7 19 8 10 9 9 10 8 11 11 13
REMARK SMILES IDX 12 14 17 15 13 16 16 17 15 18 18 19 14 20 7 21 6 22 31 23
REMARK SMILES IDX 5 24 3 25 4 26 32 27 33 28 2 29 1 30 25 31 27 32 28 33 26 34
REMARK H PARENT 19 12 26 35 26 36
ROOT
ATOM      1  C   UNL     1     -21.806 -43.515  22.008  1.00  0.00     0.058 A 
ATOM      2  C   UNL     1     -22.846 -44.323  22.495  1.00  0.00     0.029 A 
ATOM      3  C   UNL     1     -23.607 -45.137  21.647  1.00  0.00     0.024 A 
ATOM      4  C   UNL     1     -23.326 -45.156  20.282  1.00  0.00     0.082 A 
ATOM      5  C   UNL     1     -22.311 -44.358  19.761  1.00  0.00     0.024 A 
ATOM      6  C   UNL     1     -21.560 -43.552  20.622  1.00  0.00     0.029 A 
ENDROOT
BRANCH   1   7
ATOM      7  N   UNL     1     -21.036 -42.702  22.838  1.00  0.00    -0.276 N 
ATOM      8  N   UNL     1     -19.959 -43.115  23.601  1.00  0.00    -0.297 N 
ATOM      9  C   UNL     1     -19.541 -42.082  24.431  1.00  0.00     0.063 C 
ATOM     10  C   UNL     1     -20.249 -40.971  24.165  1.00  0.00     0.033 C 
ATOM     11  C   UNL     1     -21.277 -41.249  23.079  1.00  0.00     0.165 C 
ATOM     12  H   UNL     1     -20.070 -43.996  24.111  1.00  0.00     0.188 HD
BRANCH   9  13
ATOM     13  C   UNL     1     -18.512 -42.270  25.459  1.00  0.00     0.038 A 
ATOM     14  C   UNL     1     -17.211 -42.660  25.109  1.00  0.00     0.052 A 
ATOM     15  C   UNL     1     -18.795 -42.090  26.824  1.00  0.00     0.132 A 
ATOM     16  C   UNL     1     -16.243 -42.848  26.095  1.00  0.00     0.124 A 
ATOM     17  C   UNL     1     -17.824 -42.279  27.808  1.00  0.00     0.043 A 
ATOM     18  C   UNL     1     -16.537 -42.660  27.440  1.00  0.00     0.042 A 
ATOM     19  F   UNL     1     -20.023 -41.711  27.217  1.00  0.00    -0.206 F 
ATOM     20  F   UNL     1     -15.007 -43.220  25.738  1.00  0.00    -0.207 F 
ENDBRANCH   9  13
BRANCH  11  21
ATOM     21  C   UNL     1     -21.044 -40.382  21.853  1.00  0.00     0.026 A 
ATOM     22  C   UNL     1     -19.750 -40.217  21.317  1.00  0.00     0.010 A 
ATOM     23  C   UNL     1     -22.109 -39.683  21.258  1.00  0.00     0.166 A 
ATOM     24  C   UNL     1     -19.527 -39.407  20.203  1.00  0.00     0.004 A 
ATOM     25  C   UNL     1     -21.885 -38.918  20.103  1.00  0.00     0.161 A 
ATOM     26  C   UNL     1     -20.596 -38.756  19.595  1.00  0.00     0.050 A 
BRANCH  23  27
ATOM     27  O   UNL     1     -23.354 -39.839  21.818  1.00  0.00    -0.492 OA
ATOM     28  C   UNL     1     -24.148 -40.817  21.145  1.00  0.00     0.278 C 
ENDBRANCH  23  27
BRANCH  25  29
ATOM     29  O   UNL     1     -22.904 -38.275  19.446  1.00  0.00    -0.493 OA
ATOM     30  C   UNL     1     -22.430 -37.781  18.191  1.00  0.00     0.278 C 
ENDBRANCH  25  29
ENDBRANCH  11  21
ENDBRANCH   1   7
BRANCH   4  31
ATOM     31  S   UNL     1     -24.279 -46.178  19.194  1.00  0.00     0.238 S 
ATOM     32  O   UNL     1     -25.071 -45.325  18.339  1.00  0.00    -0.207 OA
ATOM     33  O   UNL     1     -24.852 -47.261  19.960  1.00  0.00    -0.207 OA
BRANCH  31  34
ATOM     34  N   UNL     1     -23.072 -46.882  18.253  1.00  0.00    -0.225 NA
ATOM     35  H   UNL     1     -22.504 -46.199  17.754  1.00  0.00     0.137 HD
ATOM     36  H   UNL     1     -22.504 -47.488  18.848  1.00  0.00     0.137 HD
ENDBRANCH  31  34
ENDBRANCH   4  31
TORSDOF 7
ENDMDL
MODEL 7
REMARK VINA RESULT:    -8.700      4.374      7.179
REMARK INTER + INTRA:         -13.243
REMARK INTER:                 -11.644
REMARK INTRA:                  -1.599
REMARK UNBOUND:                -1.236
REMARK SMILES COc1cccc([C@@H]2C=C(c3cc(F)ccc3F)NN2c2ccc(S(N)(=O)=O)cc2)c1OC
REMARK SMILES IDX 21 1 22 2 23 3 24 4 29 5 30 6 20 7 19 8 10 9 9 10 8 11 11 13
REMARK SMILES IDX 12 14 17 15 13 16 16 17 15 18 18 19 14 20 7 21 6 22 31 23
REMARK SMILES IDX 5 24 3 25 4 26 32 27 33 28 2 29 1 30 25 31 27 32 28 33 26 34
REMARK H PARENT 19 12 26 35 26 36
ROOT
ATOM      1  C   UNL     1     -22.082 -44.084  26.787  1.00  0.00     0.058 A 
ATOM      2  C   UNL     1     -23.018 -44.534  25.841  1.00  0.00     0.029 A 
ATOM      3  C   UNL     1     -24.064 -45.396  26.191  1.00  0.00     0.024 A 
ATOM      4  C   UNL     1     -24.191 -45.818  27.513  1.00  0.00     0.082 A 
ATOM      5  C   UNL     1     -23.275 -45.404  28.476  1.00  0.00     0.024 A 
ATOM      6  C   UNL     1     -22.237 -44.542  28.110  1.00  0.00     0.029 A 
ENDROOT
BRANCH   1   7
ATOM      7  N   UNL     1     -21.037 -43.223  26.457  1.00  0.00    -0.276 N 
ATOM      8  N   UNL     1     -19.855 -43.587  25.839  1.00  0.00    -0.297 N 
ATOM      9  C   UNL     1     -18.977 -42.510  25.820  1.00  0.00     0.063 C 
ATOM     10  C   UNL     1     -19.586 -41.420  26.319  1.00  0.00     0.033 C 
ATOM     11  C   UNL     1     -21.002 -41.762  26.758  1.00  0.00     0.165 C 
ATOM     12  H   UNL     1     -19.405 -44.442  26.179  1.00  0.00     0.188 HD
BRANCH   9  13
ATOM     13  C   UNL     1     -17.590 -42.636  25.361  1.00  0.00     0.038 A 
ATOM     14  C   UNL     1     -16.531 -42.677  26.279  1.00  0.00     0.052 A 
ATOM     15  C   UNL     1     -17.272 -42.698  23.993  1.00  0.00     0.132 A 
ATOM     16  C   UNL     1     -15.215 -42.785  25.832  1.00  0.00     0.124 A 
ATOM     17  C   UNL     1     -15.953 -42.806  23.549  1.00  0.00     0.043 A 
ATOM     18  C   UNL     1     -14.916 -42.850  24.476  1.00  0.00     0.042 A 
ATOM     19  F   UNL     1     -18.246 -42.669  23.069  1.00  0.00    -0.206 F 
ATOM     20  F   UNL     1     -14.219 -42.822  26.726  1.00  0.00    -0.207 F 
ENDBRANCH   9  13
BRANCH  11  21
ATOM     21  C   UNL     1     -22.035 -40.956  25.989  1.00  0.00     0.026 A 
ATOM     22  C   UNL     1     -21.875 -40.697  24.613  1.00  0.00     0.010 A 
ATOM     23  C   UNL     1     -23.149 -40.408  26.649  1.00  0.00     0.166 A 
ATOM     24  C   UNL     1     -22.812 -39.942  23.906  1.00  0.00     0.004 A 
ATOM     25  C   UNL     1     -24.116 -39.700  25.918  1.00  0.00     0.161 A 
ATOM     26  C   UNL     1     -23.935 -39.442  24.559  1.00  0.00     0.050 A 
BRANCH  23  27
ATOM     27  O   UNL     1     -23.266 -40.651  27.996  1.00  0.00    -0.492 OA
ATOM     28  C   UNL     1     -24.332 -41.548  28.309  1.00  0.00     0.278 C 
ENDBRANCH  23  27
BRANCH  25  29
ATOM     29  O   UNL     1     -25.255 -39.206  26.503  1.00  0.00    -0.493 OA
ATOM     30  C   UNL     1     -25.001 -37.897  27.019  1.00  0.00     0.278 C 
ENDBRANCH  25  29
ENDBRANCH  11  21
ENDBRANCH   1   7
BRANCH   4  31
ATOM     31  S   UNL     1     -25.507 -46.910  27.973  1.00  0.00     0.238 S 
ATOM     32  O   UNL     1     -25.420 -48.102  27.163  1.00  0.00    -0.207 OA
ATOM     33  O   UNL     1     -26.724 -46.141  28.099  1.00  0.00    -0.207 OA
BRANCH  31  34
ATOM     34  N   UNL     1     -25.068 -47.319  29.548  1.00  0.00    -0.225 NA
ATOM     35  H   UNL     1     -24.924 -48.319  29.676  1.00  0.00     0.137 HD
ATOM     36  H   UNL     1     -24.241 -46.777  29.808  1.00  0.00     0.137 HD
ENDBRANCH  31  34
ENDBRANCH   4  31
TORSDOF 7
ENDMDL
MODEL 8
REMARK VINA RESULT:    -8.646      3.245      6.078
REMARK INTER + INTRA:         -13.168
REMARK INTER:                 -11.994
REMARK INTRA:                  -1.174
REMARK UNBOUND:                -1.236
REMARK SMILES COc1cccc([C@@H]2C=C(c3cc(F)ccc3F)NN2c2ccc(S(N)(=O)=O)cc2)c1OC
REMARK SMILES IDX 21 1 22 2 23 3 24 4 29 5 30 6 20 7 19 8 10 9 9 10 8 11 11 13
REMARK SMILES IDX 12 14 17 15 13 16 16 17 15 18 18 19 14 20 7 21 6 22 31 23
REMARK SMILES IDX 5 24 3 25 4 26 32 27 33 28 2 29 1 30 25 31 27 32 28 33 26 34
REMARK H PARENT 19 12 26 35 26 36
ROOT
ATOM      1  C   UNL     1     -19.318 -42.032  26.452  1.00  0.00     0.058 A 
ATOM      2  C   UNL     1     -18.658 -42.107  27.690  1.00  0.00     0.029 A 
ATOM      3  C   UNL     1     -17.310 -42.473  27.786  1.00  0.00     0.024 A 
ATOM      4  C   UNL     1     -16.595 -42.767  26.626  1.00  0.00     0.082 A 
ATOM      5  C   UNL     1     -17.220 -42.717  25.382  1.00  0.00     0.024 A 
ATOM      6  C   UNL     1     -18.566 -42.348  25.304  1.00  0.00     0.029 A 
ENDROOT
BRANCH   1   7
ATOM      7  N   UNL     1     -20.657 -41.666  26.338  1.00  0.00    -0.276 N 
ATOM      8  N   UNL     1     -21.354 -40.862  27.223  1.00  0.00    -0.297 N 
ATOM      9  C   UNL     1     -22.703 -40.848  26.892  1.00  0.00     0.063 C 
ATOM     10  C   UNL     1     -22.898 -41.539  25.755  1.00  0.00     0.033 C 
ATOM     11  C   UNL     1     -21.582 -42.119  25.258  1.00  0.00     0.165 C 
ATOM     12  H   UNL     1     -21.206 -41.044  28.220  1.00  0.00     0.188 HD
BRANCH   9  13
ATOM     13  C   UNL     1     -23.712 -40.201  27.737  1.00  0.00     0.038 A 
ATOM     14  C   UNL     1     -24.317 -40.897  28.793  1.00  0.00     0.052 A 
ATOM     15  C   UNL     1     -24.122 -38.877  27.507  1.00  0.00     0.132 A 
ATOM     16  C   UNL     1     -25.283 -40.277  29.583  1.00  0.00     0.124 A 
ATOM     17  C   UNL     1     -25.091 -38.259  28.300  1.00  0.00     0.043 A 
ATOM     18  C   UNL     1     -25.675 -38.965  29.347  1.00  0.00     0.042 A 
ATOM     19  F   UNL     1     -23.573 -38.160  26.513  1.00  0.00    -0.206 F 
ATOM     20  F   UNL     1     -25.848 -40.960  30.587  1.00  0.00    -0.207 F 
ENDBRANCH   9  13
BRANCH  11  21
ATOM     21  C   UNL     1     -21.221 -41.585  23.883  1.00  0.00     0.026 A 
ATOM     22  C   UNL     1     -20.872 -40.231  23.698  1.00  0.00     0.010 A 
ATOM     23  C   UNL     1     -21.275 -42.422  22.754  1.00  0.00     0.166 A 
ATOM     24  C   UNL     1     -20.557 -39.732  22.434  1.00  0.00     0.004 A 
ATOM     25  C   UNL     1     -20.900 -41.925  21.496  1.00  0.00     0.161 A 
ATOM     26  C   UNL     1     -20.570 -40.580  21.331  1.00  0.00     0.050 A 
BRANCH  23  27
ATOM     27  O   UNL     1     -21.646 -43.729  22.958  1.00  0.00    -0.492 OA
ATOM     28  C   UNL     1     -23.010 -43.980  22.619  1.00  0.00     0.278 C 
ENDBRANCH  23  27
BRANCH  25  29
ATOM     29  O   UNL     1     -20.870 -42.720  20.378  1.00  0.00    -0.493 OA
ATOM     30  C   UNL     1     -21.573 -42.076  19.312  1.00  0.00     0.278 C 
ENDBRANCH  25  29
ENDBRANCH  11  21
ENDBRANCH   1   7
BRANCH   4  31
ATOM     31  S   UNL     1     -14.891 -43.235  26.728  1.00  0.00     0.238 S 
ATOM     32  O   UNL     1     -14.717 -44.091  27.877  1.00  0.00    -0.207 OA
ATOM     33  O   UNL     1     -14.075 -42.064  26.499  1.00  0.00    -0.207 OA
BRANCH  31  34
ATOM     34  N   UNL     1     -14.719 -44.180  25.344  1.00  0.00    -0.225 NA
ATOM     35  H   UNL     1     -15.417 -44.919  25.275  1.00  0.00     0.137 HD
ATOM     36  H   UNL     1     -14.728 -43.568  24.526  1.00  0.00     0.137 HD
ENDBRANCH  31  34
ENDBRANCH   4  31
TORSDOF 7
ENDMDL
MODEL 9
REMARK VINA RESULT:    -8.534      4.636      7.912
REMARK INTER + INTRA:         -13.013
REMARK INTER:                 -12.129
REMARK INTRA:                  -0.884
REMARK UNBOUND:                -1.236
REMARK SMILES COc1cccc([C@@H]2C=C(c3cc(F)ccc3F)NN2c2ccc(S(N)(=O)=O)cc2)c1OC
REMARK SMILES IDX 21 1 22 2 23 3 24 4 29 5 30 6 20 7 19 8 10 9 9 10 8 11 11 13
REMARK SMILES IDX 12 14 17 15 13 16 16 17 15 18 18 19 14 20 7 21 6 22 31 23
REMARK SMILES IDX 5 24 3 25 4 26 32 27 33 28 2 29 1 30 25 31 27 32 28 33 26 34
REMARK H PARENT 19 12 26 35 26 36
ROOT
ATOM      1  C   UNL     1     -21.318 -40.822  25.282  1.00  0.00     0.058 A 
ATOM      2  C   UNL     1     -21.491 -40.903  26.673  1.00  0.00     0.029 A 
ATOM      3  C   UNL     1     -22.653 -40.439  27.300  1.00  0.00     0.024 A 
ATOM      4  C   UNL     1     -23.675 -39.888  26.529  1.00  0.00     0.082 A 
ATOM      5  C   UNL     1     -23.534 -39.779  25.148  1.00  0.00     0.024 A 
ATOM      6  C   UNL     1     -22.366 -40.248  24.538  1.00  0.00     0.029 A 
ENDROOT
BRANCH   1   7
ATOM      7  N   UNL     1     -20.169 -41.282  24.641  1.00  0.00    -0.276 N 
ATOM      8  N   UNL     1     -19.181 -42.061  25.215  1.00  0.00    -0.297 N 
ATOM      9  C   UNL     1     -18.107 -42.187  24.341  1.00  0.00     0.063 C 
ATOM     10  C   UNL     1     -18.404 -41.595  23.171  1.00  0.00     0.033 C 
ATOM     11  C   UNL     1     -19.789 -40.969  23.232  1.00  0.00     0.165 C 
ATOM     12  H   UNL     1     -18.879 -41.797  26.157  1.00  0.00     0.188 HD
BRANCH   9  13
ATOM     13  C   UNL     1     -16.850 -42.834  24.731  1.00  0.00     0.038 A 
ATOM     14  C   UNL     1     -16.082 -43.534  23.790  1.00  0.00     0.052 A 
ATOM     15  C   UNL     1     -16.384 -42.795  26.056  1.00  0.00     0.132 A 
ATOM     16  C   UNL     1     -14.895 -44.156  24.173  1.00  0.00     0.124 A 
ATOM     17  C   UNL     1     -15.195 -43.419  26.436  1.00  0.00     0.043 A 
ATOM     18  C   UNL     1     -14.444 -44.105  25.486  1.00  0.00     0.042 A 
ATOM     19  F   UNL     1     -17.076 -42.133  26.999  1.00  0.00    -0.206 F 
ATOM     20  F   UNL     1     -14.177 -44.820  23.257  1.00  0.00    -0.207 F 
ENDBRANCH   9  13
BRANCH  11  21
ATOM     21  C   UNL     1     -20.723 -41.579  22.200  1.00  0.00     0.026 A 
ATOM     22  C   UNL     1     -21.163 -42.913  22.318  1.00  0.00     0.010 A 
ATOM     23  C   UNL     1     -21.128 -40.837  21.076  1.00  0.00     0.166 A 
ATOM     24  C   UNL     1     -22.006 -43.483  21.364  1.00  0.00     0.004 A 
ATOM     25  C   UNL     1     -22.023 -41.399  20.153  1.00  0.00     0.161 A 
ATOM     26  C   UNL     1     -22.437 -42.725  20.279  1.00  0.00     0.050 A 
BRANCH  23  27
ATOM     27  O   UNL     1     -20.662 -39.549  20.971  1.00  0.00    -0.492 OA
ATOM     28  C   UNL     1     -19.757 -39.373  19.880  1.00  0.00     0.278 C 
ENDBRANCH  23  27
BRANCH  25  29
ATOM     29  O   UNL     1     -22.502 -40.693  19.078  1.00  0.00    -0.493 OA
ATOM     30  C   UNL     1     -23.928 -40.779  19.043  1.00  0.00     0.278 C 
ENDBRANCH  25  29
ENDBRANCH  11  21
ENDBRANCH   1   7
BRANCH   4  31
ATOM     31  S   UNL     1     -25.152 -39.295  27.305  1.00  0.00     0.238 S 
ATOM     32  O   UNL     1     -24.967 -39.337  28.736  1.00  0.00    -0.207 OA
ATOM     33  O   UNL     1     -26.292 -39.892  26.648  1.00  0.00    -0.207 OA
BRANCH  31  34
ATOM     34  N   UNL     1     -25.154 -37.678  26.828  1.00  0.00    -0.225 NA
ATOM     35  H   UNL     1     -24.221 -37.272  26.787  1.00  0.00     0.137 HD
ATOM     36  H   UNL     1     -25.644 -37.601  25.935  1.00  0.00     0.137 HD
ENDBRANCH  31  34
ENDBRANCH   4  31
TORSDOF 7
ENDMDL
