MODEL 1
REMARK VINA RESULT:   -12.765      0.000      0.000
REMARK INTER + INTRA:         -17.121
REMARK INTER:                 -16.496
REMARK INTRA:                  -0.625
REMARK UNBOUND:                -0.625
REMARK SMILES O=c1cc2cc3o[nH]c(CC[C@H]4CC[N@H+](Cc5ccccc5)CC4)c3cc2[nH]1
REMARK SMILES IDX 11 1 10 2 9 3 8 4 7 5 6 6 25 7 5 8 26 9 4 10 27 11 3 12
REMARK SMILES IDX 28 13 2 14 1 17 12 18 24 19 13 20 23 21 14 22 15 23 16 25
REMARK SMILES IDX 17 26 18 27 22 28 19 29 21 30 20 31
REMARK H PARENT 8 15 28 16 15 24
ROOT
ATOM      1  C   UNL     1     -13.801 -45.357  26.588  1.00  0.00     0.010 C 
ENDROOT
BRANCH   1   2
ATOM      2  C   UNL     1     -13.838 -43.833  26.421  1.00  0.00     0.058 C 
BRANCH   2   3
ATOM      3  C   UNL     1     -14.849 -43.407  25.403  1.00  0.00     0.060 A 
ATOM      4  N   UNL     1     -14.575 -43.479  24.039  1.00  0.00    -0.226 N 
ATOM      5  O   UNL     1     -15.653 -42.948  23.284  1.00  0.00    -0.382 OA
ATOM      6  C   UNL     1     -16.611 -42.683  24.244  1.00  0.00     0.164 A 
ATOM      7  C   UNL     1     -16.101 -42.969  25.584  1.00  0.00     0.044 A 
ATOM      8  C   UNL     1     -17.852 -42.205  24.047  1.00  0.00     0.061 A 
ATOM      9  C   UNL     1     -16.892 -42.745  26.780  1.00  0.00     0.040 A 
ATOM     10  C   UNL     1     -18.652 -41.992  25.241  1.00  0.00     0.007 A 
ATOM     11  C   UNL     1     -18.129 -42.273  26.573  1.00  0.00     0.049 A 
ATOM     12  C   UNL     1     -19.907 -41.534  25.339  1.00  0.00     0.082 A 
ATOM     13  N   UNL     1     -19.108 -41.965  27.453  1.00  0.00    -0.322 N 
ATOM     14  C   UNL     1     -20.228 -41.509  26.789  1.00  0.00     0.249 A 
ATOM     15  H   UNL     1     -13.682 -43.077  23.764  1.00  0.00     0.208 HD
ATOM     16  H   UNL     1     -19.071 -42.048  28.457  1.00  0.00     0.170 HD
ATOM     17  O   UNL     1     -21.282 -41.149  27.276  1.00  0.00    -0.270 OA
ENDBRANCH   2   3
ENDBRANCH   1   2
BRANCH   1  18
ATOM     18  C   UNL     1     -13.092 -45.876  27.856  1.00  0.00     0.000 C 
ATOM     19  C   UNL     1     -11.569 -45.960  27.702  1.00  0.00     0.065 C 
ATOM     20  C   UNL     1     -13.446 -45.068  29.111  1.00  0.00     0.065 C 
ATOM     21  C   UNL     1     -10.915 -46.545  28.949  1.00  0.00     0.262 C 
ATOM     22  C   UNL     1     -12.788 -45.650  30.357  1.00  0.00     0.262 C 
ATOM     23  N   UNL     1     -11.291 -45.720  30.154  1.00  0.00    -0.331 N 
ATOM     24  H   UNL     1     -10.965 -44.759  29.994  1.00  0.00     0.348 HD
BRANCH  23  25
ATOM     25  C   UNL     1     -10.559 -46.198  31.395  1.00  0.00     0.299 C 
BRANCH  25  26
ATOM     26  C   UNL     1      -9.413 -45.305  31.783  1.00  0.00     0.006 A 
ATOM     27  C   UNL     1      -8.087 -45.731  31.613  1.00  0.00     0.009 A 
ATOM     28  C   UNL     1      -9.654 -44.038  32.339  1.00  0.00     0.009 A 
ATOM     29  C   UNL     1      -7.026 -44.911  32.000  1.00  0.00     0.001 A 
ATOM     30  C   UNL     1      -8.589 -43.222  32.724  1.00  0.00     0.001 A 
ATOM     31  C   UNL     1      -7.278 -43.659  32.556  1.00  0.00     0.000 A 
ENDBRANCH  25  26
ENDBRANCH  23  25
ENDBRANCH   1  18
TORSDOF 5
ENDMDL
MODEL 2
REMARK VINA RESULT:   -12.571      1.709      2.616
REMARK INTER + INTRA:         -16.870
REMARK INTER:                 -16.254
REMARK INTRA:                  -0.617
REMARK UNBOUND:                -0.625
REMARK SMILES O=c1cc2cc3o[nH]c(CC[C@H]4CC[N@H+](Cc5ccccc5)CC4)c3cc2[nH]1
REMARK SMILES IDX 11 1 10 2 9 3 8 4 7 5 6 6 25 7 5 8 26 9 4 10 27 11 3 12
REMARK SMILES IDX 28 13 2 14 1 17 12 18 24 19 13 20 23 21 14 22 15 23 16 25
REMARK SMILES IDX 17 26 18 27 22 28 19 29 21 30 20 31
REMARK H PARENT 8 15 28 16 15 24
ROOT
ATOM      1  C   UNL     1     -14.150 -44.671  26.573  1.00  0.00     0.010 C 
ENDROOT
BRANCH   1   2
ATOM      2  C   UNL     1     -14.348 -43.158  26.730  1.00  0.00     0.058 C 
BRANCH   2   3
ATOM      3  C   UNL     1     -15.789 -42.800  26.914  1.00  0.00     0.060 A 
ATOM      4  N   UNL     1     -16.309 -42.524  28.177  1.00  0.00    -0.226 N 
ATOM      5  O   UNL     1     -17.707 -42.290  28.102  1.00  0.00    -0.382 OA
ATOM      6  C   UNL     1     -17.959 -42.314  26.743  1.00  0.00     0.164 A 
ATOM      7  C   UNL     1     -16.748 -42.640  25.994  1.00  0.00     0.044 A 
ATOM      8  C   UNL     1     -19.136 -42.098  26.129  1.00  0.00     0.061 A 
ATOM      9  C   UNL     1     -16.741 -42.764  24.547  1.00  0.00     0.040 A 
ATOM     10  C   UNL     1     -19.129 -42.208  24.681  1.00  0.00     0.007 A 
ATOM     11  C   UNL     1     -17.916 -42.543  23.943  1.00  0.00     0.049 A 
ATOM     12  C   UNL     1     -20.145 -42.044  23.822  1.00  0.00     0.082 A 
ATOM     13  N   UNL     1     -18.248 -42.573  22.633  1.00  0.00    -0.322 N 
ATOM     14  C   UNL     1     -19.585 -42.279  22.467  1.00  0.00     0.249 A 
ATOM     15  H   UNL     1     -16.074 -43.210  28.891  1.00  0.00     0.208 HD
ATOM     16  H   UNL     1     -17.637 -42.770  21.856  1.00  0.00     0.170 HD
ATOM     17  O   UNL     1     -20.206 -42.221  21.424  1.00  0.00    -0.270 OA
ENDBRANCH   2   3
ENDBRANCH   1   2
BRANCH   1  18
ATOM     18  C   UNL     1     -13.432 -45.379  27.742  1.00  0.00     0.000 C 
ATOM     19  C   UNL     1     -11.905 -45.286  27.653  1.00  0.00     0.065 C 
ATOM     20  C   UNL     1     -13.906 -44.890  29.116  1.00  0.00     0.065 C 
ATOM     21  C   UNL     1     -11.234 -46.058  28.784  1.00  0.00     0.262 C 
ATOM     22  C   UNL     1     -13.232 -45.658  30.248  1.00  0.00     0.262 C 
ATOM     23  N   UNL     1     -11.730 -45.545  30.112  1.00  0.00    -0.331 N 
ATOM     24  H   UNL     1     -11.498 -44.546  30.172  1.00  0.00     0.348 HD
BRANCH  23  25
ATOM     25  C   UNL     1     -10.993 -46.205  31.264  1.00  0.00     0.299 C 
BRANCH  25  26
ATOM     26  C   UNL     1      -9.700 -45.517  31.606  1.00  0.00     0.006 A 
ATOM     27  C   UNL     1      -9.701 -44.218  32.137  1.00  0.00     0.009 A 
ATOM     28  C   UNL     1      -8.471 -46.158  31.382  1.00  0.00     0.009 A 
ATOM     29  C   UNL     1      -8.499 -43.572  32.427  1.00  0.00     0.001 A 
ATOM     30  C   UNL     1      -7.272 -45.508  31.675  1.00  0.00     0.001 A 
ATOM     31  C   UNL     1      -7.286 -44.216  32.195  1.00  0.00     0.000 A 
ENDBRANCH  25  26
ENDBRANCH  23  25
ENDBRANCH   1  18
TORSDOF 5
ENDMDL
MODEL 3
REMARK VINA RESULT:   -11.958      1.768      2.350
REMARK INTER + INTRA:         -16.078
REMARK INTER:                 -15.829
REMARK INTRA:                  -0.249
REMARK UNBOUND:                -0.625
REMARK SMILES O=c1cc2cc3o[nH]c(CC[C@H]4CC[N@H+](Cc5ccccc5)CC4)c3cc2[nH]1
REMARK SMILES IDX 11 1 10 2 9 3 8 4 7 5 6 6 25 7 5 8 26 9 4 10 27 11 3 12
REMARK SMILES IDX 28 13 2 14 1 17 12 18 24 19 13 20 23 21 14 22 15 23 16 25
REMARK SMILES IDX 17 26 18 27 22 28 19 29 21 30 20 31
REMARK H PARENT 8 15 28 16 15 24
ROOT
ATOM      1  C   UNL     1     -14.129 -44.564  26.363  1.00  0.00     0.010 C 
ENDROOT
BRANCH   1   2
ATOM      2  C   UNL     1     -15.264 -43.534  26.410  1.00  0.00     0.058 C 
BRANCH   2   3
ATOM      3  C   UNL     1     -15.388 -42.781  25.122  1.00  0.00     0.060 A 
ATOM      4  N   UNL     1     -14.261 -42.372  24.413  1.00  0.00    -0.226 N 
ATOM      5  O   UNL     1     -14.635 -41.611  23.275  1.00  0.00    -0.382 OA
ATOM      6  C   UNL     1     -16.014 -41.699  23.275  1.00  0.00     0.164 A 
ATOM      7  C   UNL     1     -16.490 -42.434  24.445  1.00  0.00     0.044 A 
ATOM      8  C   UNL     1     -16.863 -41.183  22.369  1.00  0.00     0.061 A 
ATOM      9  C   UNL     1     -17.902 -42.642  24.710  1.00  0.00     0.040 A 
ATOM     10  C   UNL     1     -18.277 -41.401  22.623  1.00  0.00     0.007 A 
ATOM     11  C   UNL     1     -18.741 -42.129  23.799  1.00  0.00     0.049 A 
ATOM     12  C   UNL     1     -19.331 -41.007  21.895  1.00  0.00     0.082 A 
ATOM     13  N   UNL     1     -20.091 -42.149  23.742  1.00  0.00    -0.322 N 
ATOM     14  C   UNL     1     -20.537 -41.490  22.615  1.00  0.00     0.249 A 
ATOM     15  H   UNL     1     -13.556 -41.898  24.974  1.00  0.00     0.208 HD
ATOM     16  H   UNL     1     -20.722 -42.576  24.403  1.00  0.00     0.170 HD
ATOM     17  O   UNL     1     -21.688 -41.323  22.261  1.00  0.00    -0.270 OA
ENDBRANCH   2   3
ENDBRANCH   1   2
BRANCH   1  18
ATOM     18  C   UNL     1     -13.349 -44.764  27.679  1.00  0.00     0.000 C 
ATOM     19  C   UNL     1     -14.239 -44.676  28.924  1.00  0.00     0.065 C 
ATOM     20  C   UNL     1     -12.546 -46.071  27.703  1.00  0.00     0.065 C 
ATOM     21  C   UNL     1     -13.420 -44.806  30.203  1.00  0.00     0.262 C 
ATOM     22  C   UNL     1     -11.731 -46.204  28.985  1.00  0.00     0.262 C 
ATOM     23  N   UNL     1     -12.649 -46.101  30.182  1.00  0.00    -0.331 N 
ATOM     24  H   UNL     1     -13.326 -46.871  30.108  1.00  0.00     0.348 HD
BRANCH  23  25
ATOM     25  C   UNL     1     -11.918 -46.325  31.494  1.00  0.00     0.299 C 
BRANCH  25  26
ATOM     26  C   UNL     1     -10.503 -45.818  31.474  1.00  0.00     0.006 A 
ATOM     27  C   UNL     1      -9.438 -46.684  31.178  1.00  0.00     0.009 A 
ATOM     28  C   UNL     1     -10.223 -44.474  31.769  1.00  0.00     0.009 A 
ATOM     29  C   UNL     1      -8.124 -46.217  31.187  1.00  0.00     0.001 A 
ATOM     30  C   UNL     1      -8.906 -44.012  31.776  1.00  0.00     0.001 A 
ATOM     31  C   UNL     1      -7.859 -44.883  31.488  1.00  0.00     0.000 A 
ENDBRANCH  25  26
ENDBRANCH  23  25
ENDBRANCH   1  18
TORSDOF 5
ENDMDL
MODEL 4
REMARK VINA RESULT:   -11.622      3.550      9.677
REMARK INTER + INTRA:         -15.644
REMARK INTER:                 -15.185
REMARK INTRA:                  -0.458
REMARK UNBOUND:                -0.625
REMARK SMILES O=c1cc2cc3o[nH]c(CC[C@H]4CC[N@H+](Cc5ccccc5)CC4)c3cc2[nH]1
REMARK SMILES IDX 11 1 10 2 9 3 8 4 7 5 6 6 25 7 5 8 26 9 4 10 27 11 3 12
REMARK SMILES IDX 28 13 2 14 1 17 12 18 24 19 13 20 23 21 14 22 15 23 16 25
REMARK SMILES IDX 17 26 18 27 22 28 19 29 21 30 20 31
REMARK H PARENT 8 15 28 16 15 24
ROOT
ATOM      1  C   UNL     1     -11.920 -46.220  29.068  1.00  0.00     0.010 C 
ENDROOT
BRANCH   1   2
ATOM      2  C   UNL     1     -12.930 -46.298  30.219  1.00  0.00     0.058 C 
BRANCH   2   3
ATOM      3  C   UNL     1     -12.778 -45.155  31.174  1.00  0.00     0.060 A 
ATOM      4  N   UNL     1     -13.889 -44.490  31.687  1.00  0.00    -0.226 N 
ATOM      5  O   UNL     1     -13.487 -43.400  32.503  1.00  0.00    -0.382 OA
ATOM      6  C   UNL     1     -12.112 -43.530  32.548  1.00  0.00     0.164 A 
ATOM      7  C   UNL     1     -11.664 -44.636  31.705  1.00  0.00     0.044 A 
ATOM      8  C   UNL     1     -11.244 -42.766  33.234  1.00  0.00     0.061 A 
ATOM      9  C   UNL     1     -10.260 -44.971  31.544  1.00  0.00     0.040 A 
ATOM     10  C   UNL     1      -9.839 -43.106  33.086  1.00  0.00     0.007 A 
ATOM     11  C   UNL     1      -9.403 -44.207  32.235  1.00  0.00     0.049 A 
ATOM     12  C   UNL     1      -8.771 -42.524  33.649  1.00  0.00     0.082 A 
ATOM     13  N   UNL     1      -8.054 -44.253  32.311  1.00  0.00    -0.322 N 
ATOM     14  C   UNL     1      -7.584 -43.265  33.151  1.00  0.00     0.249 A 
ATOM     15  H   UNL     1     -14.576 -44.212  30.990  1.00  0.00     0.208 HD
ATOM     16  H   UNL     1      -7.440 -44.902  31.843  1.00  0.00     0.170 HD
ATOM     17  O   UNL     1      -6.428 -43.028  33.440  1.00  0.00    -0.270 OA
ENDBRANCH   2   3
ENDBRANCH   1   2
BRANCH   1  18
ATOM     18  C   UNL     1     -12.314 -45.304  27.890  1.00  0.00     0.000 C 
ATOM     19  C   UNL     1     -13.791 -45.431  27.498  1.00  0.00     0.065 C 
ATOM     20  C   UNL     1     -11.963 -43.831  28.136  1.00  0.00     0.065 C 
ATOM     21  C   UNL     1     -14.120 -44.566  26.286  1.00  0.00     0.262 C 
ATOM     22  C   UNL     1     -12.298 -42.966  26.926  1.00  0.00     0.262 C 
ATOM     23  N   UNL     1     -13.759 -43.131  26.573  1.00  0.00    -0.331 N 
ATOM     24  H   UNL     1     -14.301 -42.826  27.392  1.00  0.00     0.348 HD
BRANCH  23  25
ATOM     25  C   UNL     1     -14.188 -42.220  25.437  1.00  0.00     0.299 C 
BRANCH  25  26
ATOM     26  C   UNL     1     -15.621 -42.421  25.030  1.00  0.00     0.006 A 
ATOM     27  C   UNL     1     -16.639 -42.463  25.996  1.00  0.00     0.009 A 
ATOM     28  C   UNL     1     -15.961 -42.589  23.677  1.00  0.00     0.009 A 
ATOM     29  C   UNL     1     -17.964 -42.677  25.617  1.00  0.00     0.001 A 
ATOM     30  C   UNL     1     -17.288 -42.803  23.305  1.00  0.00     0.001 A 
ATOM     31  C   UNL     1     -18.288 -42.849  24.273  1.00  0.00     0.000 A 
ENDBRANCH  25  26
ENDBRANCH  23  25
ENDBRANCH   1  18
TORSDOF 5
ENDMDL
MODEL 5
REMARK VINA RESULT:   -11.222      1.460      2.051
REMARK INTER + INTRA:         -15.128
REMARK INTER:                 -14.560
REMARK INTRA:                  -0.568
REMARK UNBOUND:                -0.625
REMARK SMILES O=c1cc2cc3o[nH]c(CC[C@H]4CC[N@H+](Cc5ccccc5)CC4)c3cc2[nH]1
REMARK SMILES IDX 11 1 10 2 9 3 8 4 7 5 6 6 25 7 5 8 26 9 4 10 27 11 3 12
REMARK SMILES IDX 28 13 2 14 1 17 12 18 24 19 13 20 23 21 14 22 15 23 16 25
REMARK SMILES IDX 17 26 18 27 22 28 19 29 21 30 20 31
REMARK H PARENT 8 15 28 16 15 24
ROOT
ATOM      1  C   UNL     1     -14.411 -44.362  26.045  1.00  0.00     0.010 C 
ENDROOT
BRANCH   1   2
ATOM      2  C   UNL     1     -15.316 -43.195  26.463  1.00  0.00     0.058 C 
BRANCH   2   3
ATOM      3  C   UNL     1     -16.335 -42.876  25.415  1.00  0.00     0.060 A 
ATOM      4  N   UNL     1     -16.070 -43.083  24.063  1.00  0.00    -0.226 N 
ATOM      5  O   UNL     1     -17.155 -42.632  23.266  1.00  0.00    -0.382 OA
ATOM      6  C   UNL     1     -18.107 -42.276  24.202  1.00  0.00     0.164 A 
ATOM      7  C   UNL     1     -17.587 -42.426  25.559  1.00  0.00     0.044 A 
ATOM      8  C   UNL     1     -19.351 -41.824  23.966  1.00  0.00     0.061 A 
ATOM      9  C   UNL     1     -18.372 -42.086  26.733  1.00  0.00     0.040 A 
ATOM     10  C   UNL     1     -20.144 -41.496  25.138  1.00  0.00     0.007 A 
ATOM     11  C   UNL     1     -19.612 -41.641  26.488  1.00  0.00     0.049 A 
ATOM     12  C   UNL     1     -21.400 -41.033  25.199  1.00  0.00     0.082 A 
ATOM     13  N   UNL     1     -20.586 -41.250  27.340  1.00  0.00    -0.322 N 
ATOM     14  C   UNL     1     -21.712 -40.865  26.642  1.00  0.00     0.249 A 
ATOM     15  H   UNL     1     -15.180 -42.707  23.743  1.00  0.00     0.208 HD
ATOM     16  H   UNL     1     -20.542 -41.232  28.347  1.00  0.00     0.170 HD
ATOM     17  O   UNL     1     -22.763 -40.461  27.097  1.00  0.00    -0.270 OA
ENDBRANCH   2   3
ENDBRANCH   1   2
BRANCH   1  18
ATOM     18  C   UNL     1     -13.109 -44.526  26.856  1.00  0.00     0.000 C 
ATOM     19  C   UNL     1     -12.517 -43.189  27.319  1.00  0.00     0.065 C 
ATOM     20  C   UNL     1     -13.268 -45.470  28.054  1.00  0.00     0.065 C 
ATOM     21  C   UNL     1     -11.196 -43.391  28.052  1.00  0.00     0.262 C 
ATOM     22  C   UNL     1     -11.948 -45.667  28.791  1.00  0.00     0.262 C 
ATOM     23  N   UNL     1     -11.400 -44.324  29.219  1.00  0.00    -0.331 N 
ATOM     24  H   UNL     1     -12.097 -43.901  29.844  1.00  0.00     0.348 HD
BRANCH  23  25
ATOM     25  C   UNL     1     -10.134 -44.451  30.047  1.00  0.00     0.299 C 
BRANCH  25  26
ATOM     26  C   UNL     1     -10.216 -43.728  31.363  1.00  0.00     0.006 A 
ATOM     27  C   UNL     1      -9.064 -43.520  32.136  1.00  0.00     0.009 A 
ATOM     28  C   UNL     1     -11.452 -43.267  31.846  1.00  0.00     0.009 A 
ATOM     29  C   UNL     1      -9.148 -42.874  33.370  1.00  0.00     0.001 A 
ATOM     30  C   UNL     1     -11.530 -42.620  33.080  1.00  0.00     0.001 A 
ATOM     31  C   UNL     1     -10.380 -42.426  33.841  1.00  0.00     0.000 A 
ENDBRANCH  25  26
ENDBRANCH  23  25
ENDBRANCH   1  18
TORSDOF 5
ENDMDL
MODEL 6
REMARK VINA RESULT:   -11.115      3.661     10.895
REMARK INTER + INTRA:         -14.989
REMARK INTER:                 -14.396
REMARK INTRA:                  -0.593
REMARK UNBOUND:                -0.625
REMARK SMILES O=c1cc2cc3o[nH]c(CC[C@H]4CC[N@H+](Cc5ccccc5)CC4)c3cc2[nH]1
REMARK SMILES IDX 11 1 10 2 9 3 8 4 7 5 6 6 25 7 5 8 26 9 4 10 27 11 3 12
REMARK SMILES IDX 28 13 2 14 1 17 12 18 24 19 13 20 23 21 14 22 15 23 16 25
REMARK SMILES IDX 17 26 18 27 22 28 19 29 21 30 20 31
REMARK H PARENT 8 15 28 16 15 24
ROOT
ATOM      1  C   UNL     1     -15.451 -42.723  26.640  1.00  0.00     0.010 C 
ENDROOT
BRANCH   1   2
ATOM      2  C   UNL     1     -13.980 -42.834  26.222  1.00  0.00     0.058 C 
BRANCH   2   3
ATOM      3  C   UNL     1     -13.295 -43.986  26.890  1.00  0.00     0.060 A 
ATOM      4  N   UNL     1     -13.760 -45.290  26.735  1.00  0.00    -0.226 N 
ATOM      5  O   UNL     1     -12.997 -46.189  27.525  1.00  0.00    -0.382 OA
ATOM      6  C   UNL     1     -11.999 -45.386  28.043  1.00  0.00     0.164 A 
ATOM      7  C   UNL     1     -12.190 -43.993  27.645  1.00  0.00     0.044 A 
ATOM      8  C   UNL     1     -10.976 -45.764  28.829  1.00  0.00     0.061 A 
ATOM      9  C   UNL     1     -11.300 -42.932  28.082  1.00  0.00     0.040 A 
ATOM     10  C   UNL     1     -10.076 -44.707  29.257  1.00  0.00     0.007 A 
ATOM     11  C   UNL     1     -10.281 -43.319  28.861  1.00  0.00     0.049 A 
ATOM     12  C   UNL     1      -8.985 -44.796  30.031  1.00  0.00     0.082 A 
ATOM     13  N   UNL     1      -9.287 -42.597  29.425  1.00  0.00    -0.322 N 
ATOM     14  C   UNL     1      -8.450 -43.416  30.154  1.00  0.00     0.249 A 
ATOM     15  H   UNL     1     -14.760 -45.404  26.884  1.00  0.00     0.208 HD
ATOM     16  H   UNL     1      -9.136 -41.603  29.345  1.00  0.00     0.170 HD
ATOM     17  O   UNL     1      -7.463 -43.092  30.785  1.00  0.00    -0.270 OA
ENDBRANCH   2   3
ENDBRANCH   1   2
BRANCH   1  18
ATOM     18  C   UNL     1     -16.487 -42.956  25.520  1.00  0.00     0.000 C 
ATOM     19  C   UNL     1     -17.878 -42.412  25.865  1.00  0.00     0.065 C 
ATOM     20  C   UNL     1     -16.032 -42.404  24.163  1.00  0.00     0.065 C 
ATOM     21  C   UNL     1     -18.886 -42.727  24.766  1.00  0.00     0.262 C 
ATOM     22  C   UNL     1     -17.042 -42.713  23.065  1.00  0.00     0.262 C 
ATOM     23  N   UNL     1     -18.398 -42.167  23.454  1.00  0.00    -0.331 N 
ATOM     24  H   UNL     1     -18.291 -41.150  23.564  1.00  0.00     0.348 HD
BRANCH  23  25
ATOM     25  C   UNL     1     -19.434 -42.352  22.359  1.00  0.00     0.299 C 
BRANCH  25  26
ATOM     26  C   UNL     1     -19.892 -41.053  21.757  1.00  0.00     0.006 A 
ATOM     27  C   UNL     1     -20.119 -40.946  20.376  1.00  0.00     0.009 A 
ATOM     28  C   UNL     1     -20.083 -39.920  22.567  1.00  0.00     0.009 A 
ATOM     29  C   UNL     1     -20.517 -39.732  19.817  1.00  0.00     0.001 A 
ATOM     30  C   UNL     1     -20.483 -38.709  22.002  1.00  0.00     0.001 A 
ATOM     31  C   UNL     1     -20.697 -38.614  20.629  1.00  0.00     0.000 A 
ENDBRANCH  25  26
ENDBRANCH  23  25
ENDBRANCH   1  18
TORSDOF 5
ENDMDL
MODEL 7
REMARK VINA RESULT:   -11.090      3.220     10.046
REMARK INTER + INTRA:         -14.957
REMARK INTER:                 -14.428
REMARK INTRA:                  -0.529
REMARK UNBOUND:                -0.625
REMARK SMILES O=c1cc2cc3o[nH]c(CC[C@H]4CC[N@H+](Cc5ccccc5)CC4)c3cc2[nH]1
REMARK SMILES IDX 11 1 10 2 9 3 8 4 7 5 6 6 25 7 5 8 26 9 4 10 27 11 3 12
REMARK SMILES IDX 28 13 2 14 1 17 12 18 24 19 13 20 23 21 14 22 15 23 16 25
REMARK SMILES IDX 17 26 18 27 22 28 19 29 21 30 20 31
REMARK H PARENT 8 15 28 16 15 24
ROOT
ATOM      1  C   UNL     1     -13.197 -43.539  26.624  1.00  0.00     0.010 C 
ENDROOT
BRANCH   1   2
ATOM      2  C   UNL     1     -13.405 -44.855  27.384  1.00  0.00     0.058 C 
BRANCH   2   3
ATOM      3  C   UNL     1     -13.234 -44.679  28.861  1.00  0.00     0.060 A 
ATOM      4  N   UNL     1     -14.304 -44.852  29.737  1.00  0.00    -0.226 N 
ATOM      5  O   UNL     1     -13.913 -44.554  31.068  1.00  0.00    -0.382 OA
ATOM      6  C   UNL     1     -12.554 -44.326  30.955  1.00  0.00     0.164 A 
ATOM      7  C   UNL     1     -12.127 -44.401  29.559  1.00  0.00     0.044 A 
ATOM      8  C   UNL     1     -11.690 -44.047  31.946  1.00  0.00     0.061 A 
ATOM      9  C   UNL     1     -10.752 -44.166  29.155  1.00  0.00     0.040 A 
ATOM     10  C   UNL     1     -10.311 -43.825  31.546  1.00  0.00     0.007 A 
ATOM     11  C   UNL     1      -9.897 -43.893  30.149  1.00  0.00     0.049 A 
ATOM     12  C   UNL     1      -9.251 -43.536  32.314  1.00  0.00     0.082 A 
ATOM     13  N   UNL     1      -8.571 -43.634  30.119  1.00  0.00    -0.322 N 
ATOM     14  C   UNL     1      -8.093 -43.406  31.392  1.00  0.00     0.249 A 
ATOM     15  H   UNL     1     -15.154 -44.361  29.470  1.00  0.00     0.208 HD
ATOM     16  H   UNL     1      -7.976 -43.607  29.305  1.00  0.00     0.170 HD
ATOM     17  O   UNL     1      -6.952 -43.146  31.720  1.00  0.00    -0.270 OA
ENDBRANCH   2   3
ENDBRANCH   1   2
BRANCH   1  18
ATOM     18  C   UNL     1     -14.468 -42.903  26.022  1.00  0.00     0.000 C 
ATOM     19  C   UNL     1     -14.733 -43.342  24.577  1.00  0.00     0.065 C 
ATOM     20  C   UNL     1     -15.717 -43.143  26.878  1.00  0.00     0.065 C 
ATOM     21  C   UNL     1     -15.954 -42.637  23.997  1.00  0.00     0.262 C 
ATOM     22  C   UNL     1     -16.940 -42.442  26.296  1.00  0.00     0.262 C 
ATOM     23  N   UNL     1     -17.154 -42.900  24.870  1.00  0.00    -0.331 N 
ATOM     24  H   UNL     1     -17.307 -43.916  24.901  1.00  0.00     0.348 HD
BRANCH  23  25
ATOM     25  C   UNL     1     -18.415 -42.317  24.258  1.00  0.00     0.299 C 
BRANCH  25  26
ATOM     26  C   UNL     1     -19.623 -42.469  25.140  1.00  0.00     0.006 A 
ATOM     27  C   UNL     1     -20.201 -41.351  25.760  1.00  0.00     0.009 A 
ATOM     28  C   UNL     1     -20.181 -43.738  25.372  1.00  0.00     0.009 A 
ATOM     29  C   UNL     1     -21.305 -41.500  26.601  1.00  0.00     0.001 A 
ATOM     30  C   UNL     1     -21.285 -43.881  26.213  1.00  0.00     0.001 A 
ATOM     31  C   UNL     1     -21.844 -42.764  26.827  1.00  0.00     0.000 A 
ENDBRANCH  25  26
ENDBRANCH  23  25
ENDBRANCH   1  18
TORSDOF 5
ENDMDL
MODEL 8
REMARK VINA RESULT:   -10.989      2.555      4.495
REMARK INTER + INTRA:         -14.826
REMARK INTER:                 -14.273
REMARK INTRA:                  -0.553
REMARK UNBOUND:                -0.625
REMARK SMILES O=c1cc2cc3o[nH]c(CC[C@H]4CC[N@H+](Cc5ccccc5)CC4)c3cc2[nH]1
REMARK SMILES IDX 11 1 10 2 9 3 8 4 7 5 6 6 25 7 5 8 26 9 4 10 27 11 3 12
REMARK SMILES IDX 28 13 2 14 1 17 12 18 24 19 13 20 23 21 14 22 15 23 16 25
REMARK SMILES IDX 17 26 18 27 22 28 19 29 21 30 20 31
REMARK H PARENT 8 15 28 16 15 24
ROOT
ATOM      1  C   UNL     1     -15.826 -41.866  23.656  1.00  0.00     0.010 C 
ENDROOT
BRANCH   1   2
ATOM      2  C   UNL     1     -17.016 -42.706  23.177  1.00  0.00     0.058 C 
BRANCH   2   3
ATOM      3  C   UNL     1     -18.229 -41.865  22.928  1.00  0.00     0.060 A 
ATOM      4  N   UNL     1     -18.461 -41.282  21.684  1.00  0.00    -0.226 N 
ATOM      5  O   UNL     1     -19.626 -40.473  21.721  1.00  0.00    -0.382 OA
ATOM      6  C   UNL     1     -20.132 -40.704  22.986  1.00  0.00     0.164 A 
ATOM      7  C   UNL     1     -19.246 -41.580  23.750  1.00  0.00     0.044 A 
ATOM      8  C   UNL     1     -21.264 -40.206  23.514  1.00  0.00     0.061 A 
ATOM      9  C   UNL     1     -19.524 -41.956  25.125  1.00  0.00     0.040 A 
ATOM     10  C   UNL     1     -21.551 -40.591  24.885  1.00  0.00     0.007 A 
ATOM     11  C   UNL     1     -20.656 -41.459  25.641  1.00  0.00     0.049 A 
ATOM     12  C   UNL     1     -22.597 -40.250  25.651  1.00  0.00     0.082 A 
ATOM     13  N   UNL     1     -21.202 -41.615  26.868  1.00  0.00    -0.322 N 
ATOM     14  C   UNL     1     -22.386 -40.915  26.962  1.00  0.00     0.249 A 
ATOM     15  H   UNL     1     -17.664 -40.786  21.293  1.00  0.00     0.208 HD
ATOM     16  H   UNL     1     -20.834 -42.160  27.633  1.00  0.00     0.170 HD
ATOM     17  O   UNL     1     -23.128 -40.840  27.922  1.00  0.00    -0.270 OA
ENDBRANCH   2   3
ENDBRANCH   1   2
BRANCH   1  18
ATOM     18  C   UNL     1     -15.264 -42.229  25.046  1.00  0.00     0.000 C 
ATOM     19  C   UNL     1     -16.320 -42.824  25.985  1.00  0.00     0.065 C 
ATOM     20  C   UNL     1     -14.047 -43.160  24.973  1.00  0.00     0.065 C 
ATOM     21  C   UNL     1     -15.742 -43.100  27.368  1.00  0.00     0.262 C 
ATOM     22  C   UNL     1     -13.472 -43.441  26.357  1.00  0.00     0.262 C 
ATOM     23  N   UNL     1     -14.551 -44.016  27.247  1.00  0.00    -0.331 N 
ATOM     24  H   UNL     1     -14.868 -44.890  26.808  1.00  0.00     0.348 HD
BRANCH  23  25
ATOM     25  C   UNL     1     -14.024 -44.414  28.614  1.00  0.00     0.299 C 
BRANCH  25  26
ATOM     26  C   UNL     1     -12.692 -45.109  28.552  1.00  0.00     0.006 A 
ATOM     27  C   UNL     1     -12.500 -46.210  27.704  1.00  0.00     0.009 A 
ATOM     28  C   UNL     1     -11.625 -44.678  29.358  1.00  0.00     0.009 A 
ATOM     29  C   UNL     1     -11.271 -46.870  27.670  1.00  0.00     0.001 A 
ATOM     30  C   UNL     1     -10.399 -45.341  29.319  1.00  0.00     0.001 A 
ATOM     31  C   UNL     1     -10.223 -46.436  28.478  1.00  0.00     0.000 A 
ENDBRANCH  25  26
ENDBRANCH  23  25
ENDBRANCH   1  18
TORSDOF 5
ENDMDL
MODEL 9
REMARK VINA RESULT:   -10.436      3.735      5.556
REMARK INTER + INTRA:         -14.111
REMARK INTER:                 -13.619
REMARK INTRA:                  -0.492
REMARK UNBOUND:                -0.625
REMARK SMILES O=c1cc2cc3o[nH]c(CC[C@H]4CC[N@H+](Cc5ccccc5)CC4)c3cc2[nH]1
REMARK SMILES IDX 11 1 10 2 9 3 8 4 7 5 6 6 25 7 5 8 26 9 4 10 27 11 3 12
REMARK SMILES IDX 28 13 2 14 1 17 12 18 24 19 13 20 23 21 14 22 15 23 16 25
REMARK SMILES IDX 17 26 18 27 22 28 19 29 21 30 20 31
REMARK H PARENT 8 15 28 16 15 24
ROOT
ATOM      1  C   UNL     1     -16.125 -42.001  23.920  1.00  0.00     0.010 C 
ENDROOT
BRANCH   1   2
ATOM      2  C   UNL     1     -17.197 -42.365  22.885  1.00  0.00     0.058 C 
BRANCH   2   3
ATOM      3  C   UNL     1     -18.497 -41.676  23.161  1.00  0.00     0.060 A 
ATOM      4  N   UNL     1     -19.122 -41.784  24.401  1.00  0.00    -0.226 N 
ATOM      5  O   UNL     1     -20.372 -41.112  24.392  1.00  0.00    -0.382 OA
ATOM      6  C   UNL     1     -20.395 -40.506  23.150  1.00  0.00     0.164 A 
ATOM      7  C   UNL     1     -19.212 -40.866  22.372  1.00  0.00     0.044 A 
ATOM      8  C   UNL     1     -21.351 -39.702  22.654  1.00  0.00     0.061 A 
ATOM      9  C   UNL     1     -19.002 -40.392  21.015  1.00  0.00     0.040 A 
ATOM     10  C   UNL     1     -21.138 -39.215  21.302  1.00  0.00     0.007 A 
ATOM     11  C   UNL     1     -19.958 -39.588  20.531  1.00  0.00     0.049 A 
ATOM     12  C   UNL     1     -21.916 -38.407  20.569  1.00  0.00     0.082 A 
ATOM     13  N   UNL     1     -20.066 -38.981  19.328  1.00  0.00    -0.322 N 
ATOM     14  C   UNL     1     -21.228 -38.240  19.263  1.00  0.00     0.249 A 
ATOM     15  H   UNL     1     -19.202 -42.735  24.754  1.00  0.00     0.208 HD
ATOM     16  H   UNL     1     -19.413 -39.031  18.561  1.00  0.00     0.170 HD
ATOM     17  O   UNL     1     -21.630 -37.574  18.330  1.00  0.00    -0.270 OA
ENDBRANCH   2   3
ENDBRANCH   1   2
BRANCH   1  18
ATOM     18  C   UNL     1     -15.676 -43.146  24.852  1.00  0.00     0.000 C 
ATOM     19  C   UNL     1     -14.550 -44.000  24.256  1.00  0.00     0.065 C 
ATOM     20  C   UNL     1     -15.277 -42.656  26.249  1.00  0.00     0.065 C 
ATOM     21  C   UNL     1     -14.188 -45.161  25.175  1.00  0.00     0.262 C 
ATOM     22  C   UNL     1     -14.908 -43.817  27.167  1.00  0.00     0.262 C 
ATOM     23  N   UNL     1     -13.803 -44.632  26.533  1.00  0.00    -0.331 N 
ATOM     24  H   UNL     1     -12.999 -44.004  26.412  1.00  0.00     0.348 HD
BRANCH  23  25
ATOM     25  C   UNL     1     -13.316 -45.750  27.438  1.00  0.00     0.299 C 
BRANCH  25  26
ATOM     26  C   UNL     1     -12.022 -45.424  28.132  1.00  0.00     0.006 A 
ATOM     27  C   UNL     1     -11.628 -44.090  28.319  1.00  0.00     0.009 A 
ATOM     28  C   UNL     1     -11.179 -46.451  28.586  1.00  0.00     0.009 A 
ATOM     29  C   UNL     1     -10.414 -43.792  28.937  1.00  0.00     0.001 A 
ATOM     30  C   UNL     1      -9.966 -46.147  29.205  1.00  0.00     0.001 A 
ATOM     31  C   UNL     1      -9.583 -44.820  29.378  1.00  0.00     0.000 A 
ENDBRANCH  25  26
ENDBRANCH  23  25
ENDBRANCH   1  18
TORSDOF 5
ENDMDL
