MODEL 1
REMARK VINA RESULT:   -10.350      0.000      0.000
REMARK INTER + INTRA:         -16.206
REMARK INTER:                 -15.493
REMARK INTRA:                  -0.713
REMARK UNBOUND:                -0.713
REMARK SMILES COc1cc2c(cc1OC)SC(=C(O)CCc1cc[n+](Cc3ccsc3)cc1)C2
REMARK SMILES IDX 15 1 13 2 14 3 12 5 29 6 11 7 5 8 6 9 4 10 7 11 3 12 8 13
REMARK SMILES IDX 2 14 1 15 9 16 10 17 16 18 17 19 18 20 28 21 19 22 27 23
REMARK SMILES IDX 20 24 21 25 22 26 23 27 26 28 24 29 25 30
REMARK H PARENT 14 4
ROOT
ATOM      1  C   UNL     1     -14.598 -43.828  26.337  1.00  0.00     0.080 C 
ENDROOT
BRANCH   1   2
ATOM      2  C   UNL     1     -15.197 -43.525  24.984  1.00  0.00     0.103 C 
BRANCH   2   3
ATOM      3  O   UNL     1     -14.405 -43.924  23.916  1.00  0.00    -0.511 OA
ATOM      4  H   UNL     1     -13.615 -43.345  23.930  1.00  0.00     0.293 HD
ENDBRANCH   2   3
BRANCH   2   5
ATOM      5  C   UNL     1     -16.369 -42.890  24.790  1.00  0.00     0.032 C 
ATOM      6  C   UNL     1     -17.397 -42.577  25.859  1.00  0.00     0.083 C 
ATOM      7  S   UNL     1     -16.868 -42.376  23.182  1.00  0.00    -0.090 SA
ATOM      8  C   UNL     1     -18.585 -41.968  25.169  1.00  0.00    -0.025 A 
ATOM      9  C   UNL     1     -18.437 -41.804  23.791  1.00  0.00     0.020 A 
ATOM     10  C   UNL     1     -19.762 -41.576  25.803  1.00  0.00     0.055 A 
ATOM     11  C   UNL     1     -19.449 -41.252  23.019  1.00  0.00     0.066 A 
ATOM     12  C   UNL     1     -20.795 -41.015  25.041  1.00  0.00     0.161 A 
ATOM     13  C   UNL     1     -20.637 -40.852  23.642  1.00  0.00     0.161 A 
BRANCH  12  14
ATOM     14  O   UNL     1     -21.996 -40.597  25.559  1.00  0.00    -0.493 OA
ATOM     15  C   UNL     1     -22.167 -40.647  26.967  1.00  0.00     0.278 C 
ENDBRANCH  12  14
BRANCH  13  16
ATOM     16  O   UNL     1     -21.707 -40.299  22.982  1.00  0.00    -0.493 OA
ATOM     17  C   UNL     1     -21.652 -40.238  21.564  1.00  0.00     0.278 C 
ENDBRANCH  13  16
ENDBRANCH   2   5
ENDBRANCH   1   2
BRANCH   1  18
ATOM     18  C   UNL     1     -13.816 -45.150  26.379  1.00  0.00     0.044 C 
BRANCH  18  19
ATOM     19  C   UNL     1     -13.076 -45.383  27.676  1.00  0.00    -0.036 A 
ATOM     20  C   UNL     1     -11.915 -46.155  27.706  1.00  0.00     0.074 A 
ATOM     21  C   UNL     1     -13.567 -44.871  28.876  1.00  0.00     0.074 A 
ATOM     22  C   UNL     1     -11.284 -46.404  28.920  1.00  0.00     0.308 A 
ATOM     23  C   UNL     1     -12.905 -45.148  30.065  1.00  0.00     0.308 A 
ATOM     24  N   UNL     1     -11.784 -45.904  30.072  1.00  0.00    -0.201 N 
BRANCH  24  25
ATOM     25  C   UNL     1     -11.107 -46.197  31.359  1.00  0.00     0.394 C 
BRANCH  25  26
ATOM     26  C   UNL     1      -9.747 -45.572  31.379  1.00  0.00     0.027 A 
ATOM     27  C   UNL     1      -8.512 -46.305  31.323  1.00  0.00     0.022 A 
ATOM     28  C   UNL     1      -9.500 -44.211  31.442  1.00  0.00     0.075 A 
ATOM     29  C   UNL     1      -7.404 -45.486  31.362  1.00  0.00     0.065 A 
ATOM     30  S   UNL     1      -7.831 -43.837  31.461  1.00  0.00    -0.152 S 
ENDBRANCH  25  26
ENDBRANCH  24  25
ENDBRANCH  18  19
ENDBRANCH   1  18
TORSDOF 9
ENDMDL
MODEL 2
REMARK VINA RESULT:   -10.006      0.757      1.940
REMARK INTER + INTRA:         -15.692
REMARK INTER:                 -14.999
REMARK INTRA:                  -0.693
REMARK UNBOUND:                -0.713
REMARK SMILES COc1cc2c(cc1OC)SC(=C(O)CCc1cc[n+](Cc3ccsc3)cc1)C2
REMARK SMILES IDX 15 1 13 2 14 3 12 5 29 6 11 7 5 8 6 9 4 10 7 11 3 12 8 13
REMARK SMILES IDX 2 14 1 15 9 16 10 17 16 18 17 19 18 20 28 21 19 22 27 23
REMARK SMILES IDX 20 24 21 25 22 26 23 27 26 28 24 29 25 30
REMARK H PARENT 14 4
ROOT
ATOM      1  C   UNL     1     -14.503 -43.711  26.331  1.00  0.00     0.080 C 
ENDROOT
BRANCH   1   2
ATOM      2  C   UNL     1     -15.097 -43.397  24.979  1.00  0.00     0.103 C 
BRANCH   2   3
ATOM      3  O   UNL     1     -14.226 -43.611  23.919  1.00  0.00    -0.511 OA
ATOM      4  H   UNL     1     -13.555 -42.899  23.969  1.00  0.00     0.293 HD
ENDBRANCH   2   3
BRANCH   2   5
ATOM      5  C   UNL     1     -16.338 -42.913  24.780  1.00  0.00     0.032 C 
ATOM      6  C   UNL     1     -16.908 -42.448  23.455  1.00  0.00     0.083 C 
ATOM      7  S   UNL     1     -17.464 -42.723  26.120  1.00  0.00    -0.090 SA
ATOM      8  C   UNL     1     -18.276 -41.889  23.730  1.00  0.00    -0.025 A 
ATOM      9  C   UNL     1     -18.683 -41.977  25.063  1.00  0.00     0.020 A 
ATOM     10  C   UNL     1     -19.115 -41.323  22.773  1.00  0.00     0.055 A 
ATOM     11  C   UNL     1     -19.923 -41.506  25.469  1.00  0.00     0.066 A 
ATOM     12  C   UNL     1     -20.371 -40.842  23.163  1.00  0.00     0.161 A 
ATOM     13  C   UNL     1     -20.777 -40.934  24.518  1.00  0.00     0.161 A 
BRANCH  12  14
ATOM     14  O   UNL     1     -21.275 -40.262  22.307  1.00  0.00    -0.493 OA
ATOM     15  C   UNL     1     -20.868 -39.103  21.595  1.00  0.00     0.278 C 
ENDBRANCH  12  14
BRANCH  13  16
ATOM     16  O   UNL     1     -22.023 -40.431  24.803  1.00  0.00    -0.493 OA
ATOM     17  C   UNL     1     -22.420 -40.375  26.165  1.00  0.00     0.278 C 
ENDBRANCH  13  16
ENDBRANCH   2   5
ENDBRANCH   1   2
BRANCH   1  18
ATOM     18  C   UNL     1     -13.843 -45.096  26.404  1.00  0.00     0.044 C 
BRANCH  18  19
ATOM     19  C   UNL     1     -13.092 -45.351  27.691  1.00  0.00    -0.036 A 
ATOM     20  C   UNL     1     -11.971 -46.179  27.711  1.00  0.00     0.074 A 
ATOM     21  C   UNL     1     -13.536 -44.801  28.893  1.00  0.00     0.074 A 
ATOM     22  C   UNL     1     -11.331 -46.445  28.917  1.00  0.00     0.308 A 
ATOM     23  C   UNL     1     -12.867 -45.095  30.074  1.00  0.00     0.308 A 
ATOM     24  N   UNL     1     -11.785 -45.906  30.071  1.00  0.00    -0.201 N 
BRANCH  24  25
ATOM     25  C   UNL     1     -11.100 -46.217  31.350  1.00  0.00     0.394 C 
BRANCH  25  26
ATOM     26  C   UNL     1      -9.757 -45.556  31.389  1.00  0.00     0.027 A 
ATOM     27  C   UNL     1      -8.504 -46.252  31.291  1.00  0.00     0.022 A 
ATOM     28  C   UNL     1      -9.547 -44.193  31.512  1.00  0.00     0.075 A 
ATOM     29  C   UNL     1      -7.419 -45.404  31.359  1.00  0.00     0.065 A 
ATOM     30  S   UNL     1      -7.890 -43.774  31.536  1.00  0.00    -0.152 S 
ENDBRANCH  25  26
ENDBRANCH  24  25
ENDBRANCH  18  19
ENDBRANCH   1  18
TORSDOF 9
ENDMDL
MODEL 3
REMARK VINA RESULT:    -9.649      1.345      2.356
REMARK INTER + INTRA:         -15.157
REMARK INTER:                 -14.533
REMARK INTRA:                  -0.624
REMARK UNBOUND:                -0.713
REMARK SMILES COc1cc2c(cc1OC)SC(=C(O)CCc1cc[n+](Cc3ccsc3)cc1)C2
REMARK SMILES IDX 15 1 13 2 14 3 12 5 29 6 11 7 5 8 6 9 4 10 7 11 3 12 8 13
REMARK SMILES IDX 2 14 1 15 9 16 10 17 16 18 17 19 18 20 28 21 19 22 27 23
REMARK SMILES IDX 20 24 21 25 22 26 23 27 26 28 24 29 25 30
REMARK H PARENT 14 4
ROOT
ATOM      1  C   UNL     1     -14.464 -43.067  25.985  1.00  0.00     0.080 C 
ENDROOT
BRANCH   1   2
ATOM      2  C   UNL     1     -15.582 -43.158  24.974  1.00  0.00     0.103 C 
BRANCH   2   3
ATOM      3  O   UNL     1     -15.196 -43.702  23.756  1.00  0.00    -0.511 OA
ATOM      4  H   UNL     1     -15.913 -43.492  23.123  1.00  0.00     0.293 HD
ENDBRANCH   2   3
BRANCH   2   5
ATOM      5  C   UNL     1     -16.840 -42.725  25.182  1.00  0.00     0.032 C 
ATOM      6  C   UNL     1     -17.814 -42.278  24.109  1.00  0.00     0.083 C 
ATOM      7  S   UNL     1     -17.497 -42.587  26.809  1.00  0.00    -0.090 SA
ATOM      8  C   UNL     1     -19.047 -41.777  24.808  1.00  0.00    -0.025 A 
ATOM      9  C   UNL     1     -19.012 -41.888  26.199  1.00  0.00     0.020 A 
ATOM     10  C   UNL     1     -20.164 -41.243  24.171  1.00  0.00     0.055 A 
ATOM     11  C   UNL     1     -20.080 -41.471  26.981  1.00  0.00     0.066 A 
ATOM     12  C   UNL     1     -21.252 -40.816  24.943  1.00  0.00     0.161 A 
ATOM     13  C   UNL     1     -21.210 -40.930  26.355  1.00  0.00     0.161 A 
BRANCH  12  14
ATOM     14  O   UNL     1     -22.400 -40.271  24.423  1.00  0.00    -0.493 OA
ATOM     15  C   UNL     1     -22.756 -40.613  23.091  1.00  0.00     0.278 C 
ENDBRANCH  12  14
BRANCH  13  16
ATOM     16  O   UNL     1     -22.322 -40.480  27.024  1.00  0.00    -0.493 OA
ATOM     17  C   UNL     1     -23.299 -41.438  27.405  1.00  0.00     0.278 C 
ENDBRANCH  13  16
ENDBRANCH   2   5
ENDBRANCH   1   2
BRANCH   1  18
ATOM     18  C   UNL     1     -13.840 -44.427  26.333  1.00  0.00     0.044 C 
BRANCH  18  19
ATOM     19  C   UNL     1     -13.204 -44.476  27.704  1.00  0.00    -0.036 A 
ATOM     20  C   UNL     1     -13.876 -45.050  28.782  1.00  0.00     0.074 A 
ATOM     21  C   UNL     1     -11.952 -43.905  27.926  1.00  0.00     0.074 A 
ATOM     22  C   UNL     1     -13.295 -45.032  30.045  1.00  0.00     0.308 A 
ATOM     23  C   UNL     1     -11.411 -43.908  29.206  1.00  0.00     0.308 A 
ATOM     24  N   UNL     1     -12.083 -44.465  30.239  1.00  0.00    -0.201 N 
BRANCH  24  25
ATOM     25  C   UNL     1     -11.489 -44.439  31.598  1.00  0.00     0.394 C 
BRANCH  25  26
ATOM     26  C   UNL     1     -10.104 -45.008  31.564  1.00  0.00     0.027 A 
ATOM     27  C   UNL     1      -9.789 -46.362  31.201  1.00  0.00     0.022 A 
ATOM     28  C   UNL     1      -8.950 -44.306  31.867  1.00  0.00     0.075 A 
ATOM     29  C   UNL     1      -8.438 -46.627  31.259  1.00  0.00     0.065 A 
ATOM     30  S   UNL     1      -7.537 -45.261  31.742  1.00  0.00    -0.152 S 
ENDBRANCH  25  26
ENDBRANCH  24  25
ENDBRANCH  18  19
ENDBRANCH   1  18
TORSDOF 9
ENDMDL
MODEL 4
REMARK VINA RESULT:    -8.843      1.932      3.235
REMARK INTER + INTRA:         -13.951
REMARK INTER:                 -13.539
REMARK INTRA:                  -0.412
REMARK UNBOUND:                -0.713
REMARK SMILES COc1cc2c(cc1OC)SC(=C(O)CCc1cc[n+](Cc3ccsc3)cc1)C2
REMARK SMILES IDX 15 1 13 2 14 3 12 5 29 6 11 7 5 8 6 9 4 10 7 11 3 12 8 13
REMARK SMILES IDX 2 14 1 15 9 16 10 17 16 18 17 19 18 20 28 21 19 22 27 23
REMARK SMILES IDX 20 24 21 25 22 26 23 27 26 28 24 29 25 30
REMARK H PARENT 14 4
ROOT
ATOM      1  C   UNL     1     -15.262 -43.408  24.368  1.00  0.00     0.080 C 
ENDROOT
BRANCH   1   2
ATOM      2  C   UNL     1     -15.624 -42.145  23.623  1.00  0.00     0.103 C 
BRANCH   2   3
ATOM      3  O   UNL     1     -14.546 -41.301  23.392  1.00  0.00    -0.511 OA
ATOM      4  H   UNL     1     -13.743 -41.817  23.610  1.00  0.00     0.293 HD
ENDBRANCH   2   3
BRANCH   2   5
ATOM      5  C   UNL     1     -16.871 -41.814  23.237  1.00  0.00     0.032 C 
ATOM      6  C   UNL     1     -17.230 -40.918  22.068  1.00  0.00     0.083 C 
ATOM      7  S   UNL     1     -18.279 -42.382  24.128  1.00  0.00    -0.090 SA
ATOM      8  C   UNL     1     -18.722 -40.740  22.085  1.00  0.00    -0.025 A 
ATOM      9  C   UNL     1     -19.380 -41.447  23.093  1.00  0.00     0.020 A 
ATOM     10  C   UNL     1     -19.442 -39.951  21.192  1.00  0.00     0.055 A 
ATOM     11  C   UNL     1     -20.759 -41.384  23.232  1.00  0.00     0.066 A 
ATOM     12  C   UNL     1     -20.835 -39.876  21.315  1.00  0.00     0.161 A 
ATOM     13  C   UNL     1     -21.497 -40.595  22.341  1.00  0.00     0.161 A 
BRANCH  12  14
ATOM     14  O   UNL     1     -21.643 -39.128  20.495  1.00  0.00    -0.493 OA
ATOM     15  C   UNL     1     -21.024 -38.343  19.486  1.00  0.00     0.278 C 
ENDBRANCH  12  14
BRANCH  13  16
ATOM     16  O   UNL     1     -22.862 -40.453  22.385  1.00  0.00    -0.493 OA
ATOM     17  C   UNL     1     -23.407 -39.580  23.364  1.00  0.00     0.278 C 
ENDBRANCH  13  16
ENDBRANCH   2   5
ENDBRANCH   1   2
BRANCH   1  18
ATOM     18  C   UNL     1     -15.398 -43.280  25.893  1.00  0.00     0.044 C 
BRANCH  18  19
ATOM     19  C   UNL     1     -14.141 -43.638  26.653  1.00  0.00    -0.036 A 
ATOM     20  C   UNL     1     -13.075 -42.742  26.731  1.00  0.00     0.074 A 
ATOM     21  C   UNL     1     -14.004 -44.890  27.251  1.00  0.00     0.074 A 
ATOM     22  C   UNL     1     -11.907 -43.116  27.386  1.00  0.00     0.308 A 
ATOM     23  C   UNL     1     -12.818 -45.221  27.893  1.00  0.00     0.308 A 
ATOM     24  N   UNL     1     -11.794 -44.339  27.951  1.00  0.00    -0.201 N 
BRANCH  24  25
ATOM     25  C   UNL     1     -10.533 -44.726  28.628  1.00  0.00     0.394 C 
BRANCH  25  26
ATOM     26  C   UNL     1     -10.563 -44.288  30.060  1.00  0.00     0.027 A 
ATOM     27  C   UNL     1     -11.762 -44.119  30.835  1.00  0.00     0.022 A 
ATOM     28  C   UNL     1      -9.446 -44.000  30.826  1.00  0.00     0.075 A 
ATOM     29  C   UNL     1     -11.507 -43.703  32.124  1.00  0.00     0.065 A 
ATOM     30  S   UNL     1      -9.837 -43.516  32.418  1.00  0.00    -0.152 S 
ENDBRANCH  25  26
ENDBRANCH  24  25
ENDBRANCH  18  19
ENDBRANCH   1  18
TORSDOF 9
ENDMDL
MODEL 5
REMARK VINA RESULT:    -8.638      1.732      2.635
REMARK INTER + INTRA:         -13.644
REMARK INTER:                 -12.847
REMARK INTRA:                  -0.797
REMARK UNBOUND:                -0.713
REMARK SMILES COc1cc2c(cc1OC)SC(=C(O)CCc1cc[n+](Cc3ccsc3)cc1)C2
REMARK SMILES IDX 15 1 13 2 14 3 12 5 29 6 11 7 5 8 6 9 4 10 7 11 3 12 8 13
REMARK SMILES IDX 2 14 1 15 9 16 10 17 16 18 17 19 18 20 28 21 19 22 27 23
REMARK SMILES IDX 20 24 21 25 22 26 23 27 26 28 24 29 25 30
REMARK H PARENT 14 4
ROOT
ATOM      1  C   UNL     1     -15.571 -43.393  25.285  1.00  0.00     0.080 C 
ENDROOT
BRANCH   1   2
ATOM      2  C   UNL     1     -16.866 -42.717  25.670  1.00  0.00     0.103 C 
BRANCH   2   3
ATOM      3  O   UNL     1     -17.114 -42.712  27.036  1.00  0.00    -0.511 OA
ATOM      4  H   UNL     1     -17.250 -43.648  27.292  1.00  0.00     0.293 HD
ENDBRANCH   2   3
BRANCH   2   5
ATOM      5  C   UNL     1     -17.746 -42.193  24.795  1.00  0.00     0.032 C 
ATOM      6  C   UNL     1     -19.147 -41.715  25.123  1.00  0.00     0.083 C 
ATOM      7  S   UNL     1     -17.350 -42.044  23.086  1.00  0.00    -0.090 SA
ATOM      8  C   UNL     1     -19.797 -41.318  23.828  1.00  0.00    -0.025 A 
ATOM      9  C   UNL     1     -18.975 -41.434  22.706  1.00  0.00     0.020 A 
ATOM     10  C   UNL     1     -21.105 -40.860  23.699  1.00  0.00     0.055 A 
ATOM     11  C   UNL     1     -19.435 -41.100  21.440  1.00  0.00     0.066 A 
ATOM     12  C   UNL     1     -21.588 -40.517  22.430  1.00  0.00     0.161 A 
ATOM     13  C   UNL     1     -20.749 -40.638  21.294  1.00  0.00     0.161 A 
BRANCH  12  14
ATOM     14  O   UNL     1     -22.860 -40.059  22.185  1.00  0.00    -0.493 OA
ATOM     15  C   UNL     1     -23.187 -38.744  22.609  1.00  0.00     0.278 C 
ENDBRANCH  12  14
BRANCH  13  16
ATOM     16  O   UNL     1     -21.314 -40.283  20.094  1.00  0.00    -0.493 OA
ATOM     17  C   UNL     1     -20.827 -39.113  19.452  1.00  0.00     0.278 C 
ENDBRANCH  13  16
ENDBRANCH   2   5
ENDBRANCH   1   2
BRANCH   1  18
ATOM     18  C   UNL     1     -14.324 -42.683  25.834  1.00  0.00     0.044 C 
BRANCH  18  19
ATOM     19  C   UNL     1     -13.552 -43.496  26.848  1.00  0.00    -0.036 A 
ATOM     20  C   UNL     1     -14.125 -44.617  27.448  1.00  0.00     0.074 A 
ATOM     21  C   UNL     1     -12.271 -43.112  27.240  1.00  0.00     0.074 A 
ATOM     22  C   UNL     1     -13.418 -45.315  28.421  1.00  0.00     0.308 A 
ATOM     23  C   UNL     1     -11.602 -43.838  28.217  1.00  0.00     0.308 A 
ATOM     24  N   UNL     1     -12.179 -44.919  28.791  1.00  0.00    -0.201 N 
BRANCH  24  25
ATOM     25  C   UNL     1     -11.449 -45.665  29.844  1.00  0.00     0.394 C 
BRANCH  25  26
ATOM     26  C   UNL     1     -11.014 -44.730  30.929  1.00  0.00     0.027 A 
ATOM     27  C   UNL     1     -11.902 -43.884  31.679  1.00  0.00     0.022 A 
ATOM     28  C   UNL     1      -9.709 -44.565  31.359  1.00  0.00     0.075 A 
ATOM     29  C   UNL     1     -11.241 -43.117  32.615  1.00  0.00     0.065 A 
ATOM     30  S   UNL     1      -9.560 -43.406  32.608  1.00  0.00    -0.152 S 
ENDBRANCH  25  26
ENDBRANCH  24  25
ENDBRANCH  18  19
ENDBRANCH   1  18
TORSDOF 9
ENDMDL
MODEL 6
REMARK VINA RESULT:    -8.635      1.864      2.858
REMARK INTER + INTRA:         -13.640
REMARK INTER:                 -12.922
REMARK INTRA:                  -0.718
REMARK UNBOUND:                -0.713
REMARK SMILES COc1cc2c(cc1OC)SC(=C(O)CCc1cc[n+](Cc3ccsc3)cc1)C2
REMARK SMILES IDX 15 1 13 2 14 3 12 5 29 6 11 7 5 8 6 9 4 10 7 11 3 12 8 13
REMARK SMILES IDX 2 14 1 15 9 16 10 17 16 18 17 19 18 20 28 21 19 22 27 23
REMARK SMILES IDX 20 24 21 25 22 26 23 27 26 28 24 29 25 30
REMARK H PARENT 14 4
ROOT
ATOM      1  C   UNL     1     -15.634 -43.332  25.882  1.00  0.00     0.080 C 
ENDROOT
BRANCH   1   2
ATOM      2  C   UNL     1     -16.733 -42.726  26.723  1.00  0.00     0.103 C 
BRANCH   2   3
ATOM      3  O   UNL     1     -16.431 -42.657  28.076  1.00  0.00    -0.511 OA
ATOM      4  H   UNL     1     -16.789 -43.475  28.478  1.00  0.00     0.293 HD
ENDBRANCH   2   3
BRANCH   2   5
ATOM      5  C   UNL     1     -17.924 -42.317  26.247  1.00  0.00     0.032 C 
ATOM      6  C   UNL     1     -18.276 -42.115  24.786  1.00  0.00     0.083 C 
ATOM      7  S   UNL     1     -19.247 -41.911  27.336  1.00  0.00    -0.090 SA
ATOM      8  C   UNL     1     -19.666 -41.548  24.737  1.00  0.00    -0.025 A 
ATOM      9  C   UNL     1     -20.279 -41.401  25.983  1.00  0.00     0.020 A 
ATOM     10  C   UNL     1     -20.340 -41.187  23.573  1.00  0.00     0.055 A 
ATOM     11  C   UNL     1     -21.565 -40.893  26.096  1.00  0.00     0.066 A 
ATOM     12  C   UNL     1     -21.640 -40.673  23.667  1.00  0.00     0.161 A 
ATOM     13  C   UNL     1     -22.255 -40.525  24.935  1.00  0.00     0.161 A 
BRANCH  12  14
ATOM     14  O   UNL     1     -22.394 -40.281  22.588  1.00  0.00    -0.493 OA
ATOM     15  C   UNL     1     -22.034 -40.778  21.308  1.00  0.00     0.278 C 
ENDBRANCH  12  14
BRANCH  13  16
ATOM     16  O   UNL     1     -23.528 -40.008  24.924  1.00  0.00    -0.493 OA
ATOM     17  C   UNL     1     -24.000 -39.383  26.109  1.00  0.00     0.278 C 
ENDBRANCH  13  16
ENDBRANCH   2   5
ENDBRANCH   1   2
BRANCH   1  18
ATOM     18  C   UNL     1     -14.262 -42.675  26.101  1.00  0.00     0.044 C 
BRANCH  18  19
ATOM     19  C   UNL     1     -13.315 -43.500  26.941  1.00  0.00    -0.036 A 
ATOM     20  C   UNL     1     -13.691 -44.755  27.416  1.00  0.00     0.074 A 
ATOM     21  C   UNL     1     -12.063 -43.000  27.298  1.00  0.00     0.074 A 
ATOM     22  C   UNL     1     -12.825 -45.471  28.236  1.00  0.00     0.308 A 
ATOM     23  C   UNL     1     -11.231 -43.749  28.121  1.00  0.00     0.308 A 
ATOM     24  N   UNL     1     -11.619 -44.962  28.576  1.00  0.00    -0.201 N 
BRANCH  24  25
ATOM     25  C   UNL     1     -10.717 -45.732  29.467  1.00  0.00     0.394 C 
BRANCH  25  26
ATOM     26  C   UNL     1     -10.248 -44.868  30.595  1.00  0.00     0.027 A 
ATOM     27  C   UNL     1      -8.906 -44.374  30.740  1.00  0.00     0.022 A 
ATOM     28  C   UNL     1     -11.044 -44.422  31.637  1.00  0.00     0.075 A 
ATOM     29  C   UNL     1      -8.742 -43.605  31.872  1.00  0.00     0.065 A 
ATOM     30  S   UNL     1     -10.188 -43.464  32.766  1.00  0.00    -0.152 S 
ENDBRANCH  25  26
ENDBRANCH  24  25
ENDBRANCH  18  19
ENDBRANCH   1  18
TORSDOF 9
ENDMDL
MODEL 7
REMARK VINA RESULT:    -8.593      2.836      4.790
REMARK INTER + INTRA:         -13.576
REMARK INTER:                 -12.962
REMARK INTRA:                  -0.614
REMARK UNBOUND:                -0.713
REMARK SMILES COc1cc2c(cc1OC)SC(=C(O)CCc1cc[n+](Cc3ccsc3)cc1)C2
REMARK SMILES IDX 15 1 13 2 14 3 12 5 29 6 11 7 5 8 6 9 4 10 7 11 3 12 8 13
REMARK SMILES IDX 2 14 1 15 9 16 10 17 16 18 17 19 18 20 28 21 19 22 27 23
REMARK SMILES IDX 20 24 21 25 22 26 23 27 26 28 24 29 25 30
REMARK H PARENT 14 4
ROOT
ATOM      1  C   UNL     1     -17.222 -42.050  23.493  1.00  0.00     0.080 C 
ENDROOT
BRANCH   1   2
ATOM      2  C   UNL     1     -17.513 -41.093  22.361  1.00  0.00     0.103 C 
BRANCH   2   3
ATOM      3  O   UNL     1     -16.382 -40.687  21.664  1.00  0.00    -0.511 OA
ATOM      4  H   UNL     1     -16.610 -40.750  20.714  1.00  0.00     0.293 HD
ENDBRANCH   2   3
BRANCH   2   5
ATOM      5  C   UNL     1     -18.736 -40.623  22.050  1.00  0.00     0.032 C 
ATOM      6  C   UNL     1     -19.082 -39.782  20.837  1.00  0.00     0.083 C 
ATOM      7  S   UNL     1     -20.117 -40.918  23.101  1.00  0.00    -0.090 SA
ATOM      8  C   UNL     1     -20.529 -39.397  20.961  1.00  0.00    -0.025 A 
ATOM      9  C   UNL     1     -21.177 -39.924  22.079  1.00  0.00     0.020 A 
ATOM     10  C   UNL     1     -21.220 -38.590  20.061  1.00  0.00     0.055 A 
ATOM     11  C   UNL     1     -22.517 -39.659  22.324  1.00  0.00     0.066 A 
ATOM     12  C   UNL     1     -22.573 -38.312  20.291  1.00  0.00     0.161 A 
ATOM     13  C   UNL     1     -23.225 -38.849  21.429  1.00  0.00     0.161 A 
BRANCH  12  14
ATOM     14  O   UNL     1     -23.349 -37.526  19.474  1.00  0.00    -0.493 OA
ATOM     15  C   UNL     1     -23.243 -37.716  18.071  1.00  0.00     0.278 C 
ENDBRANCH  12  14
BRANCH  13  16
ATOM     16  O   UNL     1     -24.550 -38.515  21.571  1.00  0.00    -0.493 OA
ATOM     17  C   UNL     1     -25.463 -39.552  21.901  1.00  0.00     0.278 C 
ENDBRANCH  13  16
ENDBRANCH   2   5
ENDBRANCH   1   2
BRANCH   1  18
ATOM     18  C   UNL     1     -15.803 -42.639  23.448  1.00  0.00     0.044 C 
BRANCH  18  19
ATOM     19  C   UNL     1     -15.326 -43.188  24.773  1.00  0.00    -0.036 A 
ATOM     20  C   UNL     1     -14.485 -44.299  24.823  1.00  0.00     0.074 A 
ATOM     21  C   UNL     1     -15.756 -42.624  25.973  1.00  0.00     0.074 A 
ATOM     22  C   UNL     1     -14.106 -44.822  26.055  1.00  0.00     0.308 A 
ATOM     23  C   UNL     1     -15.354 -43.180  27.180  1.00  0.00     0.308 A 
ATOM     24  N   UNL     1     -14.543 -44.262  27.206  1.00  0.00    -0.201 N 
BRANCH  24  25
ATOM     25  C   UNL     1     -14.142 -44.846  28.509  1.00  0.00     0.394 C 
BRANCH  25  26
ATOM     26  C   UNL     1     -12.657 -45.033  28.554  1.00  0.00     0.027 A 
ATOM     27  C   UNL     1     -11.992 -46.302  28.434  1.00  0.00     0.022 A 
ATOM     28  C   UNL     1     -11.733 -44.014  28.707  1.00  0.00     0.075 A 
ATOM     29  C   UNL     1     -10.621 -46.193  28.514  1.00  0.00     0.065 A 
ATOM     30  S   UNL     1     -10.119 -44.577  28.731  1.00  0.00    -0.152 S 
ENDBRANCH  25  26
ENDBRANCH  24  25
ENDBRANCH  18  19
ENDBRANCH   1  18
TORSDOF 9
ENDMDL
MODEL 8
REMARK VINA RESULT:    -8.409      4.048     11.697
REMARK INTER + INTRA:         -13.302
REMARK INTER:                 -12.729
REMARK INTRA:                  -0.573
REMARK UNBOUND:                -0.713
REMARK SMILES COc1cc2c(cc1OC)SC(=C(O)CCc1cc[n+](Cc3ccsc3)cc1)C2
REMARK SMILES IDX 15 1 13 2 14 3 12 5 29 6 11 7 5 8 6 9 4 10 7 11 3 12 8 13
REMARK SMILES IDX 2 14 1 15 9 16 10 17 16 18 17 19 18 20 28 21 19 22 27 23
REMARK SMILES IDX 20 24 21 25 22 26 23 27 26 28 24 29 25 30
REMARK H PARENT 14 4
ROOT
ATOM      1  C   UNL     1     -17.251 -43.066  23.464  1.00  0.00     0.080 C 
ENDROOT
BRANCH   1   2
ATOM      2  C   UNL     1     -15.918 -42.636  24.029  1.00  0.00     0.103 C 
BRANCH   2   3
ATOM      3  O   UNL     1     -15.275 -41.664  23.275  1.00  0.00    -0.511 OA
ATOM      4  H   UNL     1     -15.907 -41.398  22.576  1.00  0.00     0.293 HD
ENDBRANCH   2   3
BRANCH   2   5
ATOM      5  C   UNL     1     -15.352 -43.153  25.137  1.00  0.00     0.032 C 
ATOM      6  C   UNL     1     -14.183 -44.118  25.169  1.00  0.00     0.083 C 
ATOM      7  S   UNL     1     -15.978 -42.775  26.738  1.00  0.00    -0.090 SA
ATOM      8  C   UNL     1     -13.968 -44.509  26.604  1.00  0.00    -0.025 A 
ATOM      9  C   UNL     1     -14.823 -43.882  27.512  1.00  0.00     0.020 A 
ATOM     10  C   UNL     1     -13.007 -45.413  27.049  1.00  0.00     0.055 A 
ATOM     11  C   UNL     1     -14.742 -44.141  28.873  1.00  0.00     0.066 A 
ATOM     12  C   UNL     1     -12.909 -45.687  28.420  1.00  0.00     0.161 A 
ATOM     13  C   UNL     1     -13.781 -45.048  29.336  1.00  0.00     0.161 A 
BRANCH  12  14
ATOM     14  O   UNL     1     -12.004 -46.563  28.969  1.00  0.00    -0.493 OA
ATOM     15  C   UNL     1     -10.647 -46.456  28.567  1.00  0.00     0.278 C 
ENDBRANCH  12  14
BRANCH  13  16
ATOM     16  O   UNL     1     -13.611 -45.386  30.656  1.00  0.00    -0.493 OA
ATOM     17  C   UNL     1     -13.272 -44.350  31.567  1.00  0.00     0.278 C 
ENDBRANCH  13  16
ENDBRANCH   2   5
ENDBRANCH   1   2
BRANCH   1  18
ATOM     18  C   UNL     1     -18.439 -42.739  24.381  1.00  0.00     0.044 C 
BRANCH  18  19
ATOM     19  C   UNL     1     -19.417 -41.750  23.788  1.00  0.00    -0.036 A 
ATOM     20  C   UNL     1     -19.067 -40.976  22.683  1.00  0.00     0.074 A 
ATOM     21  C   UNL     1     -20.672 -41.560  24.364  1.00  0.00     0.074 A 
ATOM     22  C   UNL     1     -19.961 -40.032  22.190  1.00  0.00     0.308 A 
ATOM     23  C   UNL     1     -21.533 -40.604  23.840  1.00  0.00     0.308 A 
ATOM     24  N   UNL     1     -21.170 -39.859  22.771  1.00  0.00    -0.201 N 
BRANCH  24  25
ATOM     25  C   UNL     1     -22.103 -38.834  22.242  1.00  0.00     0.394 C 
BRANCH  25  26
ATOM     26  C   UNL     1     -22.357 -39.072  20.786  1.00  0.00     0.027 A 
ATOM     27  C   UNL     1     -21.808 -38.276  19.723  1.00  0.00     0.022 A 
ATOM     28  C   UNL     1     -23.142 -40.090  20.274  1.00  0.00     0.075 A 
ATOM     29  C   UNL     1     -22.205 -38.708  18.476  1.00  0.00     0.065 A 
ATOM     30  S   UNL     1     -23.232 -40.067  18.566  1.00  0.00    -0.152 S 
ENDBRANCH  25  26
ENDBRANCH  24  25
ENDBRANCH  18  19
ENDBRANCH   1  18
TORSDOF 9
ENDMDL
MODEL 9
REMARK VINA RESULT:    -8.253      3.800     11.689
REMARK INTER + INTRA:         -13.068
REMARK INTER:                 -12.788
REMARK INTRA:                  -0.279
REMARK UNBOUND:                -0.713
REMARK SMILES COc1cc2c(cc1OC)SC(=C(O)CCc1cc[n+](Cc3ccsc3)cc1)C2
REMARK SMILES IDX 15 1 13 2 14 3 12 5 29 6 11 7 5 8 6 9 4 10 7 11 3 12 8 13
REMARK SMILES IDX 2 14 1 15 9 16 10 17 16 18 17 19 18 20 28 21 19 22 27 23
REMARK SMILES IDX 20 24 21 25 22 26 23 27 26 28 24 29 25 30
REMARK H PARENT 14 4
ROOT
ATOM      1  C   UNL     1     -15.628 -43.182  25.158  1.00  0.00     0.080 C 
ENDROOT
BRANCH   1   2
ATOM      2  C   UNL     1     -14.539 -44.224  25.263  1.00  0.00     0.103 C 
BRANCH   2   3
ATOM      3  O   UNL     1     -14.538 -45.142  24.221  1.00  0.00    -0.511 OA
ATOM      4  H   UNL     1     -14.231 -45.990  24.604  1.00  0.00     0.293 HD
ENDBRANCH   2   3
BRANCH   2   5
ATOM      5  C   UNL     1     -13.659 -44.313  26.278  1.00  0.00     0.032 C 
ATOM      6  C   UNL     1     -13.406 -45.542  27.130  1.00  0.00     0.083 C 
ATOM      7  S   UNL     1     -12.696 -42.923  26.770  1.00  0.00    -0.090 SA
ATOM      8  C   UNL     1     -12.430 -45.146  28.202  1.00  0.00    -0.025 A 
ATOM      9  C   UNL     1     -11.983 -43.826  28.124  1.00  0.00     0.020 A 
ATOM     10  C   UNL     1     -11.971 -45.987  29.213  1.00  0.00     0.055 A 
ATOM     11  C   UNL     1     -11.077 -43.318  29.044  1.00  0.00     0.066 A 
ATOM     12  C   UNL     1     -11.056 -45.493  30.151  1.00  0.00     0.161 A 
ATOM     13  C   UNL     1     -10.607 -44.152  30.066  1.00  0.00     0.161 A 
BRANCH  12  14
ATOM     14  O   UNL     1     -10.541 -46.230  31.189  1.00  0.00    -0.493 OA
ATOM     15  C   UNL     1      -9.323 -46.926  30.972  1.00  0.00     0.278 C 
ENDBRANCH  12  14
BRANCH  13  16
ATOM     16  O   UNL     1      -9.714 -43.759  31.034  1.00  0.00    -0.493 OA
ATOM     17  C   UNL     1      -8.380 -43.484  30.633  1.00  0.00     0.278 C 
ENDBRANCH  13  16
ENDBRANCH   2   5
ENDBRANCH   1   2
BRANCH   1  18
ATOM     18  C   UNL     1     -15.952 -42.778  23.712  1.00  0.00     0.044 C 
BRANCH  18  19
ATOM     19  C   UNL     1     -17.281 -42.076  23.555  1.00  0.00    -0.036 A 
ATOM     20  C   UNL     1     -18.306 -42.274  24.479  1.00  0.00     0.074 A 
ATOM     21  C   UNL     1     -17.525 -41.254  22.456  1.00  0.00     0.074 A 
ATOM     22  C   UNL     1     -19.540 -41.663  24.282  1.00  0.00     0.308 A 
ATOM     23  C   UNL     1     -18.773 -40.666  22.298  1.00  0.00     0.308 A 
ATOM     24  N   UNL     1     -19.756 -40.876  23.204  1.00  0.00    -0.201 N 
BRANCH  24  25
ATOM     25  C   UNL     1     -21.084 -40.249  23.002  1.00  0.00     0.394 C 
BRANCH  25  26
ATOM     26  C   UNL     1     -21.352 -40.071  21.539  1.00  0.00     0.027 A 
ATOM     27  C   UNL     1     -21.764 -41.126  20.653  1.00  0.00     0.022 A 
ATOM     28  C   UNL     1     -21.249 -38.874  20.853  1.00  0.00     0.075 A 
ATOM     29  C   UNL     1     -21.936 -40.692  19.356  1.00  0.00     0.065 A 
ATOM     30  S   UNL     1     -21.611 -39.026  19.189  1.00  0.00    -0.152 S 
ENDBRANCH  25  26
ENDBRANCH  24  25
ENDBRANCH  18  19
ENDBRANCH   1  18
TORSDOF 9
ENDMDL
