MODEL 1
REMARK VINA RESULT:   -11.859      0.000      0.000
REMARK INTER + INTRA:         -16.067
REMARK INTER:                 -15.326
REMARK INTRA:                  -0.742
REMARK UNBOUND:                -0.742
REMARK SMILES COc1cc2c(cc1OC)C(=O)[C@H](CC1CCN(c3ccccc3)CC1)C2
REMARK SMILES IDX 3 1 4 2 5 3 6 4 7 5 8 6 11 7 12 8 13 9 27 10 2 11 1 12 9 13
REMARK SMILES IDX 10 14 14 15 15 16 16 17 26 18 17 19 25 20 18 21 19 22 20 23
REMARK SMILES IDX 24 24 21 25 23 26 22 27
REMARK H PARENT
ROOT
ATOM      1  C   UNL     1     -19.186 -42.091  25.340  1.00  0.00     0.161 A 
ATOM      2  C   UNL     1     -18.225 -42.231  26.355  1.00  0.00     0.055 A 
ATOM      3  C   UNL     1     -16.943 -42.632  26.010  1.00  0.00    -0.033 A 
ATOM      4  C   UNL     1     -16.633 -42.882  24.683  1.00  0.00     0.025 A 
ATOM      5  C   UNL     1     -17.547 -42.754  23.655  1.00  0.00     0.062 A 
ATOM      6  C   UNL     1     -18.844 -42.354  23.984  1.00  0.00     0.161 A 
ATOM      7  C   UNL     1     -15.236 -43.284  24.603  1.00  0.00     0.166 C 
ATOM      8  O   UNL     1     -14.672 -43.537  23.553  1.00  0.00    -0.294 OA
ATOM      9  C   UNL     1     -14.632 -43.330  25.997  1.00  0.00     0.066 C 
ATOM     10  C   UNL     1     -15.773 -42.825  26.920  1.00  0.00     0.048 C 
ENDROOT
BRANCH   1  11
ATOM     11  O   UNL     1     -20.486 -41.702  25.560  1.00  0.00    -0.493 OA
ATOM     12  C   UNL     1     -20.869 -41.394  26.893  1.00  0.00     0.278 C 
ENDBRANCH   1  11
BRANCH   6  13
ATOM     13  O   UNL     1     -19.855 -42.187  23.069  1.00  0.00    -0.493 OA
ATOM     14  C   UNL     1     -19.647 -41.247  22.024  1.00  0.00     0.278 C 
ENDBRANCH   6  13
BRANCH   9  15
ATOM     15  C   UNL     1     -14.179 -44.742  26.392  1.00  0.00     0.016 C 
BRANCH  15  16
ATOM     16  C   UNL     1     -13.315 -44.840  27.666  1.00  0.00    -0.007 C 
ATOM     17  C   UNL     1     -12.291 -43.690  27.685  1.00  0.00     0.025 C 
ATOM     18  C   UNL     1     -12.580 -46.184  27.790  1.00  0.00     0.025 C 
ATOM     19  C   UNL     1     -11.381 -43.769  28.911  1.00  0.00     0.117 C 
ATOM     20  C   UNL     1     -11.645 -46.212  29.002  1.00  0.00     0.117 C 
ATOM     21  N   UNL     1     -10.710 -45.075  28.937  1.00  0.00    -0.372 N 
BRANCH  21  22
ATOM     22  C   UNL     1      -9.619 -45.221  29.814  1.00  0.00     0.037 A 
ATOM     23  C   UNL     1      -8.775 -44.121  30.044  1.00  0.00     0.026 A 
ATOM     24  C   UNL     1      -9.324 -46.408  30.502  1.00  0.00     0.026 A 
ATOM     25  C   UNL     1      -7.679 -44.201  30.907  1.00  0.00     0.002 A 
ATOM     26  C   UNL     1      -8.226 -46.496  31.366  1.00  0.00     0.002 A 
ATOM     27  C   UNL     1      -7.402 -45.393  31.567  1.00  0.00     0.000 A 
ENDBRANCH  21  22
ENDBRANCH  15  16
ENDBRANCH   9  15
TORSDOF 5
ENDMDL
MODEL 2
REMARK VINA RESULT:   -11.188      4.284      8.738
REMARK INTER + INTRA:         -15.200
REMARK INTER:                 -15.686
REMARK INTRA:                   0.486
REMARK UNBOUND:                -0.742
REMARK SMILES COc1cc2c(cc1OC)C(=O)[C@H](CC1CCN(c3ccccc3)CC1)C2
REMARK SMILES IDX 3 1 4 2 5 3 6 4 7 5 8 6 11 7 12 8 13 9 27 10 2 11 1 12 9 13
REMARK SMILES IDX 10 14 14 15 15 16 16 17 26 18 17 19 25 20 18 21 19 22 20 23
REMARK SMILES IDX 24 24 21 25 23 26 22 27
REMARK H PARENT
ROOT
ATOM      1  C   UNL     1     -12.606 -42.772  32.766  1.00  0.00     0.161 A 
ATOM      2  C   UNL     1     -12.879 -43.847  31.905  1.00  0.00     0.055 A 
ATOM      3  C   UNL     1     -11.847 -44.710  31.566  1.00  0.00    -0.033 A 
ATOM      4  C   UNL     1     -10.578 -44.502  32.081  1.00  0.00     0.025 A 
ATOM      5  C   UNL     1     -10.268 -43.459  32.933  1.00  0.00     0.062 A 
ATOM      6  C   UNL     1     -11.294 -42.578  33.281  1.00  0.00     0.161 A 
ATOM      7  C   UNL     1      -9.696 -45.541  31.569  1.00  0.00     0.166 C 
ATOM      8  O   UNL     1      -8.520 -45.633  31.880  1.00  0.00    -0.294 OA
ATOM      9  C   UNL     1     -10.463 -46.450  30.624  1.00  0.00     0.066 C 
ATOM     10  C   UNL     1     -11.920 -45.918  30.687  1.00  0.00     0.048 C 
ENDROOT
BRANCH   1  11
ATOM     11  O   UNL     1     -13.545 -41.853  33.170  1.00  0.00    -0.493 OA
ATOM     12  C   UNL     1     -14.913 -42.156  32.934  1.00  0.00     0.278 C 
ENDBRANCH   1  11
BRANCH   6  13
ATOM     13  O   UNL     1     -11.133 -41.498  34.115  1.00  0.00    -0.493 OA
ATOM     14  C   UNL     1     -10.019 -41.509  34.998  1.00  0.00     0.278 C 
ENDBRANCH   6  13
BRANCH   9  15
ATOM     15  C   UNL     1      -9.914 -46.404  29.192  1.00  0.00     0.016 C 
BRANCH  15  16
ATOM     16  C   UNL     1     -10.857 -45.805  28.128  1.00  0.00    -0.007 C 
ATOM     17  C   UNL     1     -11.122 -44.322  28.450  1.00  0.00     0.025 C 
ATOM     18  C   UNL     1     -12.194 -46.554  28.023  1.00  0.00     0.025 C 
ATOM     19  C   UNL     1     -12.088 -43.694  27.445  1.00  0.00     0.117 C 
ATOM     20  C   UNL     1     -13.153 -45.874  27.043  1.00  0.00     0.117 C 
ATOM     21  N   UNL     1     -13.339 -44.463  27.425  1.00  0.00    -0.372 N 
BRANCH  21  22
ATOM     22  C   UNL     1     -14.448 -43.872  26.790  1.00  0.00     0.037 A 
ATOM     23  C   UNL     1     -14.530 -43.906  25.388  1.00  0.00     0.026 A 
ATOM     24  C   UNL     1     -15.504 -43.256  27.478  1.00  0.00     0.026 A 
ATOM     25  C   UNL     1     -15.607 -43.340  24.700  1.00  0.00     0.002 A 
ATOM     26  C   UNL     1     -16.585 -42.686  26.795  1.00  0.00     0.002 A 
ATOM     27  C   UNL     1     -16.636 -42.727  25.405  1.00  0.00     0.000 A 
ENDBRANCH  21  22
ENDBRANCH  15  16
ENDBRANCH   9  15
TORSDOF 5
ENDMDL
MODEL 3
REMARK VINA RESULT:   -10.495      3.561     10.025
REMARK INTER + INTRA:         -14.305
REMARK INTER:                 -13.732
REMARK INTRA:                  -0.572
REMARK UNBOUND:                -0.742
REMARK SMILES COc1cc2c(cc1OC)C(=O)[C@H](CC1CCN(c3ccccc3)CC1)C2
REMARK SMILES IDX 3 1 4 2 5 3 6 4 7 5 8 6 11 7 12 8 13 9 27 10 2 11 1 12 9 13
REMARK SMILES IDX 10 14 14 15 15 16 16 17 26 18 17 19 25 20 18 21 19 22 20 23
REMARK SMILES IDX 24 24 21 25 23 26 22 27
REMARK H PARENT
ROOT
ATOM      1  C   UNL     1     -10.601 -44.937  31.365  1.00  0.00     0.161 A 
ATOM      2  C   UNL     1     -11.824 -44.438  30.885  1.00  0.00     0.055 A 
ATOM      3  C   UNL     1     -12.305 -44.905  29.671  1.00  0.00    -0.033 A 
ATOM      4  C   UNL     1     -11.582 -45.850  28.961  1.00  0.00     0.025 A 
ATOM      5  C   UNL     1     -10.378 -46.368  29.398  1.00  0.00     0.062 A 
ATOM      6  C   UNL     1      -9.876 -45.906  30.617  1.00  0.00     0.161 A 
ATOM      7  C   UNL     1     -12.305 -46.161  27.736  1.00  0.00     0.166 C 
ATOM      8  O   UNL     1     -11.924 -46.987  26.926  1.00  0.00    -0.294 OA
ATOM      9  C   UNL     1     -13.564 -45.313  27.651  1.00  0.00     0.066 C 
ATOM     10  C   UNL     1     -13.580 -44.526  28.989  1.00  0.00     0.048 C 
ENDROOT
BRANCH   1  11
ATOM     11  O   UNL     1     -10.025 -44.549  32.551  1.00  0.00    -0.493 OA
ATOM     12  C   UNL     1     -10.119 -43.179  32.916  1.00  0.00     0.278 C 
ENDBRANCH   1  11
BRANCH   6  13
ATOM     13  O   UNL     1      -8.694 -46.329  31.174  1.00  0.00    -0.493 OA
ATOM     14  C   UNL     1      -7.516 -45.602  30.850  1.00  0.00     0.278 C 
ENDBRANCH   6  13
BRANCH   9  15
ATOM     15  C   UNL     1     -13.548 -44.362  26.446  1.00  0.00     0.016 C 
BRANCH  15  16
ATOM     16  C   UNL     1     -14.914 -44.103  25.776  1.00  0.00    -0.007 C 
ATOM     17  C   UNL     1     -14.700 -43.746  24.293  1.00  0.00     0.025 C 
ATOM     18  C   UNL     1     -15.717 -42.989  26.463  1.00  0.00     0.025 C 
ATOM     19  C   UNL     1     -16.024 -43.438  23.594  1.00  0.00     0.117 C 
ATOM     20  C   UNL     1     -17.014 -42.676  25.712  1.00  0.00     0.117 C 
ATOM     21  N   UNL     1     -16.711 -42.353  24.307  1.00  0.00    -0.372 N 
BRANCH  21  22
ATOM     22  C   UNL     1     -17.791 -41.734  23.649  1.00  0.00     0.037 A 
ATOM     23  C   UNL     1     -17.568 -41.105  22.413  1.00  0.00     0.026 A 
ATOM     24  C   UNL     1     -19.103 -41.718  24.147  1.00  0.00     0.026 A 
ATOM     25  C   UNL     1     -18.600 -40.477  21.709  1.00  0.00     0.002 A 
ATOM     26  C   UNL     1     -20.140 -41.089  23.449  1.00  0.00     0.002 A 
ATOM     27  C   UNL     1     -19.888 -40.467  22.230  1.00  0.00     0.000 A 
ENDBRANCH  21  22
ENDBRANCH  15  16
ENDBRANCH   9  15
TORSDOF 5
ENDMDL
MODEL 4
REMARK VINA RESULT:   -10.371      1.688      3.070
REMARK INTER + INTRA:         -14.144
REMARK INTER:                 -13.398
REMARK INTRA:                  -0.746
REMARK UNBOUND:                -0.742
REMARK SMILES COc1cc2c(cc1OC)C(=O)[C@H](CC1CCN(c3ccccc3)CC1)C2
REMARK SMILES IDX 3 1 4 2 5 3 6 4 7 5 8 6 11 7 12 8 13 9 27 10 2 11 1 12 9 13
REMARK SMILES IDX 10 14 14 15 15 16 16 17 26 18 17 19 25 20 18 21 19 22 20 23
REMARK SMILES IDX 24 24 21 25 23 26 22 27
REMARK H PARENT
ROOT
ATOM      1  C   UNL     1     -19.667 -41.232  22.819  1.00  0.00     0.161 A 
ATOM      2  C   UNL     1     -18.428 -41.854  22.595  1.00  0.00     0.055 A 
ATOM      3  C   UNL     1     -17.700 -42.304  23.686  1.00  0.00    -0.033 A 
ATOM      4  C   UNL     1     -18.203 -42.137  24.966  1.00  0.00     0.025 A 
ATOM      5  C   UNL     1     -19.417 -41.533  25.230  1.00  0.00     0.062 A 
ATOM      6  C   UNL     1     -20.163 -41.071  24.142  1.00  0.00     0.161 A 
ATOM      7  C   UNL     1     -17.247 -42.691  25.914  1.00  0.00     0.166 C 
ATOM      8  O   UNL     1     -17.437 -42.717  27.118  1.00  0.00    -0.294 OA
ATOM      9  C   UNL     1     -16.027 -43.211  25.172  1.00  0.00     0.066 C 
ATOM     10  C   UNL     1     -16.378 -43.003  23.674  1.00  0.00     0.048 C 
ENDROOT
BRANCH   1  11
ATOM     11  O   UNL     1     -20.476 -40.745  21.819  1.00  0.00    -0.493 OA
ATOM     12  C   UNL     1     -19.868 -39.971  20.794  1.00  0.00     0.278 C 
ENDBRANCH   1  11
BRANCH   6  13
ATOM     13  O   UNL     1     -21.384 -40.451  24.252  1.00  0.00    -0.493 OA
ATOM     14  C   UNL     1     -22.120 -40.656  25.451  1.00  0.00     0.278 C 
ENDBRANCH   6  13
BRANCH   9  15
ATOM     15  C   UNL     1     -14.746 -42.458  25.554  1.00  0.00     0.016 C 
BRANCH  15  16
ATOM     16  C   UNL     1     -13.622 -43.312  26.178  1.00  0.00    -0.007 C 
ATOM     17  C   UNL     1     -14.240 -44.399  27.077  1.00  0.00     0.025 C 
ATOM     18  C   UNL     1     -12.619 -42.481  26.992  1.00  0.00     0.025 C 
ATOM     19  C   UNL     1     -13.163 -45.247  27.752  1.00  0.00     0.117 C 
ATOM     20  C   UNL     1     -11.582 -43.365  27.690  1.00  0.00     0.117 C 
ATOM     21  N   UNL     1     -12.264 -44.374  28.519  1.00  0.00    -0.372 N 
BRANCH  21  22
ATOM     22  C   UNL     1     -11.398 -44.992  29.441  1.00  0.00     0.037 A 
ATOM     23  C   UNL     1     -10.606 -46.072  29.016  1.00  0.00     0.026 A 
ATOM     24  C   UNL     1     -11.259 -44.582  30.775  1.00  0.00     0.026 A 
ATOM     25  C   UNL     1      -9.724 -46.724  29.883  1.00  0.00     0.002 A 
ATOM     26  C   UNL     1     -10.380 -45.233  31.650  1.00  0.00     0.002 A 
ATOM     27  C   UNL     1      -9.613 -46.304  31.203  1.00  0.00     0.000 A 
ENDBRANCH  21  22
ENDBRANCH  15  16
ENDBRANCH   9  15
TORSDOF 5
ENDMDL
MODEL 5
REMARK VINA RESULT:    -9.958      3.574     10.662
REMARK INTER + INTRA:         -13.610
REMARK INTER:                 -12.942
REMARK INTRA:                  -0.668
REMARK UNBOUND:                -0.742
REMARK SMILES COc1cc2c(cc1OC)C(=O)[C@H](CC1CCN(c3ccccc3)CC1)C2
REMARK SMILES IDX 3 1 4 2 5 3 6 4 7 5 8 6 11 7 12 8 13 9 27 10 2 11 1 12 9 13
REMARK SMILES IDX 10 14 14 15 15 16 16 17 26 18 17 19 25 20 18 21 19 22 20 23
REMARK SMILES IDX 24 24 21 25 23 26 22 27
REMARK H PARENT
ROOT
ATOM      1  C   UNL     1     -12.780 -45.647  28.613  1.00  0.00     0.161 A 
ATOM      2  C   UNL     1     -12.789 -45.140  27.303  1.00  0.00     0.055 A 
ATOM      3  C   UNL     1     -13.782 -44.242  26.941  1.00  0.00    -0.033 A 
ATOM      4  C   UNL     1     -14.737 -43.860  27.869  1.00  0.00     0.025 A 
ATOM      5  C   UNL     1     -14.763 -44.333  29.167  1.00  0.00     0.062 A 
ATOM      6  C   UNL     1     -13.772 -45.241  29.548  1.00  0.00     0.161 A 
ATOM      7  C   UNL     1     -15.651 -42.922  27.233  1.00  0.00     0.166 C 
ATOM      8  O   UNL     1     -16.578 -42.390  27.818  1.00  0.00    -0.294 OA
ATOM      9  C   UNL     1     -15.262 -42.731  25.776  1.00  0.00     0.066 C 
ATOM     10  C   UNL     1     -13.967 -43.573  25.617  1.00  0.00     0.048 C 
ENDROOT
BRANCH   1  11
ATOM     11  O   UNL     1     -11.849 -46.541  29.085  1.00  0.00    -0.493 OA
ATOM     12  C   UNL     1     -10.525 -46.449  28.577  1.00  0.00     0.278 C 
ENDBRANCH   1  11
BRANCH   6  13
ATOM     13  O   UNL     1     -13.673 -45.793  30.802  1.00  0.00    -0.493 OA
ATOM     14  C   UNL     1     -13.214 -44.957  31.855  1.00  0.00     0.278 C 
ENDBRANCH   6  13
BRANCH   9  15
ATOM     15  C   UNL     1     -16.357 -43.205  24.811  1.00  0.00     0.016 C 
BRANCH  15  16
ATOM     16  C   UNL     1     -17.218 -42.096  24.171  1.00  0.00    -0.007 C 
ATOM     17  C   UNL     1     -18.699 -42.517  24.190  1.00  0.00     0.025 C 
ATOM     18  C   UNL     1     -16.796 -41.766  22.732  1.00  0.00     0.025 C 
ATOM     19  C   UNL     1     -19.589 -41.467  23.527  1.00  0.00     0.117 C 
ATOM     20  C   UNL     1     -17.734 -40.745  22.083  1.00  0.00     0.117 C 
ATOM     21  N   UNL     1     -19.123 -41.229  22.154  1.00  0.00    -0.372 N 
BRANCH  21  22
ATOM     22  C   UNL     1     -19.987 -40.524  21.295  1.00  0.00     0.037 A 
ATOM     23  C   UNL     1     -20.648 -41.220  20.268  1.00  0.00     0.026 A 
ATOM     24  C   UNL     1     -20.251 -39.150  21.409  1.00  0.00     0.026 A 
ATOM     25  C   UNL     1     -21.520 -40.577  19.386  1.00  0.00     0.002 A 
ATOM     26  C   UNL     1     -21.122 -38.500  20.527  1.00  0.00     0.002 A 
ATOM     27  C   UNL     1     -21.756 -39.213  19.515  1.00  0.00     0.000 A 
ENDBRANCH  21  22
ENDBRANCH  15  16
ENDBRANCH   9  15
TORSDOF 5
ENDMDL
MODEL 6
REMARK VINA RESULT:    -9.922      3.496     10.185
REMARK INTER + INTRA:         -13.564
REMARK INTER:                 -13.477
REMARK INTRA:                  -0.088
REMARK UNBOUND:                -0.742
REMARK SMILES COc1cc2c(cc1OC)C(=O)[C@H](CC1CCN(c3ccccc3)CC1)C2
REMARK SMILES IDX 3 1 4 2 5 3 6 4 7 5 8 6 11 7 12 8 13 9 27 10 2 11 1 12 9 13
REMARK SMILES IDX 10 14 14 15 15 16 16 17 26 18 17 19 25 20 18 21 19 22 20 23
REMARK SMILES IDX 24 24 21 25 23 26 22 27
REMARK H PARENT
ROOT
ATOM      1  C   UNL     1      -9.170 -45.232  30.873  1.00  0.00     0.161 A 
ATOM      2  C   UNL     1     -10.034 -46.000  30.074  1.00  0.00     0.055 A 
ATOM      3  C   UNL     1     -10.811 -45.357  29.121  1.00  0.00    -0.033 A 
ATOM      4  C   UNL     1     -10.719 -43.983  28.971  1.00  0.00     0.025 A 
ATOM      5  C   UNL     1      -9.881 -43.191  29.733  1.00  0.00     0.062 A 
ATOM      6  C   UNL     1      -9.094 -43.822  30.701  1.00  0.00     0.161 A 
ATOM      7  C   UNL     1     -11.632 -43.571  27.914  1.00  0.00     0.166 C 
ATOM      8  O   UNL     1     -11.742 -42.418  27.537  1.00  0.00    -0.294 OA
ATOM      9  C   UNL     1     -12.388 -44.780  27.387  1.00  0.00     0.066 C 
ATOM     10  C   UNL     1     -11.775 -45.977  28.162  1.00  0.00     0.048 C 
ENDROOT
BRANCH   1  11
ATOM     11  O   UNL     1      -8.356 -45.756  31.848  1.00  0.00    -0.493 OA
ATOM     12  C   UNL     1      -7.045 -46.156  31.473  1.00  0.00     0.278 C 
ENDBRANCH   1  11
BRANCH   6  13
ATOM     13  O   UNL     1      -8.218 -43.165  31.530  1.00  0.00    -0.493 OA
ATOM     14  C   UNL     1      -8.567 -43.058  32.904  1.00  0.00     0.278 C 
ENDBRANCH   6  13
BRANCH   9  15
ATOM     15  C   UNL     1     -13.900 -44.675  27.628  1.00  0.00     0.016 C 
BRANCH  15  16
ATOM     16  C   UNL     1     -14.643 -43.613  26.791  1.00  0.00    -0.007 C 
ATOM     17  C   UNL     1     -15.999 -43.295  27.448  1.00  0.00     0.025 C 
ATOM     18  C   UNL     1     -14.867 -44.048  25.334  1.00  0.00     0.025 C 
ATOM     19  C   UNL     1     -16.794 -42.277  26.630  1.00  0.00     0.117 C 
ATOM     20  C   UNL     1     -15.703 -43.027  24.558  1.00  0.00     0.117 C 
ATOM     21  N   UNL     1     -16.974 -42.783  25.263  1.00  0.00    -0.372 N 
BRANCH  21  22
ATOM     22  C   UNL     1     -17.924 -42.131  24.455  1.00  0.00     0.037 A 
ATOM     23  C   UNL     1     -17.571 -41.762  23.146  1.00  0.00     0.026 A 
ATOM     24  C   UNL     1     -19.231 -41.835  24.872  1.00  0.00     0.026 A 
ATOM     25  C   UNL     1     -18.472 -41.116  22.294  1.00  0.00     0.002 A 
ATOM     26  C   UNL     1     -20.137 -41.186  24.025  1.00  0.00     0.002 A 
ATOM     27  C   UNL     1     -19.757 -40.826  22.737  1.00  0.00     0.000 A 
ENDBRANCH  21  22
ENDBRANCH  15  16
ENDBRANCH   9  15
TORSDOF 5
ENDMDL
MODEL 7
REMARK VINA RESULT:    -8.965      3.225     10.171
REMARK INTER + INTRA:         -12.328
REMARK INTER:                 -11.709
REMARK INTRA:                  -0.618
REMARK UNBOUND:                -0.742
REMARK SMILES COc1cc2c(cc1OC)C(=O)[C@H](CC1CCN(c3ccccc3)CC1)C2
REMARK SMILES IDX 3 1 4 2 5 3 6 4 7 5 8 6 11 7 12 8 13 9 27 10 2 11 1 12 9 13
REMARK SMILES IDX 10 14 14 15 15 16 16 17 26 18 17 19 25 20 18 21 19 22 20 23
REMARK SMILES IDX 24 24 21 25 23 26 22 27
REMARK H PARENT
ROOT
ATOM      1  C   UNL     1     -10.657 -44.353  29.733  1.00  0.00     0.161 A 
ATOM      2  C   UNL     1     -11.985 -44.806  29.678  1.00  0.00     0.055 A 
ATOM      3  C   UNL     1     -12.775 -44.430  28.602  1.00  0.00    -0.033 A 
ATOM      4  C   UNL     1     -12.246 -43.626  27.606  1.00  0.00     0.025 A 
ATOM      5  C   UNL     1     -10.944 -43.161  27.620  1.00  0.00     0.062 A 
ATOM      6  C   UNL     1     -10.135 -43.527  28.699  1.00  0.00     0.161 A 
ATOM      7  C   UNL     1     -13.278 -43.385  26.608  1.00  0.00     0.166 C 
ATOM      8  O   UNL     1     -13.090 -42.735  25.595  1.00  0.00    -0.294 OA
ATOM      9  C   UNL     1     -14.573 -44.059  27.033  1.00  0.00     0.066 C 
ATOM     10  C   UNL     1     -14.197 -44.810  28.339  1.00  0.00     0.048 C 
ENDROOT
BRANCH   1  11
ATOM     11  O   UNL     1      -9.781 -44.657  30.748  1.00  0.00    -0.493 OA
ATOM     12  C   UNL     1      -9.208 -45.957  30.760  1.00  0.00     0.278 C 
ENDBRANCH   1  11
BRANCH   6  13
ATOM     13  O   UNL     1      -8.826 -43.139  28.846  1.00  0.00    -0.493 OA
ATOM     14  C   UNL     1      -8.290 -42.250  27.876  1.00  0.00     0.278 C 
ENDBRANCH   6  13
BRANCH   9  15
ATOM     15  C   UNL     1     -15.704 -43.051  27.275  1.00  0.00     0.016 C 
BRANCH  15  16
ATOM     16  C   UNL     1     -16.844 -43.055  26.236  1.00  0.00    -0.007 C 
ATOM     17  C   UNL     1     -16.314 -42.535  24.887  1.00  0.00     0.025 C 
ATOM     18  C   UNL     1     -18.055 -42.215  26.671  1.00  0.00     0.025 C 
ATOM     19  C   UNL     1     -17.420 -42.480  23.833  1.00  0.00     0.117 C 
ATOM     20  C   UNL     1     -19.122 -42.146  25.576  1.00  0.00     0.117 C 
ATOM     21  N   UNL     1     -18.523 -41.645  24.327  1.00  0.00    -0.372 N 
BRANCH  21  22
ATOM     22  C   UNL     1     -19.490 -41.236  23.389  1.00  0.00     0.037 A 
ATOM     23  C   UNL     1     -19.120 -41.104  22.039  1.00  0.00     0.026 A 
ATOM     24  C   UNL     1     -20.827 -40.964  23.714  1.00  0.00     0.026 A 
ATOM     25  C   UNL     1     -20.035 -40.706  21.060  1.00  0.00     0.002 A 
ATOM     26  C   UNL     1     -21.748 -40.563  22.739  1.00  0.00     0.002 A 
ATOM     27  C   UNL     1     -21.351 -40.432  21.412  1.00  0.00     0.000 A 
ENDBRANCH  21  22
ENDBRANCH  15  16
ENDBRANCH   9  15
TORSDOF 5
ENDMDL
MODEL 8
REMARK VINA RESULT:    -8.882      2.106      4.284
REMARK INTER + INTRA:         -12.220
REMARK INTER:                 -11.523
REMARK INTRA:                  -0.696
REMARK UNBOUND:                -0.742
REMARK SMILES COc1cc2c(cc1OC)C(=O)[C@H](CC1CCN(c3ccccc3)CC1)C2
REMARK SMILES IDX 3 1 4 2 5 3 6 4 7 5 8 6 11 7 12 8 13 9 27 10 2 11 1 12 9 13
REMARK SMILES IDX 10 14 14 15 15 16 16 17 26 18 17 19 25 20 18 21 19 22 20 23
REMARK SMILES IDX 24 24 21 25 23 26 22 27
REMARK H PARENT
ROOT
ATOM      1  C   UNL     1     -21.755 -40.031  23.051  1.00  0.00     0.161 A 
ATOM      2  C   UNL     1     -20.534 -40.575  22.619  1.00  0.00     0.055 A 
ATOM      3  C   UNL     1     -19.816 -41.379  23.492  1.00  0.00    -0.033 A 
ATOM      4  C   UNL     1     -20.311 -41.633  24.761  1.00  0.00     0.025 A 
ATOM      5  C   UNL     1     -21.508 -41.120  25.223  1.00  0.00     0.062 A 
ATOM      6  C   UNL     1     -22.243 -40.305  24.358  1.00  0.00     0.161 A 
ATOM      7  C   UNL     1     -19.369 -42.494  25.461  1.00  0.00     0.166 C 
ATOM      8  O   UNL     1     -19.557 -42.912  26.590  1.00  0.00    -0.294 OA
ATOM      9  C   UNL     1     -18.165 -42.769  24.575  1.00  0.00     0.066 C 
ATOM     10  C   UNL     1     -18.514 -42.068  23.235  1.00  0.00     0.048 C 
ENDROOT
BRANCH   1  11
ATOM     11  O   UNL     1     -22.552 -39.220  22.277  1.00  0.00    -0.493 OA
ATOM     12  C   UNL     1     -21.984 -38.662  21.100  1.00  0.00     0.278 C 
ENDBRANCH   1  11
BRANCH   6  13
ATOM     13  O   UNL     1     -23.446 -39.726  24.681  1.00  0.00    -0.493 OA
ATOM     14  C   UNL     1     -23.677 -39.406  26.047  1.00  0.00     0.278 C 
ENDBRANCH   6  13
BRANCH   9  15
ATOM     15  C   UNL     1     -16.863 -42.217  25.170  1.00  0.00     0.016 C 
BRANCH  15  16
ATOM     16  C   UNL     1     -15.869 -43.269  25.707  1.00  0.00    -0.007 C 
ATOM     17  C   UNL     1     -15.778 -43.156  27.240  1.00  0.00     0.025 C 
ATOM     18  C   UNL     1     -14.466 -43.133  25.098  1.00  0.00     0.025 C 
ATOM     19  C   UNL     1     -14.771 -44.151  27.817  1.00  0.00     0.117 C 
ATOM     20  C   UNL     1     -13.474 -44.113  25.728  1.00  0.00     0.117 C 
ATOM     21  N   UNL     1     -13.460 -43.936  27.191  1.00  0.00    -0.372 N 
BRANCH  21  22
ATOM     22  C   UNL     1     -12.348 -44.549  27.800  1.00  0.00     0.037 A 
ATOM     23  C   UNL     1     -11.277 -43.748  28.230  1.00  0.00     0.026 A 
ATOM     24  C   UNL     1     -12.246 -45.930  28.026  1.00  0.00     0.026 A 
ATOM     25  C   UNL     1     -10.148 -44.297  28.845  1.00  0.00     0.002 A 
ATOM     26  C   UNL     1     -11.116 -46.486  28.639  1.00  0.00     0.002 A 
ATOM     27  C   UNL     1     -10.067 -45.670  29.048  1.00  0.00     0.000 A 
ENDBRANCH  21  22
ENDBRANCH  15  16
ENDBRANCH   9  15
TORSDOF 5
ENDMDL
