MODEL 1
REMARK VINA RESULT:    -9.731      0.000      0.000
REMARK INTER + INTRA:         -10.016
REMARK INTER:                 -10.016
REMARK INTRA:                   0.000
REMARK UNBOUND:                 0.000
REMARK SMILES CC1=C[C@@H]2Cc3[nH]c4cc(Cl)ccc4c(=N)c3[C@H](C1)C2
REMARK SMILES IDX 7 1 6 2 17 3 15 4 14 5 13 6 12 7 10 8 11 9 9 10 8 11 18 12
REMARK SMILES IDX 19 13 2 14 1 15 3 16 4 17 5 18 20 19 16 21
REMARK H PARENT 7 20 16 22
ROOT
ATOM      1  N   UNL     1     -13.446 -45.089  26.864  1.00  0.00    -0.358 N 
ATOM      2  C   UNL     1     -13.107 -45.358  28.171  1.00  0.00     0.021 A 
ATOM      3  C   UNL     1     -13.806 -44.884  29.224  1.00  0.00     0.000 A 
ATOM      4  C   UNL     1     -15.000 -44.011  28.966  1.00  0.00     0.068 A 
ATOM      5  C   UNL     1     -15.302 -43.659  27.540  1.00  0.00     0.023 A 
ATOM      6  C   UNL     1     -16.355 -42.801  27.188  1.00  0.00     0.014 A 
ATOM      7  C   UNL     1     -16.603 -42.509  25.844  1.00  0.00     0.021 A 
ATOM      8  C   UNL     1     -15.806 -43.073  24.852  1.00  0.00     0.043 A 
ATOM      9  Cl  UNL     1     -16.122 -42.719  23.198  1.00  0.00    -0.084 Cl
ATOM     10  C   UNL     1     -14.754 -43.923  25.190  1.00  0.00     0.047 A 
ATOM     11  C   UNL     1     -14.485 -44.209  26.534  1.00  0.00     0.049 A 
ATOM     12  C   UNL     1     -13.456 -45.204  30.669  1.00  0.00     0.028 C 
ATOM     13  C   UNL     1     -12.639 -44.056  31.306  1.00  0.00     0.039 C 
ATOM     14  C   UNL     1     -11.170 -44.063  30.919  1.00  0.00    -0.076 C 
ATOM     15  C   UNL     1     -10.377 -42.856  31.327  1.00  0.00     0.039 C 
ATOM     16  C   UNL     1     -10.624 -45.090  30.240  1.00  0.00    -0.024 C 
ATOM     17  C   UNL     1     -11.408 -46.326  29.844  1.00  0.00     0.018 C 
ATOM     18  C   UNL     1     -11.875 -46.228  28.378  1.00  0.00     0.062 C 
ATOM     19  C   UNL     1     -12.635 -46.498  30.744  1.00  0.00     0.017 C 
ATOM     20  H   UNL     1     -12.784 -45.348  26.142  1.00  0.00     0.166 HD
ENDROOT
BRANCH   4  21
ATOM     21  N   UNL     1     -15.709 -43.600  29.974  1.00  0.00    -0.300 NA
ATOM     22  H   UNL     1     -16.707 -43.568  29.778  1.00  0.00     0.188 HD
ENDBRANCH   4  21
TORSDOF 1
ENDMDL
MODEL 2
REMARK VINA RESULT:    -9.531      2.039      3.140
REMARK INTER + INTRA:          -9.809
REMARK INTER:                  -9.809
REMARK INTRA:                   0.000
REMARK UNBOUND:                 0.000
REMARK SMILES CC1=C[C@@H]2Cc3[nH]c4cc(Cl)ccc4c(=N)c3[C@H](C1)C2
REMARK SMILES IDX 7 1 6 2 17 3 15 4 14 5 13 6 12 7 10 8 11 9 9 10 8 11 18 12
REMARK SMILES IDX 19 13 2 14 1 15 3 16 4 17 5 18 20 19 16 21
REMARK H PARENT 7 20 16 22
ROOT
ATOM      1  N   UNL     1     -10.765 -43.233  27.870  1.00  0.00    -0.358 N 
ATOM      2  C   UNL     1     -10.138 -43.860  28.923  1.00  0.00     0.021 A 
ATOM      3  C   UNL     1     -10.732 -44.819  29.666  1.00  0.00     0.000 A 
ATOM      4  C   UNL     1     -12.145 -45.213  29.343  1.00  0.00     0.068 A 
ATOM      5  C   UNL     1     -12.838 -44.458  28.248  1.00  0.00     0.023 A 
ATOM      6  C   UNL     1     -14.177 -44.700  27.905  1.00  0.00     0.014 A 
ATOM      7  C   UNL     1     -14.778 -43.977  26.871  1.00  0.00     0.021 A 
ATOM      8  C   UNL     1     -14.047 -43.017  26.178  1.00  0.00     0.043 A 
ATOM      9  Cl  UNL     1     -14.788 -42.136  24.900  1.00  0.00    -0.084 Cl
ATOM     10  C   UNL     1     -12.718 -42.764  26.514  1.00  0.00     0.047 A 
ATOM     11  C   UNL     1     -12.109 -43.470  27.559  1.00  0.00     0.049 A 
ATOM     12  C   UNL     1     -10.035 -45.538  30.810  1.00  0.00     0.028 C 
ATOM     13  C   UNL     1     -10.423 -44.915  32.172  1.00  0.00     0.039 C 
ATOM     14  C   UNL     1      -9.679 -43.629  32.490  1.00  0.00    -0.076 C 
ATOM     15  C   UNL     1     -10.167 -42.867  33.686  1.00  0.00     0.039 C 
ATOM     16  C   UNL     1      -8.652 -43.201  31.730  1.00  0.00    -0.024 C 
ATOM     17  C   UNL     1      -8.134 -43.975  30.533  1.00  0.00     0.018 C 
ATOM     18  C   UNL     1      -8.716 -43.407  29.223  1.00  0.00     0.062 C 
ATOM     19  C   UNL     1      -8.512 -45.455  30.643  1.00  0.00     0.017 C 
ATOM     20  H   UNL     1     -10.311 -42.420  27.469  1.00  0.00     0.166 HD
ENDROOT
BRANCH   4  21
ATOM     21  N   UNL     1     -12.700 -46.174  30.018  1.00  0.00    -0.300 NA
ATOM     22  H   UNL     1     -13.433 -45.852  30.646  1.00  0.00     0.188 HD
ENDBRANCH   4  21
TORSDOF 1
ENDMDL
MODEL 3
REMARK VINA RESULT:    -8.934      1.838      2.764
REMARK INTER + INTRA:          -9.195
REMARK INTER:                  -9.195
REMARK INTRA:                   0.000
REMARK UNBOUND:                 0.000
REMARK SMILES CC1=C[C@@H]2Cc3[nH]c4cc(Cl)ccc4c(=N)c3[C@H](C1)C2
REMARK SMILES IDX 7 1 6 2 17 3 15 4 14 5 13 6 12 7 10 8 11 9 9 10 8 11 18 12
REMARK SMILES IDX 19 13 2 14 1 15 3 16 4 17 5 18 20 19 16 21
REMARK H PARENT 7 20 16 22
ROOT
ATOM      1  N   UNL     1     -12.310 -42.756  27.630  1.00  0.00    -0.358 N 
ATOM      2  C   UNL     1     -11.818 -43.603  28.597  1.00  0.00     0.021 A 
ATOM      3  C   UNL     1     -12.031 -44.936  28.583  1.00  0.00     0.000 A 
ATOM      4  C   UNL     1     -12.853 -45.526  27.472  1.00  0.00     0.068 A 
ATOM      5  C   UNL     1     -13.450 -44.576  26.478  1.00  0.00     0.023 A 
ATOM      6  C   UNL     1     -14.284 -45.011  25.437  1.00  0.00     0.014 A 
ATOM      7  C   UNL     1     -14.812 -44.090  24.529  1.00  0.00     0.021 A 
ATOM      8  C   UNL     1     -14.507 -42.738  24.654  1.00  0.00     0.043 A 
ATOM      9  Cl  UNL     1     -15.149 -41.608  23.528  1.00  0.00    -0.084 Cl
ATOM     10  C   UNL     1     -13.683 -42.293  25.687  1.00  0.00     0.047 A 
ATOM     11  C   UNL     1     -13.162 -43.205  26.614  1.00  0.00     0.049 A 
ATOM     12  C   UNL     1     -11.464 -45.882  29.630  1.00  0.00     0.028 C 
ATOM     13  C   UNL     1     -12.522 -46.208  30.710  1.00  0.00     0.039 C 
ATOM     14  C   UNL     1     -12.692 -45.114  31.749  1.00  0.00    -0.076 C 
ATOM     15  C   UNL     1     -13.850 -45.275  32.690  1.00  0.00     0.039 C 
ATOM     16  C   UNL     1     -11.855 -44.060  31.808  1.00  0.00    -0.024 C 
ATOM     17  C   UNL     1     -10.667 -43.897  30.880  1.00  0.00     0.018 C 
ATOM     18  C   UNL     1     -11.013 -42.951  29.713  1.00  0.00     0.062 C 
ATOM     19  C   UNL     1     -10.240 -45.253  30.309  1.00  0.00     0.017 C 
ATOM     20  H   UNL     1     -12.242 -41.758  27.799  1.00  0.00     0.166 HD
ENDROOT
BRANCH   4  21
ATOM     21  N   UNL     1     -13.011 -46.814  27.423  1.00  0.00    -0.300 NA
ATOM     22  H   UNL     1     -12.851 -47.204  26.497  1.00  0.00     0.188 HD
ENDBRANCH   4  21
TORSDOF 1
ENDMDL
MODEL 4
REMARK VINA RESULT:    -8.666      4.063      7.096
REMARK INTER + INTRA:          -8.920
REMARK INTER:                  -8.920
REMARK INTRA:                   0.000
REMARK UNBOUND:                 0.000
REMARK SMILES CC1=C[C@@H]2Cc3[nH]c4cc(Cl)ccc4c(=N)c3[C@H](C1)C2
REMARK SMILES IDX 7 1 6 2 17 3 15 4 14 5 13 6 12 7 10 8 11 9 9 10 8 11 18 12
REMARK SMILES IDX 19 13 2 14 1 15 3 16 4 17 5 18 20 19 16 21
REMARK H PARENT 7 20 16 22
ROOT
ATOM      1  N   UNL     1     -11.997 -43.747  32.474  1.00  0.00    -0.358 N 
ATOM      2  C   UNL     1     -12.277 -44.486  31.347  1.00  0.00     0.021 A 
ATOM      3  C   UNL     1     -11.318 -45.025  30.564  1.00  0.00     0.000 A 
ATOM      4  C   UNL     1      -9.878 -44.800  30.926  1.00  0.00     0.068 A 
ATOM      5  C   UNL     1      -9.593 -43.921  32.106  1.00  0.00     0.023 A 
ATOM      6  C   UNL     1      -8.286 -43.593  32.496  1.00  0.00     0.014 A 
ATOM      7  C   UNL     1      -8.068 -42.777  33.609  1.00  0.00     0.021 A 
ATOM      8  C   UNL     1      -9.152 -42.291  34.336  1.00  0.00     0.043 A 
ATOM      9  Cl  UNL     1      -8.880 -41.295  35.712  1.00  0.00    -0.084 Cl
ATOM     10  C   UNL     1     -10.455 -42.606  33.956  1.00  0.00     0.047 A 
ATOM     11  C   UNL     1     -10.686 -43.409  32.831  1.00  0.00     0.049 A 
ATOM     12  C   UNL     1     -11.622 -45.869  29.336  1.00  0.00     0.028 C 
ATOM     13  C   UNL     1     -11.526 -45.021  28.046  1.00  0.00     0.039 C 
ATOM     14  C   UNL     1     -12.750 -44.158  27.790  1.00  0.00    -0.076 C 
ATOM     15  C   UNL     1     -12.627 -43.156  26.679  1.00  0.00     0.039 C 
ATOM     16  C   UNL     1     -13.869 -44.283  28.528  1.00  0.00    -0.024 C 
ATOM     17  C   UNL     1     -14.016 -45.308  29.637  1.00  0.00     0.018 C 
ATOM     18  C   UNL     1     -13.752 -44.664  31.013  1.00  0.00     0.062 C 
ATOM     19  C   UNL     1     -13.033 -46.465  29.435  1.00  0.00     0.017 C 
ATOM     20  H   UNL     1     -12.762 -43.247  32.913  1.00  0.00     0.166 HD
ENDROOT
BRANCH   4  21
ATOM     21  N   UNL     1      -8.954 -45.364  30.208  1.00  0.00    -0.300 NA
ATOM     22  H   UNL     1      -8.957 -45.059  29.237  1.00  0.00     0.188 HD
ENDBRANCH   4  21
TORSDOF 1
ENDMDL
MODEL 5
REMARK VINA RESULT:    -8.439      6.021     10.707
REMARK INTER + INTRA:          -8.685
REMARK INTER:                  -8.685
REMARK INTRA:                   0.000
REMARK UNBOUND:                 0.000
REMARK SMILES CC1=C[C@@H]2Cc3[nH]c4cc(Cl)ccc4c(=N)c3[C@H](C1)C2
REMARK SMILES IDX 7 1 6 2 17 3 15 4 14 5 13 6 12 7 10 8 11 9 9 10 8 11 18 12
REMARK SMILES IDX 19 13 2 14 1 15 3 16 4 17 5 18 20 19 16 21
REMARK H PARENT 7 20 16 22
ROOT
ATOM      1  N   UNL     1     -17.990 -40.895  21.781  1.00  0.00    -0.358 N 
ATOM      2  C   UNL     1     -19.245 -40.387  21.531  1.00  0.00     0.021 A 
ATOM      3  C   UNL     1     -20.243 -40.416  22.440  1.00  0.00     0.000 A 
ATOM      4  C   UNL     1     -19.983 -41.042  23.780  1.00  0.00     0.068 A 
ATOM      5  C   UNL     1     -18.637 -41.665  24.001  1.00  0.00     0.023 A 
ATOM      6  C   UNL     1     -18.308 -42.331  25.191  1.00  0.00     0.014 A 
ATOM      7  C   UNL     1     -17.037 -42.890  25.355  1.00  0.00     0.021 A 
ATOM      8  C   UNL     1     -16.095 -42.782  24.336  1.00  0.00     0.043 A 
ATOM      9  Cl  UNL     1     -14.529 -43.462  24.545  1.00  0.00    -0.084 Cl
ATOM     10  C   UNL     1     -16.413 -42.127  23.147  1.00  0.00     0.047 A 
ATOM     11  C   UNL     1     -17.688 -41.579  22.964  1.00  0.00     0.049 A 
ATOM     12  C   UNL     1     -21.621 -39.828  22.183  1.00  0.00     0.028 C 
ATOM     13  C   UNL     1     -22.621 -40.930  21.760  1.00  0.00     0.039 C 
ATOM     14  C   UNL     1     -22.495 -41.344  20.303  1.00  0.00    -0.076 C 
ATOM     15  C   UNL     1     -23.282 -42.553  19.893  1.00  0.00     0.039 C 
ATOM     16  C   UNL     1     -21.711 -40.666  19.443  1.00  0.00    -0.024 C 
ATOM     17  C   UNL     1     -20.929 -39.429  19.838  1.00  0.00     0.018 C 
ATOM     18  C   UNL     1     -19.462 -39.786  20.149  1.00  0.00     0.062 C 
ATOM     19  C   UNL     1     -21.551 -38.770  21.074  1.00  0.00     0.017 C 
ATOM     20  H   UNL     1     -17.351 -40.978  20.998  1.00  0.00     0.166 HD
ENDROOT
BRANCH   4  21
ATOM     21  N   UNL     1     -20.922 -41.020  24.677  1.00  0.00    -0.300 NA
ATOM     22  H   UNL     1     -21.812 -41.376  24.336  1.00  0.00     0.188 HD
ENDBRANCH   4  21
TORSDOF 1
ENDMDL
MODEL 6
REMARK VINA RESULT:    -8.410      4.588      9.039
REMARK INTER + INTRA:          -8.656
REMARK INTER:                  -8.656
REMARK INTRA:                   0.000
REMARK UNBOUND:                 0.000
REMARK SMILES CC1=C[C@@H]2Cc3[nH]c4cc(Cl)ccc4c(=N)c3[C@H](C1)C2
REMARK SMILES IDX 7 1 6 2 17 3 15 4 14 5 13 6 12 7 10 8 11 9 9 10 8 11 18 12
REMARK SMILES IDX 19 13 2 14 1 15 3 16 4 17 5 18 20 19 16 21
REMARK H PARENT 7 20 16 22
ROOT
ATOM      1  N   UNL     1     -17.902 -42.219  23.917  1.00  0.00    -0.358 N 
ATOM      2  C   UNL     1     -19.204 -41.793  23.775  1.00  0.00     0.021 A 
ATOM      3  C   UNL     1     -20.003 -41.510  24.826  1.00  0.00     0.000 A 
ATOM      4  C   UNL     1     -19.458 -41.680  26.215  1.00  0.00     0.068 A 
ATOM      5  C   UNL     1     -18.068 -42.226  26.349  1.00  0.00     0.023 A 
ATOM      6  C   UNL     1     -17.483 -42.482  27.598  1.00  0.00     0.014 A 
ATOM      7  C   UNL     1     -16.181 -42.984  27.673  1.00  0.00     0.021 A 
ATOM      8  C   UNL     1     -15.461 -43.227  26.506  1.00  0.00     0.043 A 
ATOM      9  Cl  UNL     1     -13.855 -43.834  26.603  1.00  0.00    -0.084 Cl
ATOM     10  C   UNL     1     -16.035 -42.980  25.260  1.00  0.00     0.047 A 
ATOM     11  C   UNL     1     -17.345 -42.494  25.171  1.00  0.00     0.049 A 
ATOM     12  C   UNL     1     -21.431 -41.009  24.676  1.00  0.00     0.028 C 
ATOM     13  C   UNL     1     -22.443 -42.168  24.833  1.00  0.00     0.039 C 
ATOM     14  C   UNL     1     -22.584 -43.028  23.588  1.00  0.00    -0.076 C 
ATOM     15  C   UNL     1     -23.380 -44.290  23.748  1.00  0.00     0.039 C 
ATOM     16  C   UNL     1     -22.015 -42.677  22.419  1.00  0.00    -0.024 C 
ATOM     17  C   UNL     1     -21.229 -41.393  22.238  1.00  0.00     0.018 C 
ATOM     18  C   UNL     1     -19.714 -41.662  22.346  1.00  0.00     0.062 C 
ATOM     19  C   UNL     1     -21.627 -40.363  23.298  1.00  0.00     0.017 C 
ATOM     20  H   UNL     1     -17.426 -42.561  23.090  1.00  0.00     0.166 HD
ENDROOT
BRANCH   4  21
ATOM     21  N   UNL     1     -20.204 -41.354  27.227  1.00  0.00    -0.300 NA
ATOM     22  H   UNL     1     -21.105 -41.828  27.232  1.00  0.00     0.188 HD
ENDBRANCH   4  21
TORSDOF 1
ENDMDL
MODEL 7
REMARK VINA RESULT:    -8.275      5.012      9.673
REMARK INTER + INTRA:          -8.517
REMARK INTER:                  -8.517
REMARK INTRA:                   0.000
REMARK UNBOUND:                 0.000
REMARK SMILES CC1=C[C@@H]2Cc3[nH]c4cc(Cl)ccc4c(=N)c3[C@H](C1)C2
REMARK SMILES IDX 7 1 6 2 17 3 15 4 14 5 13 6 12 7 10 8 11 9 9 10 8 11 18 12
REMARK SMILES IDX 19 13 2 14 1 15 3 16 4 17 5 18 20 19 16 21
REMARK H PARENT 7 20 16 22
ROOT
ATOM      1  N   UNL     1     -20.258 -42.166  25.806  1.00  0.00    -0.358 N 
ATOM      2  C   UNL     1     -20.657 -42.125  24.489  1.00  0.00     0.021 A 
ATOM      3  C   UNL     1     -19.813 -42.345  23.458  1.00  0.00     0.000 A 
ATOM      4  C   UNL     1     -18.370 -42.635  23.754  1.00  0.00     0.068 A 
ATOM      5  C   UNL     1     -17.938 -42.590  25.189  1.00  0.00     0.023 A 
ATOM      6  C   UNL     1     -16.602 -42.784  25.575  1.00  0.00     0.014 A 
ATOM      7  C   UNL     1     -16.248 -42.741  26.926  1.00  0.00     0.021 A 
ATOM      8  C   UNL     1     -17.223 -42.510  27.892  1.00  0.00     0.043 A 
ATOM      9  Cl  UNL     1     -16.785 -42.470  29.555  1.00  0.00    -0.084 Cl
ATOM     10  C   UNL     1     -18.552 -42.312  27.521  1.00  0.00     0.047 A 
ATOM     11  C   UNL     1     -18.916 -42.335  26.169  1.00  0.00     0.049 A 
ATOM     12  C   UNL     1     -20.255 -42.333  22.003  1.00  0.00     0.028 C 
ATOM     13  C   UNL     1     -19.941 -40.969  21.343  1.00  0.00     0.039 C 
ATOM     14  C   UNL     1     -20.943 -39.880  21.685  1.00  0.00    -0.076 C 
ATOM     15  C   UNL     1     -20.575 -38.490  21.255  1.00  0.00     0.039 C 
ATOM     16  C   UNL     1     -22.084 -40.153  22.346  1.00  0.00    -0.024 C 
ATOM     17  C   UNL     1     -22.480 -41.555  22.764  1.00  0.00     0.018 C 
ATOM     18  C   UNL     1     -22.125 -41.804  24.244  1.00  0.00     0.062 C 
ATOM     19  C   UNL     1     -21.762 -42.598  21.901  1.00  0.00     0.017 C 
ATOM     20  H   UNL     1     -20.911 -41.835  26.507  1.00  0.00     0.166 HD
ENDROOT
BRANCH   4  21
ATOM     21  N   UNL     1     -17.567 -42.903  22.769  1.00  0.00    -0.300 NA
ATOM     22  H   UNL     1     -16.903 -42.157  22.576  1.00  0.00     0.188 HD
ENDBRANCH   4  21
TORSDOF 1
ENDMDL
MODEL 8
REMARK VINA RESULT:    -8.244      4.685      5.758
REMARK INTER + INTRA:          -8.485
REMARK INTER:                  -8.485
REMARK INTRA:                   0.000
REMARK UNBOUND:                 0.000
REMARK SMILES CC1=C[C@@H]2Cc3[nH]c4cc(Cl)ccc4c(=N)c3[C@H](C1)C2
REMARK SMILES IDX 7 1 6 2 17 3 15 4 14 5 13 6 12 7 10 8 11 9 9 10 8 11 18 12
REMARK SMILES IDX 19 13 2 14 1 15 3 16 4 17 5 18 20 19 16 21
REMARK H PARENT 7 20 16 22
ROOT
ATOM      1  N   UNL     1     -11.960 -42.449  31.392  1.00  0.00    -0.358 N 
ATOM      2  C   UNL     1     -11.290 -43.353  30.599  1.00  0.00     0.021 A 
ATOM      3  C   UNL     1     -11.579 -44.672  30.583  1.00  0.00     0.000 A 
ATOM      4  C   UNL     1     -12.670 -45.184  31.480  1.00  0.00     0.068 A 
ATOM      5  C   UNL     1     -13.327 -44.198  32.397  1.00  0.00     0.023 A 
ATOM      6  C   UNL     1     -14.314 -44.579  33.320  1.00  0.00     0.014 A 
ATOM      7  C   UNL     1     -14.905 -43.622  34.150  1.00  0.00     0.021 A 
ATOM      8  C   UNL     1     -14.517 -42.289  34.059  1.00  0.00     0.043 A 
ATOM      9  Cl  UNL     1     -15.255 -41.113  35.074  1.00  0.00    -0.084 Cl
ATOM     10  C   UNL     1     -13.535 -41.900  33.149  1.00  0.00     0.047 A 
ATOM     11  C   UNL     1     -12.923 -42.852  32.325  1.00  0.00     0.049 A 
ATOM     12  C   UNL     1     -10.865 -45.671  29.686  1.00  0.00     0.028 C 
ATOM     13  C   UNL     1      -9.752 -46.413  30.462  1.00  0.00     0.039 C 
ATOM     14  C   UNL     1      -8.477 -45.604  30.624  1.00  0.00    -0.076 C 
ATOM     15  C   UNL     1      -7.446 -46.181  31.550  1.00  0.00     0.039 C 
ATOM     16  C   UNL     1      -8.296 -44.435  29.980  1.00  0.00    -0.024 C 
ATOM     17  C   UNL     1      -9.318 -43.854  29.023  1.00  0.00     0.018 C 
ATOM     18  C   UNL     1     -10.178 -42.785  29.727  1.00  0.00     0.062 C 
ATOM     19  C   UNL     1     -10.238 -44.954  28.483  1.00  0.00     0.017 C 
ATOM     20  H   UNL     1     -11.579 -41.512  31.463  1.00  0.00     0.166 HD
ENDROOT
BRANCH   4  21
ATOM     21  N   UNL     1     -12.989 -46.442  31.425  1.00  0.00    -0.300 NA
ATOM     22  H   UNL     1     -13.379 -46.796  32.296  1.00  0.00     0.188 HD
ENDBRANCH   4  21
TORSDOF 1
ENDMDL
MODEL 9
REMARK VINA RESULT:    -7.964      7.643      9.705
REMARK INTER + INTRA:          -8.197
REMARK INTER:                  -8.197
REMARK INTRA:                   0.000
REMARK UNBOUND:                 0.000
REMARK SMILES CC1=C[C@@H]2Cc3[nH]c4cc(Cl)ccc4c(=N)c3[C@H](C1)C2
REMARK SMILES IDX 7 1 6 2 17 3 15 4 14 5 13 6 12 7 10 8 11 9 9 10 8 11 18 12
REMARK SMILES IDX 19 13 2 14 1 15 3 16 4 17 5 18 20 19 16 21
REMARK H PARENT 7 20 16 22
ROOT
ATOM      1  N   UNL     1     -21.743 -39.843  23.339  1.00  0.00    -0.358 N 
ATOM      2  C   UNL     1     -21.127 -40.594  24.314  1.00  0.00     0.021 A 
ATOM      3  C   UNL     1     -19.928 -41.188  24.136  1.00  0.00     0.000 A 
ATOM      4  C   UNL     1     -19.236 -41.039  22.811  1.00  0.00     0.068 A 
ATOM      5  C   UNL     1     -19.963 -40.290  21.735  1.00  0.00     0.023 A 
ATOM      6  C   UNL     1     -19.438 -40.143  20.442  1.00  0.00     0.014 A 
ATOM      7  C   UNL     1     -20.148 -39.429  19.473  1.00  0.00     0.021 A 
ATOM      8  C   UNL     1     -21.377 -38.858  19.792  1.00  0.00     0.043 A 
ATOM      9  Cl  UNL     1     -22.243 -37.971  18.600  1.00  0.00    -0.084 Cl
ATOM     10  C   UNL     1     -21.910 -39.002  21.072  1.00  0.00     0.047 A 
ATOM     11  C   UNL     1     -21.216 -39.730  22.046  1.00  0.00     0.049 A 
ATOM     12  C   UNL     1     -19.227 -41.992  25.220  1.00  0.00     0.028 C 
ATOM     13  C   UNL     1     -19.468 -43.508  25.026  1.00  0.00     0.039 C 
ATOM     14  C   UNL     1     -20.827 -43.977  25.517  1.00  0.00    -0.076 C 
ATOM     15  C   UNL     1     -21.204 -45.385  25.161  1.00  0.00     0.039 C 
ATOM     16  C   UNL     1     -21.643 -43.168  26.220  1.00  0.00    -0.024 C 
ATOM     17  C   UNL     1     -21.264 -41.752  26.608  1.00  0.00     0.018 C 
ATOM     18  C   UNL     1     -21.882 -40.734  25.629  1.00  0.00     0.062 C 
ATOM     19  C   UNL     1     -19.741 -41.581  26.606  1.00  0.00     0.017 C 
ATOM     20  H   UNL     1     -22.706 -39.567  23.494  1.00  0.00     0.166 HD
ENDROOT
BRANCH   4  21
ATOM     21  N   UNL     1     -18.057 -41.561  22.655  1.00  0.00    -0.300 NA
ATOM     22  H   UNL     1     -18.000 -42.198  21.863  1.00  0.00     0.188 HD
ENDBRANCH   4  21
TORSDOF 1
ENDMDL
