MODEL 1
REMARK VINA RESULT:   -13.200      0.000      0.000
REMARK INTER + INTRA:         -19.508
REMARK INTER:                 -18.601
REMARK INTRA:                  -0.907
REMARK UNBOUND:                -0.907
REMARK SMILES Cc1cc(=O)[nH]c2c1C(=O)C(NCCCCNc1c3c(nc4cc(Cl)ccc14)CCCC3)=CC2=O
REMARK SMILES IDX 14 1 13 2 12 3 11 5 2 6 3 7 8 8 4 9 7 10 9 11 6 12 34 13
REMARK SMILES IDX 33 14 1 15 5 16 10 17 35 19 15 20 16 21 17 22 18 24 19 25
REMARK SMILES IDX 28 26 20 27 32 28 27 29 22 30 21 31 29 32 31 33 26 34 23 35
REMARK SMILES IDX 30 36 24 37 25 38
REMARK H PARENT 12 4 6 18 17 23
ROOT
ATOM      1  C   UNL     1     -12.951 -45.711  27.460  1.00  0.00     0.023 C 
ENDROOT
BRANCH   1   2
ATOM      2  C   UNL     1     -12.859 -44.195  27.637  1.00  0.00     0.113 C 
BRANCH   2   3
ATOM      3  N   UNL     1     -14.168 -43.574  27.700  1.00  0.00    -0.382 N 
ATOM      4  H   UNL     1     -14.316 -42.945  28.500  1.00  0.00     0.160 HD
BRANCH   3   5
ATOM      5  C   UNL     1     -14.986 -43.211  26.633  1.00  0.00     0.087 C 
ATOM      6  C   UNL     1     -18.771 -42.094  26.200  1.00  0.00    -0.032 A 
ATOM      7  C   UNL     1     -19.586 -41.769  25.177  1.00  0.00     0.075 A 
ATOM      8  C   UNL     1     -17.368 -42.455  25.932  1.00  0.00     0.055 A 
ATOM      9  C   UNL     1     -19.094 -41.767  23.780  1.00  0.00     0.248 A 
ATOM     10  C   UNL     1     -16.939 -42.451  24.658  1.00  0.00     0.101 A 
ATOM     11  C   UNL     1     -16.398 -42.818  27.013  1.00  0.00     0.211 C 
ATOM     12  N   UNL     1     -17.784 -42.116  23.622  1.00  0.00    -0.319 N 
ATOM     13  C   UNL     1     -15.547 -42.799  24.277  1.00  0.00     0.205 C 
ATOM     14  C   UNL     1     -14.623 -43.186  25.346  1.00  0.00     0.084 C 
ATOM     15  C   UNL     1     -19.307 -42.089  27.606  1.00  0.00     0.045 C 
ATOM     16  O   UNL     1     -19.829 -41.472  22.847  1.00  0.00    -0.270 OA
ATOM     17  O   UNL     1     -16.694 -42.800  28.208  1.00  0.00    -0.287 OA
ATOM     18  H   UNL     1     -17.414 -42.125  22.675  1.00  0.00     0.170 HD
ATOM     19  O   UNL     1     -15.178 -42.768  23.108  1.00  0.00    -0.288 OA
ENDBRANCH   3   5
ENDBRANCH   2   3
ENDBRANCH   1   2
BRANCH   1  20
ATOM     20  C   UNL     1     -12.645 -46.540  28.714  1.00  0.00     0.023 C 
BRANCH  20  21
ATOM     21  C   UNL     1     -11.275 -46.243  29.322  1.00  0.00     0.113 C 
BRANCH  21  22
ATOM     22  N   UNL     1     -11.284 -46.382  30.789  1.00  0.00    -0.384 N 
ATOM     23  H   UNL     1     -10.585 -47.070  31.070  1.00  0.00     0.160 HD
BRANCH  22  24
ATOM     24  C   UNL     1     -11.014 -45.176  31.499  1.00  0.00     0.049 A 
ATOM     25  C   UNL     1      -9.669 -44.846  31.764  1.00  0.00    -0.003 A 
ATOM     26  C   UNL     1     -12.054 -44.310  31.944  1.00  0.00     0.024 A 
ATOM     27  C   UNL     1      -9.418 -43.710  32.534  1.00  0.00     0.046 A 
ATOM     28  C   UNL     1      -8.535 -45.707  31.261  1.00  0.00     0.039 C 
ATOM     29  C   UNL     1     -13.431 -44.496  31.662  1.00  0.00     0.014 A 
ATOM     30  C   UNL     1     -11.673 -43.184  32.704  1.00  0.00     0.074 A 
ATOM     31  N   UNL     1     -10.399 -42.901  32.999  1.00  0.00    -0.252 NA
ATOM     32  C   UNL     1      -8.016 -43.255  32.847  1.00  0.00     0.056 C 
ATOM     33  C   UNL     1      -7.174 -45.013  31.290  1.00  0.00     0.005 C 
ATOM     34  C   UNL     1     -14.395 -43.608  32.138  1.00  0.00     0.021 A 
ATOM     35  C   UNL     1     -12.646 -42.315  33.173  1.00  0.00     0.049 A 
ATOM     36  C   UNL     1      -6.960 -44.337  32.637  1.00  0.00     0.007 C 
ATOM     37  C   UNL     1     -13.994 -42.520  32.898  1.00  0.00     0.043 A 
ATOM     38  Cl  UNL     1     -15.171 -41.416  33.497  1.00  0.00    -0.084 Cl
ENDBRANCH  22  24
ENDBRANCH  21  22
ENDBRANCH  20  21
ENDBRANCH   1  20
TORSDOF 7
ENDMDL
MODEL 2
REMARK VINA RESULT:   -12.675      1.703      3.519
REMARK INTER + INTRA:         -18.768
REMARK INTER:                 -17.815
REMARK INTRA:                  -0.953
REMARK UNBOUND:                -0.907
REMARK SMILES Cc1cc(=O)[nH]c2c1C(=O)C(NCCCCNc1c3c(nc4cc(Cl)ccc14)CCCC3)=CC2=O
REMARK SMILES IDX 14 1 13 2 12 3 11 5 2 6 3 7 8 8 4 9 7 10 9 11 6 12 34 13
REMARK SMILES IDX 33 14 1 15 5 16 10 17 35 19 15 20 16 21 17 22 18 24 19 25
REMARK SMILES IDX 28 26 20 27 32 28 27 29 22 30 21 31 29 32 31 33 26 34 23 35
REMARK SMILES IDX 30 36 24 37 25 38
REMARK H PARENT 12 4 6 18 17 23
ROOT
ATOM      1  C   UNL     1     -12.952 -45.718  27.599  1.00  0.00     0.023 C 
ENDROOT
BRANCH   1   2
ATOM      2  C   UNL     1     -12.895 -44.191  27.635  1.00  0.00     0.113 C 
BRANCH   2   3
ATOM      3  N   UNL     1     -14.217 -43.598  27.687  1.00  0.00    -0.382 N 
ATOM      4  H   UNL     1     -14.385 -42.974  28.486  1.00  0.00     0.160 HD
BRANCH   3   5
ATOM      5  C   UNL     1     -15.032 -43.248  26.613  1.00  0.00     0.087 C 
ATOM      6  C   UNL     1     -18.782 -42.022  26.167  1.00  0.00    -0.032 A 
ATOM      7  C   UNL     1     -19.595 -41.710  25.139  1.00  0.00     0.075 A 
ATOM      8  C   UNL     1     -17.394 -42.440  25.902  1.00  0.00     0.055 A 
ATOM      9  C   UNL     1     -19.116 -41.778  23.738  1.00  0.00     0.248 A 
ATOM     10  C   UNL     1     -16.977 -42.500  24.625  1.00  0.00     0.101 A 
ATOM     11  C   UNL     1     -16.427 -42.794  26.989  1.00  0.00     0.211 C 
ATOM     12  N   UNL     1     -17.820 -42.177  23.584  1.00  0.00    -0.319 N 
ATOM     13  C   UNL     1     -15.601 -42.909  24.247  1.00  0.00     0.205 C 
ATOM     14  C   UNL     1     -14.681 -43.286  25.323  1.00  0.00     0.084 C 
ATOM     15  C   UNL     1     -19.304 -41.945  27.575  1.00  0.00     0.045 C 
ATOM     16  O   UNL     1     -19.849 -41.494  22.801  1.00  0.00    -0.270 OA
ATOM     17  O   UNL     1     -16.711 -42.720  28.184  1.00  0.00    -0.287 OA
ATOM     18  H   UNL     1     -17.460 -42.235  22.635  1.00  0.00     0.170 HD
ATOM     19  O   UNL     1     -15.242 -42.936  23.075  1.00  0.00    -0.288 OA
ENDBRANCH   3   5
ENDBRANCH   2   3
ENDBRANCH   1   2
BRANCH   1  20
ATOM     20  C   UNL     1     -11.711 -46.436  28.145  1.00  0.00     0.023 C 
BRANCH  20  21
ATOM     21  C   UNL     1     -10.865 -45.569  29.078  1.00  0.00     0.113 C 
BRANCH  21  22
ATOM     22  N   UNL     1     -11.019 -45.968  30.487  1.00  0.00    -0.384 N 
ATOM     23  H   UNL     1     -10.353 -46.710  30.705  1.00  0.00     0.160 HD
BRANCH  22  24
ATOM     24  C   UNL     1     -10.815 -44.915  31.426  1.00  0.00     0.049 A 
ATOM     25  C   UNL     1     -11.947 -44.239  31.924  1.00  0.00    -0.003 A 
ATOM     26  C   UNL     1      -9.515 -44.533  31.864  1.00  0.00     0.024 A 
ATOM     27  C   UNL     1     -11.734 -43.154  32.774  1.00  0.00     0.046 A 
ATOM     28  C   UNL     1     -13.346 -44.650  31.527  1.00  0.00     0.039 C 
ATOM     29  C   UNL     1      -8.315 -45.196  31.498  1.00  0.00     0.014 A 
ATOM     30  C   UNL     1      -9.429 -43.427  32.736  1.00  0.00     0.074 A 
ATOM     31  N   UNL     1     -10.501 -42.753  33.166  1.00  0.00    -0.252 NA
ATOM     32  C   UNL     1     -12.877 -42.383  33.383  1.00  0.00     0.056 C 
ATOM     33  C   UNL     1     -14.435 -44.089  32.442  1.00  0.00     0.005 C 
ATOM     34  C   UNL     1      -7.076 -44.759  31.963  1.00  0.00     0.021 A 
ATOM     35  C   UNL     1      -8.187 -43.004  33.184  1.00  0.00     0.049 A 
ATOM     36  C   UNL     1     -14.210 -42.602  32.673  1.00  0.00     0.007 C 
ATOM     37  C   UNL     1      -7.019 -43.658  32.804  1.00  0.00     0.043 A 
ATOM     38  Cl  UNL     1      -5.496 -43.104  33.384  1.00  0.00    -0.084 Cl
ENDBRANCH  22  24
ENDBRANCH  21  22
ENDBRANCH  20  21
ENDBRANCH   1  20
TORSDOF 7
ENDMDL
MODEL 3
REMARK VINA RESULT:   -12.555      1.326      2.244
REMARK INTER + INTRA:         -18.599
REMARK INTER:                 -17.644
REMARK INTRA:                  -0.955
REMARK UNBOUND:                -0.907
REMARK SMILES Cc1cc(=O)[nH]c2c1C(=O)C(NCCCCNc1c3c(nc4cc(Cl)ccc14)CCCC3)=CC2=O
REMARK SMILES IDX 14 1 13 2 12 3 11 5 2 6 3 7 8 8 4 9 7 10 9 11 6 12 34 13
REMARK SMILES IDX 33 14 1 15 5 16 10 17 35 19 15 20 16 21 17 22 18 24 19 25
REMARK SMILES IDX 28 26 20 27 32 28 27 29 22 30 21 31 29 32 31 33 26 34 23 35
REMARK SMILES IDX 30 36 24 37 25 38
REMARK H PARENT 12 4 6 18 17 23
ROOT
ATOM      1  C   UNL     1     -13.196 -45.525  27.061  1.00  0.00     0.023 C 
ENDROOT
BRANCH   1   2
ATOM      2  C   UNL     1     -13.112 -44.013  26.852  1.00  0.00     0.113 C 
BRANCH   2   3
ATOM      3  N   UNL     1     -14.229 -43.507  26.079  1.00  0.00    -0.382 N 
ATOM      4  H   UNL     1     -14.297 -43.871  25.120  1.00  0.00     0.160 HD
BRANCH   3   5
ATOM      5  C   UNL     1     -15.484 -43.128  26.550  1.00  0.00     0.087 C 
ATOM      6  C   UNL     1     -18.898 -41.938  24.911  1.00  0.00    -0.032 A 
ATOM      7  C   UNL     1     -20.109 -41.539  25.349  1.00  0.00     0.075 A 
ATOM      8  C   UNL     1     -17.860 -42.325  25.882  1.00  0.00     0.055 A 
ATOM      9  C   UNL     1     -20.417 -41.484  26.797  1.00  0.00     0.248 A 
ATOM     10  C   UNL     1     -18.155 -42.266  27.192  1.00  0.00     0.101 A 
ATOM     11  C   UNL     1     -16.495 -42.788  25.476  1.00  0.00     0.211 C 
ATOM     12  N   UNL     1     -19.398 -41.857  27.625  1.00  0.00    -0.319 N 
ATOM     13  C   UNL     1     -17.184 -42.632  28.253  1.00  0.00     0.205 C 
ATOM     14  C   UNL     1     -15.842 -43.048  27.836  1.00  0.00     0.084 C 
ATOM     15  C   UNL     1     -18.620 -41.978  23.434  1.00  0.00     0.045 C 
ATOM     16  O   UNL     1     -21.515 -41.125  27.201  1.00  0.00    -0.270 OA
ATOM     17  O   UNL     1     -16.158 -42.917  24.299  1.00  0.00    -0.287 OA
ATOM     18  H   UNL     1     -19.576 -41.830  28.626  1.00  0.00     0.170 HD
ATOM     19  O   UNL     1     -17.487 -42.587  29.440  1.00  0.00    -0.288 OA
ENDBRANCH   3   5
ENDBRANCH   2   3
ENDBRANCH   1   2
BRANCH   1  20
ATOM     20  C   UNL     1     -12.970 -46.004  28.501  1.00  0.00     0.023 C 
BRANCH  20  21
ATOM     21  C   UNL     1     -11.627 -45.566  29.085  1.00  0.00     0.113 C 
BRANCH  21  22
ATOM     22  N   UNL     1     -11.501 -45.934  30.506  1.00  0.00    -0.384 N 
ATOM     23  H   UNL     1     -10.761 -46.629  30.614  1.00  0.00     0.160 HD
BRANCH  22  24
ATOM     24  C   UNL     1     -11.200 -44.844  31.375  1.00  0.00     0.049 A 
ATOM     25  C   UNL     1      -9.846 -44.578  31.664  1.00  0.00    -0.003 A 
ATOM     26  C   UNL     1     -12.218 -44.033  31.953  1.00  0.00     0.024 A 
ATOM     27  C   UNL     1      -9.564 -43.566  32.583  1.00  0.00     0.046 A 
ATOM     28  C   UNL     1      -8.734 -45.379  31.028  1.00  0.00     0.039 C 
ATOM     29  C   UNL     1     -13.602 -44.154  31.667  1.00  0.00     0.014 A 
ATOM     30  C   UNL     1     -11.807 -43.032  32.858  1.00  0.00     0.074 A 
ATOM     31  N   UNL     1     -10.525 -42.814  33.171  1.00  0.00    -0.252 NA
ATOM     32  C   UNL     1      -8.151 -43.184  32.937  1.00  0.00     0.056 C 
ATOM     33  C   UNL     1      -7.361 -44.718  31.136  1.00  0.00     0.005 C 
ATOM     34  C   UNL     1     -14.543 -43.327  32.278  1.00  0.00     0.021 A 
ATOM     35  C   UNL     1     -12.758 -42.221  33.459  1.00  0.00     0.049 A 
ATOM     36  C   UNL     1      -7.118 -44.242  32.561  1.00  0.00     0.007 C 
ATOM     37  C   UNL     1     -14.113 -42.363  33.177  1.00  0.00     0.043 A 
ATOM     38  Cl  UNL     1     -15.262 -41.335  33.942  1.00  0.00    -0.084 Cl
ENDBRANCH  22  24
ENDBRANCH  21  22
ENDBRANCH  20  21
ENDBRANCH   1  20
TORSDOF 7
ENDMDL
MODEL 4
REMARK VINA RESULT:   -11.933      4.089     10.870
REMARK INTER + INTRA:         -17.723
REMARK INTER:                 -17.176
REMARK INTRA:                  -0.547
REMARK UNBOUND:                -0.907
REMARK SMILES Cc1cc(=O)[nH]c2c1C(=O)C(NCCCCNc1c3c(nc4cc(Cl)ccc14)CCCC3)=CC2=O
REMARK SMILES IDX 14 1 13 2 12 3 11 5 2 6 3 7 8 8 4 9 7 10 9 11 6 12 34 13
REMARK SMILES IDX 33 14 1 15 5 16 10 17 35 19 15 20 16 21 17 22 18 24 19 25
REMARK SMILES IDX 28 26 20 27 32 28 27 29 22 30 21 31 29 32 31 33 26 34 23 35
REMARK SMILES IDX 30 36 24 37 25 38
REMARK H PARENT 12 4 6 18 17 23
ROOT
ATOM      1  C   UNL     1     -14.958 -43.050  25.412  1.00  0.00     0.023 C 
ENDROOT
BRANCH   1   2
ATOM      2  C   UNL     1     -14.181 -44.248  25.957  1.00  0.00     0.113 C 
BRANCH   2   3
ATOM      3  N   UNL     1     -13.805 -44.068  27.346  1.00  0.00    -0.382 N 
ATOM      4  H   UNL     1     -14.318 -44.652  28.017  1.00  0.00     0.160 HD
BRANCH   3   5
ATOM      5  C   UNL     1     -12.549 -43.732  27.847  1.00  0.00     0.087 C 
ATOM      6  C   UNL     1     -10.208 -45.052  30.769  1.00  0.00    -0.032 A 
ATOM      7  C   UNL     1      -9.008 -44.723  31.287  1.00  0.00     0.075 A 
ATOM      8  C   UNL     1     -10.746 -44.289  29.629  1.00  0.00     0.055 A 
ATOM      9  C   UNL     1      -8.215 -43.602  30.729  1.00  0.00     0.248 A 
ATOM     10  C   UNL     1     -10.016 -43.274  29.136  1.00  0.00     0.101 A 
ATOM     11  C   UNL     1     -12.065 -44.598  28.990  1.00  0.00     0.211 C 
ATOM     12  N   UNL     1      -8.790 -42.950  29.677  1.00  0.00    -0.319 N 
ATOM     13  C   UNL     1     -10.464 -42.442  27.992  1.00  0.00     0.205 C 
ATOM     14  C   UNL     1     -11.774 -42.737  27.405  1.00  0.00     0.084 C 
ATOM     15  C   UNL     1     -10.985 -46.193  31.364  1.00  0.00     0.045 C 
ATOM     16  O   UNL     1      -7.125 -43.300  31.194  1.00  0.00    -0.270 OA
ATOM     17  O   UNL     1     -12.774 -45.539  29.347  1.00  0.00    -0.287 OA
ATOM     18  H   UNL     1      -8.273 -42.175  29.270  1.00  0.00     0.170 HD
ATOM     19  O   UNL     1      -9.768 -41.533  27.551  1.00  0.00    -0.288 OA
ENDBRANCH   3   5
ENDBRANCH   2   3
ENDBRANCH   1   2
BRANCH   1  20
ATOM     20  C   UNL     1     -15.284 -43.103  23.914  1.00  0.00     0.023 C 
BRANCH  20  21
ATOM     21  C   UNL     1     -16.236 -41.998  23.457  1.00  0.00     0.113 C 
BRANCH  21  22
ATOM     22  N   UNL     1     -17.530 -42.539  23.007  1.00  0.00    -0.384 N 
ATOM     23  H   UNL     1     -17.662 -43.473  23.397  1.00  0.00     0.160 HD
BRANCH  22  24
ATOM     24  C   UNL     1     -18.661 -41.754  23.377  1.00  0.00     0.049 A 
ATOM     25  C   UNL     1     -19.144 -41.861  24.697  1.00  0.00    -0.003 A 
ATOM     26  C   UNL     1     -19.307 -40.879  22.458  1.00  0.00     0.024 A 
ATOM     27  C   UNL     1     -20.302 -41.156  25.025  1.00  0.00     0.046 A 
ATOM     28  C   UNL     1     -18.453 -42.734  25.718  1.00  0.00     0.039 C 
ATOM     29  C   UNL     1     -18.859 -40.627  21.135  1.00  0.00     0.014 A 
ATOM     30  C   UNL     1     -20.464 -40.209  22.911  1.00  0.00     0.074 A 
ATOM     31  N   UNL     1     -20.951 -40.352  24.148  1.00  0.00    -0.252 NA
ATOM     32  C   UNL     1     -20.882 -41.180  26.415  1.00  0.00     0.056 C 
ATOM     33  C   UNL     1     -18.857 -42.432  27.160  1.00  0.00     0.005 C 
ATOM     34  C   UNL     1     -19.550 -39.761  20.289  1.00  0.00     0.021 A 
ATOM     35  C   UNL     1     -21.139 -39.355  22.053  1.00  0.00     0.049 A 
ATOM     36  C   UNL     1     -20.372 -42.336  27.271  1.00  0.00     0.007 C 
ATOM     37  C   UNL     1     -20.693 -39.130  20.754  1.00  0.00     0.043 A 
ATOM     38  Cl  UNL     1     -21.559 -38.060  19.722  1.00  0.00    -0.084 Cl
ENDBRANCH  22  24
ENDBRANCH  21  22
ENDBRANCH  20  21
ENDBRANCH   1  20
TORSDOF 7
ENDMDL
MODEL 5
REMARK VINA RESULT:   -11.584      3.950     11.082
REMARK INTER + INTRA:         -17.231
REMARK INTER:                 -16.694
REMARK INTRA:                  -0.537
REMARK UNBOUND:                -0.907
REMARK SMILES Cc1cc(=O)[nH]c2c1C(=O)C(NCCCCNc1c3c(nc4cc(Cl)ccc14)CCCC3)=CC2=O
REMARK SMILES IDX 14 1 13 2 12 3 11 5 2 6 3 7 8 8 4 9 7 10 9 11 6 12 34 13
REMARK SMILES IDX 33 14 1 15 5 16 10 17 35 19 15 20 16 21 17 22 18 24 19 25
REMARK SMILES IDX 28 26 20 27 32 28 27 29 22 30 21 31 29 32 31 33 26 34 23 35
REMARK SMILES IDX 30 36 24 37 25 38
REMARK H PARENT 12 4 6 18 17 23
ROOT
ATOM      1  C   UNL     1     -15.253 -42.776  25.074  1.00  0.00     0.023 C 
ENDROOT
BRANCH   1   2
ATOM      2  C   UNL     1     -14.522 -43.866  25.858  1.00  0.00     0.113 C 
BRANCH   2   3
ATOM      3  N   UNL     1     -14.345 -43.508  27.252  1.00  0.00    -0.382 N 
ATOM      4  H   UNL     1     -15.172 -43.103  27.708  1.00  0.00     0.160 HD
BRANCH   3   5
ATOM      5  C   UNL     1     -13.526 -44.133  28.189  1.00  0.00     0.087 C 
ATOM      6  C   UNL     1      -9.704 -43.890  29.237  1.00  0.00    -0.032 A 
ATOM      7  C   UNL     1      -8.888 -44.505  30.117  1.00  0.00     0.075 A 
ATOM      8  C   UNL     1     -11.123 -44.279  29.161  1.00  0.00     0.055 A 
ATOM      9  C   UNL     1      -9.395 -45.569  31.014  1.00  0.00     0.248 A 
ATOM     10  C   UNL     1     -11.566 -45.248  29.980  1.00  0.00     0.101 A 
ATOM     11  C   UNL     1     -12.095 -43.638  28.219  1.00  0.00     0.211 C 
ATOM     12  N   UNL     1     -10.719 -45.867  30.875  1.00  0.00    -0.319 N 
ATOM     13  C   UNL     1     -12.974 -45.716  29.986  1.00  0.00     0.205 C 
ATOM     14  C   UNL     1     -13.901 -45.101  29.031  1.00  0.00     0.084 C 
ATOM     15  C   UNL     1      -9.153 -42.817  28.339  1.00  0.00     0.045 C 
ATOM     16  O   UNL     1      -8.659 -46.129  31.815  1.00  0.00    -0.270 OA
ATOM     17  O   UNL     1     -11.785 -42.712  27.470  1.00  0.00    -0.287 OA
ATOM     18  H   UNL     1     -11.100 -46.593  31.476  1.00  0.00     0.170 HD
ATOM     19  O   UNL     1     -13.355 -46.589  30.757  1.00  0.00    -0.288 OA
ENDBRANCH   3   5
ENDBRANCH   2   3
ENDBRANCH   1   2
BRANCH   1  20
ATOM     20  C   UNL     1     -15.750 -43.187  23.682  1.00  0.00     0.023 C 
BRANCH  20  21
ATOM     21  C   UNL     1     -16.574 -42.104  22.985  1.00  0.00     0.113 C 
BRANCH  21  22
ATOM     22  N   UNL     1     -17.927 -42.578  22.645  1.00  0.00    -0.384 N 
ATOM     23  H   UNL     1     -18.089 -43.486  23.081  1.00  0.00     0.160 HD
BRANCH  22  24
ATOM     24  C   UNL     1     -18.979 -41.708  23.056  1.00  0.00     0.049 A 
ATOM     25  C   UNL     1     -19.453 -41.814  24.379  1.00  0.00    -0.003 A 
ATOM     26  C   UNL     1     -19.556 -40.751  22.174  1.00  0.00     0.024 A 
ATOM     27  C   UNL     1     -20.539 -41.020  24.746  1.00  0.00     0.046 A 
ATOM     28  C   UNL     1     -18.829 -42.777  25.362  1.00  0.00     0.039 C 
ATOM     29  C   UNL     1     -19.105 -40.497  20.853  1.00  0.00     0.014 A 
ATOM     30  C   UNL     1     -20.644 -39.996  22.665  1.00  0.00     0.074 A 
ATOM     31  N   UNL     1     -21.126 -40.135  23.905  1.00  0.00    -0.252 NA
ATOM     32  C   UNL     1     -21.101 -41.037  26.144  1.00  0.00     0.056 C 
ATOM     33  C   UNL     1     -19.187 -42.487  26.819  1.00  0.00     0.005 C 
ATOM     34  C   UNL     1     -19.726 -39.547  20.045  1.00  0.00     0.021 A 
ATOM     35  C   UNL     1     -21.251 -39.058  21.844  1.00  0.00     0.049 A 
ATOM     36  C   UNL     1     -20.686 -42.261  26.956  1.00  0.00     0.007 C 
ATOM     37  C   UNL     1     -20.803 -38.833  20.546  1.00  0.00     0.043 A 
ATOM     38  Cl  UNL     1     -21.584 -37.658  19.560  1.00  0.00    -0.084 Cl
ENDBRANCH  22  24
ENDBRANCH  21  22
ENDBRANCH  20  21
ENDBRANCH   1  20
TORSDOF 7
ENDMDL
MODEL 6
REMARK VINA RESULT:   -11.025      3.725     10.859
REMARK INTER + INTRA:         -16.444
REMARK INTER:                 -16.202
REMARK INTRA:                  -0.242
REMARK UNBOUND:                -0.907
REMARK SMILES Cc1cc(=O)[nH]c2c1C(=O)C(NCCCCNc1c3c(nc4cc(Cl)ccc14)CCCC3)=CC2=O
REMARK SMILES IDX 14 1 13 2 12 3 11 5 2 6 3 7 8 8 4 9 7 10 9 11 6 12 34 13
REMARK SMILES IDX 33 14 1 15 5 16 10 17 35 19 15 20 16 21 17 22 18 24 19 25
REMARK SMILES IDX 28 26 20 27 32 28 27 29 22 30 21 31 29 32 31 33 26 34 23 35
REMARK SMILES IDX 30 36 24 37 25 38
REMARK H PARENT 12 4 6 18 17 23
ROOT
ATOM      1  C   UNL     1     -14.945 -43.283  26.461  1.00  0.00     0.023 C 
ENDROOT
BRANCH   1   2
ATOM      2  C   UNL     1     -13.433 -43.487  26.360  1.00  0.00     0.113 C 
BRANCH   2   3
ATOM      3  N   UNL     1     -12.706 -42.627  27.274  1.00  0.00    -0.382 N 
ATOM      4  H   UNL     1     -13.290 -42.016  27.858  1.00  0.00     0.160 HD
BRANCH   3   5
ATOM      5  C   UNL     1     -11.494 -42.895  27.905  1.00  0.00     0.087 C 
ATOM      6  C   UNL     1     -10.253 -45.374  30.747  1.00  0.00    -0.032 A 
ATOM      7  C   UNL     1      -9.096 -45.626  31.391  1.00  0.00     0.075 A 
ATOM      8  C   UNL     1     -10.297 -44.337  29.702  1.00  0.00     0.055 A 
ATOM      9  C   UNL     1      -7.861 -44.876  31.065  1.00  0.00     0.248 A 
ATOM     10  C   UNL     1      -9.169 -43.663  29.420  1.00  0.00     0.101 A 
ATOM     11  C   UNL     1     -11.540 -44.004  28.935  1.00  0.00     0.211 C 
ATOM     12  N   UNL     1      -7.993 -43.933  30.087  1.00  0.00    -0.319 N 
ATOM     13  C   UNL     1      -9.103 -42.599  28.388  1.00  0.00     0.205 C 
ATOM     14  C   UNL     1     -10.338 -42.264  27.674  1.00  0.00     0.084 C 
ATOM     15  C   UNL     1     -11.488 -46.153  31.108  1.00  0.00     0.045 C 
ATOM     16  O   UNL     1      -6.808 -45.102  31.645  1.00  0.00    -0.270 OA
ATOM     17  O   UNL     1     -12.603 -44.604  29.095  1.00  0.00    -0.287 OA
ATOM     18  H   UNL     1      -7.164 -43.399  29.839  1.00  0.00     0.170 HD
ATOM     19  O   UNL     1      -8.055 -42.014  28.139  1.00  0.00    -0.288 OA
ENDBRANCH   3   5
ENDBRANCH   2   3
ENDBRANCH   1   2
BRANCH   1  20
ATOM     20  C   UNL     1     -15.700 -43.283  25.125  1.00  0.00     0.023 C 
BRANCH  20  21
ATOM     21  C   UNL     1     -17.019 -42.512  25.170  1.00  0.00     0.113 C 
BRANCH  21  22
ATOM     22  N   UNL     1     -17.996 -43.039  24.203  1.00  0.00    -0.384 N 
ATOM     23  H   UNL     1     -18.127 -44.039  24.362  1.00  0.00     0.160 HD
BRANCH  22  24
ATOM     24  C   UNL     1     -19.279 -42.421  24.260  1.00  0.00     0.049 A 
ATOM     25  C   UNL     1     -19.562 -41.386  23.345  1.00  0.00    -0.003 A 
ATOM     26  C   UNL     1     -20.266 -42.813  25.208  1.00  0.00     0.024 A 
ATOM     27  C   UNL     1     -20.786 -40.728  23.465  1.00  0.00     0.046 A 
ATOM     28  C   UNL     1     -18.563 -40.978  22.288  1.00  0.00     0.039 C 
ATOM     29  C   UNL     1     -20.125 -43.894  26.117  1.00  0.00     0.014 A 
ATOM     30  C   UNL     1     -21.472 -42.079  25.225  1.00  0.00     0.074 A 
ATOM     31  N   UNL     1     -21.717 -41.064  24.390  1.00  0.00    -0.252 NA
ATOM     32  C   UNL     1     -21.196 -39.630  22.518  1.00  0.00     0.056 C 
ATOM     33  C   UNL     1     -19.168 -40.143  21.160  1.00  0.00     0.005 C 
ATOM     34  C   UNL     1     -21.135 -44.215  27.023  1.00  0.00     0.021 A 
ATOM     35  C   UNL     1     -22.462 -42.412  26.136  1.00  0.00     0.049 A 
ATOM     36  C   UNL     1     -20.031 -39.030  21.737  1.00  0.00     0.007 C 
ATOM     37  C   UNL     1     -22.301 -43.466  27.029  1.00  0.00     0.043 A 
ATOM     38  Cl  UNL     1     -23.556 -43.848  28.143  1.00  0.00    -0.084 Cl
ENDBRANCH  22  24
ENDBRANCH  21  22
ENDBRANCH  20  21
ENDBRANCH   1  20
TORSDOF 7
ENDMDL
MODEL 7
REMARK VINA RESULT:   -10.625      3.828      8.586
REMARK INTER + INTRA:         -15.880
REMARK INTER:                 -14.344
REMARK INTRA:                  -1.536
REMARK UNBOUND:                -0.907
REMARK SMILES Cc1cc(=O)[nH]c2c1C(=O)C(NCCCCNc1c3c(nc4cc(Cl)ccc14)CCCC3)=CC2=O
REMARK SMILES IDX 14 1 13 2 12 3 11 5 2 6 3 7 8 8 4 9 7 10 9 11 6 12 34 13
REMARK SMILES IDX 33 14 1 15 5 16 10 17 35 19 15 20 16 21 17 22 18 24 19 25
REMARK SMILES IDX 28 26 20 27 32 28 27 29 22 30 21 31 29 32 31 33 26 34 23 35
REMARK SMILES IDX 30 36 24 37 25 38
REMARK H PARENT 12 4 6 18 17 23
ROOT
ATOM      1  C   UNL     1     -15.674 -41.404  32.171  1.00  0.00     0.023 C 
ENDROOT
BRANCH   1   2
ATOM      2  C   UNL     1     -15.080 -41.967  33.462  1.00  0.00     0.113 C 
BRANCH   2   3
ATOM      3  N   UNL     1     -13.744 -42.495  33.262  1.00  0.00    -0.382 N 
ATOM      4  H   UNL     1     -13.141 -42.486  34.094  1.00  0.00     0.160 HD
BRANCH   3   5
ATOM      5  C   UNL     1     -13.355 -43.506  32.386  1.00  0.00     0.087 C 
ATOM      6  C   UNL     1     -10.880 -43.796  29.296  1.00  0.00    -0.032 A 
ATOM      7  C   UNL     1     -10.515 -44.753  28.420  1.00  0.00     0.075 A 
ATOM      8  C   UNL     1     -11.862 -44.106  30.349  1.00  0.00     0.055 A 
ATOM      9  C   UNL     1     -11.084 -46.118  28.498  1.00  0.00     0.248 A 
ATOM     10  C   UNL     1     -12.372 -45.349  30.404  1.00  0.00     0.101 A 
ATOM     11  C   UNL     1     -12.313 -43.102  31.366  1.00  0.00     0.211 C 
ATOM     12  N   UNL     1     -11.987 -46.316  29.501  1.00  0.00    -0.319 N 
ATOM     13  C   UNL     1     -13.367 -45.766  31.423  1.00  0.00     0.205 C 
ATOM     14  C   UNL     1     -13.822 -44.759  32.386  1.00  0.00     0.084 C 
ATOM     15  C   UNL     1     -10.284 -42.420  29.184  1.00  0.00     0.045 C 
ATOM     16  O   UNL     1     -10.755 -46.991  27.706  1.00  0.00    -0.270 OA
ATOM     17  O   UNL     1     -11.862 -41.958  31.417  1.00  0.00    -0.287 OA
ATOM     18  H   UNL     1     -12.398 -47.243  29.583  1.00  0.00     0.170 HD
ATOM     19  O   UNL     1     -13.801 -46.912  31.461  1.00  0.00    -0.288 OA
ENDBRANCH   3   5
ENDBRANCH   2   3
ENDBRANCH   1   2
BRANCH   1  20
ATOM     20  C   UNL     1     -16.444 -42.410  31.307  1.00  0.00     0.023 C 
BRANCH  20  21
ATOM     21  C   UNL     1     -16.630 -41.954  29.860  1.00  0.00     0.113 C 
BRANCH  21  22
ATOM     22  N   UNL     1     -17.434 -42.913  29.082  1.00  0.00    -0.384 N 
ATOM     23  H   UNL     1     -18.418 -42.818  29.337  1.00  0.00     0.160 HD
BRANCH  22  24
ATOM     24  C   UNL     1     -17.339 -42.755  27.668  1.00  0.00     0.049 A 
ATOM     25  C   UNL     1     -16.128 -43.109  27.039  1.00  0.00    -0.003 A 
ATOM     26  C   UNL     1     -18.419 -42.252  26.888  1.00  0.00     0.024 A 
ATOM     27  C   UNL     1     -16.013 -42.870  25.669  1.00  0.00     0.046 A 
ATOM     28  C   UNL     1     -14.978 -43.698  27.822  1.00  0.00     0.039 C 
ATOM     29  C   UNL     1     -19.706 -41.946  27.399  1.00  0.00     0.014 A 
ATOM     30  C   UNL     1     -18.185 -42.066  25.509  1.00  0.00     0.074 A 
ATOM     31  N   UNL     1     -17.018 -42.354  24.922  1.00  0.00    -0.252 NA
ATOM     32  C   UNL     1     -14.772 -43.240  24.898  1.00  0.00     0.056 C 
ATOM     33  C   UNL     1     -13.923 -44.377  26.950  1.00  0.00     0.005 C 
ATOM     34  C   UNL     1     -20.714 -41.450  26.573  1.00  0.00     0.021 A 
ATOM     35  C   UNL     1     -19.199 -41.568  24.705  1.00  0.00     0.049 A 
ATOM     36  C   UNL     1     -13.550 -43.475  25.781  1.00  0.00     0.007 C 
ATOM     37  C   UNL     1     -20.451 -41.260  25.226  1.00  0.00     0.043 A 
ATOM     38  Cl  UNL     1     -21.684 -40.645  24.193  1.00  0.00    -0.084 Cl
ENDBRANCH  22  24
ENDBRANCH  21  22
ENDBRANCH  20  21
ENDBRANCH   1  20
TORSDOF 7
ENDMDL
MODEL 8
REMARK VINA RESULT:   -10.308      3.436     11.040
REMARK INTER + INTRA:         -15.433
REMARK INTER:                 -15.021
REMARK INTRA:                  -0.413
REMARK UNBOUND:                -0.907
REMARK SMILES Cc1cc(=O)[nH]c2c1C(=O)C(NCCCCNc1c3c(nc4cc(Cl)ccc14)CCCC3)=CC2=O
REMARK SMILES IDX 14 1 13 2 12 3 11 5 2 6 3 7 8 8 4 9 7 10 9 11 6 12 34 13
REMARK SMILES IDX 33 14 1 15 5 16 10 17 35 19 15 20 16 21 17 22 18 24 19 25
REMARK SMILES IDX 28 26 20 27 32 28 27 29 22 30 21 31 29 32 31 33 26 34 23 35
REMARK SMILES IDX 30 36 24 37 25 38
REMARK H PARENT 12 4 6 18 17 23
ROOT
ATOM      1  C   UNL     1     -15.571 -42.929  25.498  1.00  0.00     0.023 C 
ENDROOT
BRANCH   1   2
ATOM      2  C   UNL     1     -14.639 -43.964  26.128  1.00  0.00     0.113 C 
BRANCH   2   3
ATOM      3  N   UNL     1     -14.597 -43.850  27.573  1.00  0.00    -0.382 N 
ATOM      4  H   UNL     1     -15.515 -43.826  28.036  1.00  0.00     0.160 HD
BRANCH   3   5
ATOM      5  C   UNL     1     -13.626 -44.355  28.435  1.00  0.00     0.087 C 
ATOM      6  C   UNL     1      -9.733 -43.794  28.975  1.00  0.00    -0.032 A 
ATOM      7  C   UNL     1      -8.774 -44.293  29.779  1.00  0.00     0.075 A 
ATOM      8  C   UNL     1     -11.119 -44.278  29.102  1.00  0.00     0.055 A 
ATOM      9  C   UNL     1      -9.089 -45.324  30.796  1.00  0.00     0.248 A 
ATOM     10  C   UNL     1     -11.387 -45.216  30.027  1.00  0.00     0.101 A 
ATOM     11  C   UNL     1     -12.243 -43.768  28.254  1.00  0.00     0.211 C 
ATOM     12  N   UNL     1     -10.395 -45.715  30.843  1.00  0.00    -0.319 N 
ATOM     13  C   UNL     1     -12.747 -45.772  30.238  1.00  0.00     0.205 C 
ATOM     14  C   UNL     1     -13.825 -45.286  29.373  1.00  0.00     0.084 C 
ATOM     15  C   UNL     1      -9.376 -42.751  27.952  1.00  0.00     0.045 C 
ATOM     16  O   UNL     1      -8.222 -45.779  31.530  1.00  0.00    -0.270 OA
ATOM     17  O   UNL     1     -12.095 -42.876  27.418  1.00  0.00    -0.287 OA
ATOM     18  H   UNL     1     -10.645 -46.423  31.530  1.00  0.00     0.170 HD
ATOM     19  O   UNL     1     -12.965 -46.614  31.103  1.00  0.00    -0.288 OA
ENDBRANCH   3   5
ENDBRANCH   2   3
ENDBRANCH   1   2
BRANCH   1  20
ATOM     20  C   UNL     1     -15.978 -43.207  24.045  1.00  0.00     0.023 C 
BRANCH  20  21
ATOM     21  C   UNL     1     -16.849 -42.110  23.435  1.00  0.00     0.113 C 
BRANCH  21  22
ATOM     22  N   UNL     1     -18.025 -42.665  22.742  1.00  0.00    -0.384 N 
ATOM     23  H   UNL     1     -18.107 -43.660  22.954  1.00  0.00     0.160 HD
BRANCH  22  24
ATOM     24  C   UNL     1     -19.262 -42.046  23.087  1.00  0.00     0.049 A 
ATOM     25  C   UNL     1     -19.709 -40.966  22.300  1.00  0.00    -0.003 A 
ATOM     26  C   UNL     1     -20.044 -42.485  24.193  1.00  0.00     0.024 A 
ATOM     27  C   UNL     1     -20.875 -40.311  22.697  1.00  0.00     0.046 A 
ATOM     28  C   UNL     1     -18.937 -40.506  21.085  1.00  0.00     0.039 C 
ATOM     29  C   UNL     1     -19.738 -43.611  25.000  1.00  0.00     0.014 A 
ATOM     30  C   UNL     1     -21.212 -41.749  24.488  1.00  0.00     0.074 A 
ATOM     31  N   UNL     1     -21.607 -40.691  23.771  1.00  0.00    -0.252 NA
ATOM     32  C   UNL     1     -21.452 -39.164  21.907  1.00  0.00     0.056 C 
ATOM     33  C   UNL     1     -19.745 -39.612  20.145  1.00  0.00     0.005 C 
ATOM     34  C   UNL     1     -20.550 -43.976  26.073  1.00  0.00     0.021 A 
ATOM     35  C   UNL     1     -22.004 -42.125  25.562  1.00  0.00     0.049 A 
ATOM     36  C   UNL     1     -20.460 -38.528  20.938  1.00  0.00     0.007 C 
ATOM     37  C   UNL     1     -21.681 -43.225  26.351  1.00  0.00     0.043 A 
ATOM     38  Cl  UNL     1     -22.692 -43.660  27.674  1.00  0.00    -0.084 Cl
ENDBRANCH  22  24
ENDBRANCH  21  22
ENDBRANCH  20  21
ENDBRANCH   1  20
TORSDOF 7
ENDMDL
