MODEL 1
REMARK VINA RESULT:    -9.703      0.000      0.000
REMARK INTER + INTRA:         -15.197
REMARK INTER:                 -14.525
REMARK INTRA:                  -0.672
REMARK UNBOUND:                -0.672
REMARK SMILES C=CC[n+]1ccc(CC=C(O)[C@@H]2Cc3cc(OC)c(OC)cc3S2)cc1
REMARK SMILES IDX 9 1 10 2 11 3 12 5 13 6 24 7 14 8 23 9 15 10 22 11 16 12
REMARK SMILES IDX 19 13 17 14 18 15 20 16 21 17 8 18 7 19 6 20 25 21 5 22
REMARK SMILES IDX 26 23 4 24 3 25 2 26 1 27
REMARK H PARENT 11 4
ROOT
ATOM      1  C   UNL     1     -13.996 -44.908  27.221  1.00  0.00     0.020 C 
ENDROOT
BRANCH   1   2
ATOM      2  C   UNL     1     -13.714 -43.631  26.915  1.00  0.00     0.102 C 
BRANCH   2   3
ATOM      3  O   UNL     1     -12.464 -43.116  27.218  1.00  0.00    -0.511 OA
ATOM      4  H   UNL     1     -12.154 -42.634  26.422  1.00  0.00     0.293 HD
ENDBRANCH   2   3
BRANCH   2   5
ATOM      5  C   UNL     1     -14.708 -42.694  26.261  1.00  0.00     0.121 C 
ATOM      6  C   UNL     1     -16.115 -42.772  26.886  1.00  0.00     0.059 C 
ATOM      7  S   UNL     1     -14.909 -43.114  24.490  1.00  0.00    -0.114 SA
ATOM      8  C   UNL     1     -17.102 -42.460  25.797  1.00  0.00    -0.029 A 
ATOM      9  C   UNL     1     -16.612 -42.634  24.503  1.00  0.00     0.015 A 
ATOM     10  C   UNL     1     -18.429 -42.094  26.002  1.00  0.00     0.055 A 
ATOM     11  C   UNL     1     -17.419 -42.442  23.393  1.00  0.00     0.065 A 
ATOM     12  C   UNL     1     -19.260 -41.886  24.893  1.00  0.00     0.161 A 
ATOM     13  C   UNL     1     -18.752 -42.063  23.581  1.00  0.00     0.161 A 
BRANCH  12  14
ATOM     14  O   UNL     1     -20.582 -41.521  24.977  1.00  0.00    -0.493 OA
ATOM     15  C   UNL     1     -21.083 -41.126  26.244  1.00  0.00     0.278 C 
ENDBRANCH  12  14
BRANCH  13  16
ATOM     16  O   UNL     1     -19.644 -41.841  22.560  1.00  0.00    -0.493 OA
ATOM     17  C   UNL     1     -19.404 -40.738  21.697  1.00  0.00     0.278 C 
ENDBRANCH  13  16
ENDBRANCH   2   5
ENDBRANCH   1   2
BRANCH   1  18
ATOM     18  C   UNL     1     -13.037 -46.054  27.074  1.00  0.00     0.067 C 
BRANCH  18  19
ATOM     19  C   UNL     1     -12.091 -46.167  28.248  1.00  0.00    -0.032 A 
ATOM     20  C   UNL     1     -12.558 -45.959  29.547  1.00  0.00     0.075 A 
ATOM     21  C   UNL     1     -10.739 -46.454  28.065  1.00  0.00     0.075 A 
ATOM     22  C   UNL     1     -11.683 -46.053  30.620  1.00  0.00     0.308 A 
ATOM     23  C   UNL     1      -9.899 -46.542  29.169  1.00  0.00     0.308 A 
ATOM     24  N   UNL     1     -10.378 -46.346  30.420  1.00  0.00    -0.201 N 
BRANCH  24  25
ATOM     25  C   UNL     1      -9.460 -46.456  31.577  1.00  0.00     0.385 C 
BRANCH  25  26
ATOM     26  C   UNL     1      -8.513 -45.295  31.580  1.00  0.00     0.037 C 
ATOM     27  C   UNL     1      -7.183 -45.396  31.704  1.00  0.00     0.011 C 
ENDBRANCH  25  26
ENDBRANCH  24  25
ENDBRANCH  18  19
ENDBRANCH   1  18
TORSDOF 9
ENDMDL
MODEL 2
REMARK VINA RESULT:    -9.670      4.222      8.967
REMARK INTER + INTRA:         -15.147
REMARK INTER:                 -14.194
REMARK INTRA:                  -0.954
REMARK UNBOUND:                -0.672
REMARK SMILES C=CC[n+]1ccc(CC=C(O)[C@@H]2Cc3cc(OC)c(OC)cc3S2)cc1
REMARK SMILES IDX 9 1 10 2 11 3 12 5 13 6 24 7 14 8 23 9 15 10 22 11 16 12
REMARK SMILES IDX 19 13 17 14 18 15 20 16 21 17 8 18 7 19 6 20 25 21 5 22
REMARK SMILES IDX 26 23 4 24 3 25 2 26 1 27
REMARK H PARENT 11 4
ROOT
ATOM      1  C   UNL     1     -13.447 -45.448  27.036  1.00  0.00     0.020 C 
ENDROOT
BRANCH   1   2
ATOM      2  C   UNL     1     -12.538 -46.019  27.842  1.00  0.00     0.102 C 
BRANCH   2   3
ATOM      3  O   UNL     1     -11.606 -46.896  27.309  1.00  0.00    -0.511 OA
ATOM      4  H   UNL     1     -11.152 -46.421  26.581  1.00  0.00     0.293 HD
ENDBRANCH   2   3
BRANCH   2   5
ATOM      5  C   UNL     1     -12.478 -45.770  29.335  1.00  0.00     0.121 C 
ATOM      6  C   UNL     1     -13.739 -45.073  29.883  1.00  0.00     0.059 C 
ATOM      7  S   UNL     1     -11.068 -44.677  29.743  1.00  0.00    -0.114 SA
ATOM      8  C   UNL     1     -13.310 -44.240  31.058  1.00  0.00    -0.029 A 
ATOM      9  C   UNL     1     -11.951 -43.931  31.083  1.00  0.00     0.015 A 
ATOM     10  C   UNL     1     -14.164 -43.729  32.030  1.00  0.00     0.055 A 
ATOM     11  C   UNL     1     -11.411 -43.122  32.071  1.00  0.00     0.065 A 
ATOM     12  C   UNL     1     -13.639 -42.916  33.043  1.00  0.00     0.161 A 
ATOM     13  C   UNL     1     -12.255 -42.610  33.063  1.00  0.00     0.161 A 
BRANCH  12  14
ATOM     14  O   UNL     1     -14.388 -42.362  34.053  1.00  0.00    -0.493 OA
ATOM     15  C   UNL     1     -15.360 -41.389  33.704  1.00  0.00     0.278 C 
ENDBRANCH  12  14
BRANCH  13  16
ATOM     16  O   UNL     1     -11.837 -41.802  34.092  1.00  0.00    -0.493 OA
ATOM     17  C   UNL     1     -10.457 -41.822  34.433  1.00  0.00     0.278 C 
ENDBRANCH  13  16
ENDBRANCH   2   5
ENDBRANCH   1   2
BRANCH   1  18
ATOM     18  C   UNL     1     -13.417 -44.013  26.594  1.00  0.00     0.067 C 
BRANCH  18  19
ATOM     19  C   UNL     1     -14.795 -43.482  26.271  1.00  0.00    -0.032 A 
ATOM     20  C   UNL     1     -15.654 -43.091  27.300  1.00  0.00     0.075 A 
ATOM     21  C   UNL     1     -15.248 -43.393  24.956  1.00  0.00     0.075 A 
ATOM     22  C   UNL     1     -16.923 -42.613  26.998  1.00  0.00     0.308 A 
ATOM     23  C   UNL     1     -16.525 -42.906  24.699  1.00  0.00     0.308 A 
ATOM     24  N   UNL     1     -17.336 -42.523  25.713  1.00  0.00    -0.201 N 
BRANCH  24  25
ATOM     25  C   UNL     1     -18.686 -41.999  25.407  1.00  0.00     0.385 C 
BRANCH  25  26
ATOM     26  C   UNL     1     -19.537 -42.052  26.640  1.00  0.00     0.037 C 
ATOM     27  C   UNL     1     -20.543 -41.209  26.910  1.00  0.00     0.011 C 
ENDBRANCH  25  26
ENDBRANCH  24  25
ENDBRANCH  18  19
ENDBRANCH   1  18
TORSDOF 9
ENDMDL
MODEL 3
REMARK VINA RESULT:    -9.327      1.522      2.095
REMARK INTER + INTRA:         -14.634
REMARK INTER:                 -14.146
REMARK INTRA:                  -0.488
REMARK UNBOUND:                -0.672
REMARK SMILES C=CC[n+]1ccc(CC=C(O)[C@@H]2Cc3cc(OC)c(OC)cc3S2)cc1
REMARK SMILES IDX 9 1 10 2 11 3 12 5 13 6 24 7 14 8 23 9 15 10 22 11 16 12
REMARK SMILES IDX 19 13 17 14 18 15 20 16 21 17 8 18 7 19 6 20 25 21 5 22
REMARK SMILES IDX 26 23 4 24 3 25 2 26 1 27
REMARK H PARENT 11 4
ROOT
ATOM      1  C   UNL     1     -14.056 -44.036  26.055  1.00  0.00     0.020 C 
ENDROOT
BRANCH   1   2
ATOM      2  C   UNL     1     -14.775 -43.645  24.991  1.00  0.00     0.102 C 
BRANCH   2   3
ATOM      3  O   UNL     1     -14.549 -44.235  23.757  1.00  0.00    -0.511 OA
ATOM      4  H   UNL     1     -15.399 -44.210  23.269  1.00  0.00     0.293 HD
ENDBRANCH   2   3
BRANCH   2   5
ATOM      5  C   UNL     1     -15.831 -42.560  25.054  1.00  0.00     0.121 C 
ATOM      6  C   UNL     1     -16.839 -42.764  26.203  1.00  0.00     0.059 C 
ATOM      7  S   UNL     1     -16.811 -42.533  23.509  1.00  0.00    -0.114 SA
ATOM      8  C   UNL     1     -18.148 -42.179  25.752  1.00  0.00    -0.029 A 
ATOM      9  C   UNL     1     -18.277 -42.042  24.371  1.00  0.00     0.015 A 
ATOM     10  C   UNL     1     -19.208 -41.851  26.591  1.00  0.00     0.055 A 
ATOM     11  C   UNL     1     -19.447 -41.572  23.796  1.00  0.00     0.065 A 
ATOM     12  C   UNL     1     -20.398 -41.366  26.033  1.00  0.00     0.161 A 
ATOM     13  C   UNL     1     -20.519 -41.227  24.627  1.00  0.00     0.161 A 
BRANCH  12  14
ATOM     14  O   UNL     1     -21.505 -41.010  26.765  1.00  0.00    -0.493 OA
ATOM     15  C   UNL     1     -22.510 -41.990  26.971  1.00  0.00     0.278 C 
ENDBRANCH  12  14
BRANCH  13  16
ATOM     16  O   UNL     1     -21.724 -40.749  24.175  1.00  0.00    -0.493 OA
ATOM     17  C   UNL     1     -21.738 -40.046  22.941  1.00  0.00     0.278 C 
ENDBRANCH  13  16
ENDBRANCH   2   5
ENDBRANCH   1   2
BRANCH   1  18
ATOM     18  C   UNL     1     -13.720 -45.463  26.382  1.00  0.00     0.067 C 
BRANCH  18  19
ATOM     19  C   UNL     1     -12.972 -45.592  27.689  1.00  0.00    -0.032 A 
ATOM     20  C   UNL     1     -11.758 -46.280  27.737  1.00  0.00     0.075 A 
ATOM     21  C   UNL     1     -13.481 -45.057  28.872  1.00  0.00     0.075 A 
ATOM     22  C   UNL     1     -11.080 -46.405  28.942  1.00  0.00     0.308 A 
ATOM     23  C   UNL     1     -12.767 -45.204  30.056  1.00  0.00     0.308 A 
ATOM     24  N   UNL     1     -11.586 -45.867  30.075  1.00  0.00    -0.201 N 
BRANCH  24  25
ATOM     25  C   UNL     1     -10.844 -45.997  31.349  1.00  0.00     0.385 C 
BRANCH  25  26
ATOM     26  C   UNL     1      -9.489 -46.579  31.085  1.00  0.00     0.037 C 
ATOM     27  C   UNL     1      -8.331 -46.023  31.466  1.00  0.00     0.011 C 
ENDBRANCH  25  26
ENDBRANCH  24  25
ENDBRANCH  18  19
ENDBRANCH   1  18
TORSDOF 9
ENDMDL
MODEL 4
REMARK VINA RESULT:    -9.047      2.072      3.760
REMARK INTER + INTRA:         -14.215
REMARK INTER:                 -13.506
REMARK INTRA:                  -0.709
REMARK UNBOUND:                -0.672
REMARK SMILES C=CC[n+]1ccc(CC=C(O)[C@@H]2Cc3cc(OC)c(OC)cc3S2)cc1
REMARK SMILES IDX 9 1 10 2 11 3 12 5 13 6 24 7 14 8 23 9 15 10 22 11 16 12
REMARK SMILES IDX 19 13 17 14 18 15 20 16 21 17 8 18 7 19 6 20 25 21 5 22
REMARK SMILES IDX 26 23 4 24 3 25 2 26 1 27
REMARK H PARENT 11 4
ROOT
ATOM      1  C   UNL     1     -15.531 -43.153  25.598  1.00  0.00     0.020 C 
ENDROOT
BRANCH   1   2
ATOM      2  C   UNL     1     -15.703 -43.408  24.291  1.00  0.00     0.102 C 
BRANCH   2   3
ATOM      3  O   UNL     1     -14.671 -43.982  23.565  1.00  0.00    -0.511 OA
ATOM      4  H   UNL     1     -14.236 -44.633  24.155  1.00  0.00     0.293 HD
ENDBRANCH   2   3
BRANCH   2   5
ATOM      5  C   UNL     1     -16.978 -43.082  23.542  1.00  0.00     0.121 C 
ATOM      6  C   UNL     1     -16.865 -41.808  22.680  1.00  0.00     0.059 C 
ATOM      7  S   UNL     1     -18.350 -42.786  24.717  1.00  0.00    -0.114 SA
ATOM      8  C   UNL     1     -18.232 -41.187  22.626  1.00  0.00    -0.029 A 
ATOM      9  C   UNL     1     -19.090 -41.583  23.652  1.00  0.00     0.015 A 
ATOM     10  C   UNL     1     -18.641 -40.235  21.697  1.00  0.00     0.055 A 
ATOM     11  C   UNL     1     -20.365 -41.054  23.773  1.00  0.00     0.065 A 
ATOM     12  C   UNL     1     -19.930 -39.694  21.795  1.00  0.00     0.161 A 
ATOM     13  C   UNL     1     -20.796 -40.104  22.840  1.00  0.00     0.161 A 
BRANCH  12  14
ATOM     14  O   UNL     1     -20.438 -38.752  20.934  1.00  0.00    -0.493 OA
ATOM     15  C   UNL     1     -20.342 -39.004  19.541  1.00  0.00     0.278 C 
ENDBRANCH  12  14
BRANCH  13  16
ATOM     16  O   UNL     1     -22.035 -39.513  22.855  1.00  0.00    -0.493 OA
ATOM     17  C   UNL     1     -23.132 -40.283  23.328  1.00  0.00     0.278 C 
ENDBRANCH  13  16
ENDBRANCH   2   5
ENDBRANCH   1   2
BRANCH   1  18
ATOM     18  C   UNL     1     -14.328 -42.473  26.186  1.00  0.00     0.067 C 
BRANCH  18  19
ATOM     19  C   UNL     1     -13.405 -43.441  26.890  1.00  0.00    -0.032 A 
ATOM     20  C   UNL     1     -13.779 -44.777  27.046  1.00  0.00     0.075 A 
ATOM     21  C   UNL     1     -12.184 -43.026  27.418  1.00  0.00     0.075 A 
ATOM     22  C   UNL     1     -12.933 -45.661  27.702  1.00  0.00     0.308 A 
ATOM     23  C   UNL     1     -11.366 -43.946  28.065  1.00  0.00     0.308 A 
ATOM     24  N   UNL     1     -11.746 -45.238  28.195  1.00  0.00    -0.201 N 
BRANCH  24  25
ATOM     25  C   UNL     1     -10.849 -46.196  28.881  1.00  0.00     0.385 C 
BRANCH  25  26
ATOM     26  C   UNL     1     -11.144 -46.198  30.350  1.00  0.00     0.037 C 
ATOM     27  C   UNL     1     -10.215 -46.194  31.315  1.00  0.00     0.011 C 
ENDBRANCH  25  26
ENDBRANCH  24  25
ENDBRANCH  18  19
ENDBRANCH   1  18
TORSDOF 9
ENDMDL
MODEL 5
REMARK VINA RESULT:    -8.363      1.875      2.655
REMARK INTER + INTRA:         -13.190
REMARK INTER:                 -12.852
REMARK INTRA:                  -0.338
REMARK UNBOUND:                -0.672
REMARK SMILES C=CC[n+]1ccc(CC=C(O)[C@@H]2Cc3cc(OC)c(OC)cc3S2)cc1
REMARK SMILES IDX 9 1 10 2 11 3 12 5 13 6 24 7 14 8 23 9 15 10 22 11 16 12
REMARK SMILES IDX 19 13 17 14 18 15 20 16 21 17 8 18 7 19 6 20 25 21 5 22
REMARK SMILES IDX 26 23 4 24 3 25 2 26 1 27
REMARK H PARENT 11 4
ROOT
ATOM      1  C   UNL     1     -14.821 -43.770  25.970  1.00  0.00     0.020 C 
ENDROOT
BRANCH   1   2
ATOM      2  C   UNL     1     -15.552 -43.350  24.925  1.00  0.00     0.102 C 
BRANCH   2   3
ATOM      3  O   UNL     1     -15.309 -43.877  23.665  1.00  0.00    -0.511 OA
ATOM      4  H   UNL     1     -14.878 -44.747  23.799  1.00  0.00     0.293 HD
ENDBRANCH   2   3
BRANCH   2   5
ATOM      5  C   UNL     1     -16.637 -42.299  25.038  1.00  0.00     0.121 C 
ATOM      6  C   UNL     1     -17.523 -42.476  26.287  1.00  0.00     0.059 C 
ATOM      7  S   UNL     1     -17.760 -42.385  23.595  1.00  0.00    -0.114 SA
ATOM      8  C   UNL     1     -18.890 -41.959  25.937  1.00  0.00    -0.029 A 
ATOM      9  C   UNL     1     -19.155 -41.899  24.570  1.00  0.00     0.015 A 
ATOM     10  C   UNL     1     -19.877 -41.624  26.859  1.00  0.00     0.055 A 
ATOM     11  C   UNL     1     -20.392 -41.499  24.090  1.00  0.00     0.065 A 
ATOM     12  C   UNL     1     -21.132 -41.208  26.396  1.00  0.00     0.161 A 
ATOM     13  C   UNL     1     -21.391 -41.147  25.003  1.00  0.00     0.161 A 
BRANCH  12  14
ATOM     14  O   UNL     1     -22.177 -40.852  27.214  1.00  0.00    -0.493 OA
ATOM     15  C   UNL     1     -23.232 -41.784  27.390  1.00  0.00     0.278 C 
ENDBRANCH  12  14
BRANCH  13  16
ATOM     16  O   UNL     1     -22.652 -40.734  24.648  1.00  0.00    -0.493 OA
ATOM     17  C   UNL     1     -22.792 -39.991  23.445  1.00  0.00     0.278 C 
ENDBRANCH  13  16
ENDBRANCH   2   5
ENDBRANCH   1   2
BRANCH   1  18
ATOM     18  C   UNL     1     -13.414 -43.332  26.261  1.00  0.00     0.067 C 
BRANCH  18  19
ATOM     19  C   UNL     1     -12.809 -44.078  27.427  1.00  0.00    -0.032 A 
ATOM     20  C   UNL     1     -13.475 -45.174  27.980  1.00  0.00     0.075 A 
ATOM     21  C   UNL     1     -11.597 -43.683  27.992  1.00  0.00     0.075 A 
ATOM     22  C   UNL     1     -12.919 -45.850  29.058  1.00  0.00     0.308 A 
ATOM     23  C   UNL     1     -11.076 -44.390  29.069  1.00  0.00     0.308 A 
ATOM     24  N   UNL     1     -11.736 -45.456  29.581  1.00  0.00    -0.201 N 
BRANCH  24  25
ATOM     25  C   UNL     1     -11.150 -46.196  30.722  1.00  0.00     0.385 C 
BRANCH  25  26
ATOM     26  C   UNL     1      -9.678 -46.369  30.506  1.00  0.00     0.037 C 
ATOM     27  C   UNL     1      -8.743 -46.200  31.451  1.00  0.00     0.011 C 
ENDBRANCH  25  26
ENDBRANCH  24  25
ENDBRANCH  18  19
ENDBRANCH   1  18
TORSDOF 9
ENDMDL
MODEL 6
REMARK VINA RESULT:    -8.278      1.943      3.346
REMARK INTER + INTRA:         -13.064
REMARK INTER:                 -12.287
REMARK INTRA:                  -0.776
REMARK UNBOUND:                -0.672
REMARK SMILES C=CC[n+]1ccc(CC=C(O)[C@@H]2Cc3cc(OC)c(OC)cc3S2)cc1
REMARK SMILES IDX 9 1 10 2 11 3 12 5 13 6 24 7 14 8 23 9 15 10 22 11 16 12
REMARK SMILES IDX 19 13 17 14 18 15 20 16 21 17 8 18 7 19 6 20 25 21 5 22
REMARK SMILES IDX 26 23 4 24 3 25 2 26 1 27
REMARK H PARENT 11 4
ROOT
ATOM      1  C   UNL     1     -15.000 -42.709  26.437  1.00  0.00     0.020 C 
ENDROOT
BRANCH   1   2
ATOM      2  C   UNL     1     -16.177 -42.794  27.077  1.00  0.00     0.102 C 
BRANCH   2   3
ATOM      3  O   UNL     1     -16.207 -42.763  28.462  1.00  0.00    -0.511 OA
ATOM      4  H   UNL     1     -15.354 -42.379  28.756  1.00  0.00     0.293 HD
ENDBRANCH   2   3
BRANCH   2   5
ATOM      5  C   UNL     1     -17.504 -42.944  26.360  1.00  0.00     0.121 C 
ATOM      6  C   UNL     1     -17.483 -42.379  24.925  1.00  0.00     0.059 C 
ATOM      7  S   UNL     1     -18.816 -42.032  27.252  1.00  0.00    -0.114 SA
ATOM      8  C   UNL     1     -18.872 -41.892  24.621  1.00  0.00    -0.029 A 
ATOM      9  C   UNL     1     -19.656 -41.637  25.745  1.00  0.00     0.015 A 
ATOM     10  C   UNL     1     -19.365 -41.629  23.347  1.00  0.00     0.055 A 
ATOM     11  C   UNL     1     -20.939 -41.127  25.631  1.00  0.00     0.065 A 
ATOM     12  C   UNL     1     -20.663 -41.122  23.207  1.00  0.00     0.161 A 
ATOM     13  C   UNL     1     -21.455 -40.869  24.356  1.00  0.00     0.161 A 
BRANCH  12  14
ATOM     14  O   UNL     1     -21.251 -40.829  22.001  1.00  0.00    -0.493 OA
ATOM     15  C   UNL     1     -20.867 -41.594  20.870  1.00  0.00     0.278 C 
ENDBRANCH  12  14
BRANCH  13  16
ATOM     16  O   UNL     1     -22.711 -40.367  24.117  1.00  0.00    -0.493 OA
ATOM     17  C   UNL     1     -23.431 -39.831  25.218  1.00  0.00     0.278 C 
ENDBRANCH  13  16
ENDBRANCH   2   5
ENDBRANCH   1   2
BRANCH   1  18
ATOM     18  C   UNL     1     -14.229 -43.884  25.906  1.00  0.00     0.067 C 
BRANCH  18  19
ATOM     19  C   UNL     1     -13.202 -44.391  26.892  1.00  0.00    -0.032 A 
ATOM     20  C   UNL     1     -13.174 -45.743  27.242  1.00  0.00     0.075 A 
ATOM     21  C   UNL     1     -12.282 -43.530  27.489  1.00  0.00     0.075 A 
ATOM     22  C   UNL     1     -12.235 -46.201  28.155  1.00  0.00     0.308 A 
ATOM     23  C   UNL     1     -11.358 -44.034  28.397  1.00  0.00     0.308 A 
ATOM     24  N   UNL     1     -11.344 -45.350  28.713  1.00  0.00    -0.201 N 
BRANCH  24  25
ATOM     25  C   UNL     1     -10.340 -45.858  29.675  1.00  0.00     0.385 C 
BRANCH  25  26
ATOM     26  C   UNL     1     -11.006 -46.164  30.982  1.00  0.00     0.037 C 
ATOM     27  C   UNL     1     -11.679 -45.273  31.723  1.00  0.00     0.011 C 
ENDBRANCH  25  26
ENDBRANCH  24  25
ENDBRANCH  18  19
ENDBRANCH   1  18
TORSDOF 9
ENDMDL
MODEL 7
REMARK VINA RESULT:    -8.208      2.187      3.086
REMARK INTER + INTRA:         -12.959
REMARK INTER:                 -12.535
REMARK INTRA:                  -0.424
REMARK UNBOUND:                -0.672
REMARK SMILES C=CC[n+]1ccc(CC=C(O)[C@@H]2Cc3cc(OC)c(OC)cc3S2)cc1
REMARK SMILES IDX 9 1 10 2 11 3 12 5 13 6 24 7 14 8 23 9 15 10 22 11 16 12
REMARK SMILES IDX 19 13 17 14 18 15 20 16 21 17 8 18 7 19 6 20 25 21 5 22
REMARK SMILES IDX 26 23 4 24 3 25 2 26 1 27
REMARK H PARENT 11 4
ROOT
ATOM      1  C   UNL     1     -12.319 -42.824  27.405  1.00  0.00     0.020 C 
ENDROOT
BRANCH   1   2
ATOM      2  C   UNL     1     -12.926 -44.005  27.203  1.00  0.00     0.102 C 
BRANCH   2   3
ATOM      3  O   UNL     1     -12.304 -45.173  27.615  1.00  0.00    -0.511 OA
ATOM      4  H   UNL     1     -11.347 -44.973  27.696  1.00  0.00     0.293 HD
ENDBRANCH   2   3
BRANCH   2   5
ATOM      5  C   UNL     1     -14.271 -44.141  26.520  1.00  0.00     0.121 C 
ATOM      6  C   UNL     1     -14.320 -43.458  25.139  1.00  0.00     0.059 C 
ATOM      7  S   UNL     1     -15.581 -43.357  27.529  1.00  0.00    -0.114 SA
ATOM      8  C   UNL     1     -15.735 -42.998  24.923  1.00  0.00    -0.029 A 
ATOM      9  C   UNL     1     -16.486 -42.867  26.090  1.00  0.00     0.015 A 
ATOM     10  C   UNL     1     -16.282 -42.646  23.693  1.00  0.00     0.055 A 
ATOM     11  C   UNL     1     -17.789 -42.396  26.062  1.00  0.00     0.065 A 
ATOM     12  C   UNL     1     -17.601 -42.177  23.640  1.00  0.00     0.161 A 
ATOM     13  C   UNL     1     -18.358 -42.050  24.832  1.00  0.00     0.161 A 
BRANCH  12  14
ATOM     14  O   UNL     1     -18.241 -41.805  22.483  1.00  0.00    -0.493 OA
ATOM     15  C   UNL     1     -17.879 -40.568  21.890  1.00  0.00     0.278 C 
ENDBRANCH  12  14
BRANCH  13  16
ATOM     16  O   UNL     1     -19.638 -41.576  24.678  1.00  0.00    -0.493 OA
ATOM     17  C   UNL     1     -20.410 -41.359  25.851  1.00  0.00     0.278 C 
ENDBRANCH  13  16
ENDBRANCH   2   5
ENDBRANCH   1   2
BRANCH   1  18
ATOM     18  C   UNL     1     -10.831 -42.620  27.426  1.00  0.00     0.067 C 
BRANCH  18  19
ATOM     19  C   UNL     1     -10.217 -42.998  28.755  1.00  0.00    -0.032 A 
ATOM     20  C   UNL     1     -11.017 -43.086  29.896  1.00  0.00     0.075 A 
ATOM     21  C   UNL     1      -8.850 -43.240  28.880  1.00  0.00     0.075 A 
ATOM     22  C   UNL     1     -10.446 -43.423  31.116  1.00  0.00     0.308 A 
ATOM     23  C   UNL     1      -8.322 -43.577  30.121  1.00  0.00     0.308 A 
ATOM     24  N   UNL     1      -9.119 -43.667  31.211  1.00  0.00    -0.201 N 
BRANCH  24  25
ATOM     25  C   UNL     1      -8.529 -44.038  32.517  1.00  0.00     0.385 C 
BRANCH  25  26
ATOM     26  C   UNL     1      -8.314 -42.805  33.341  1.00  0.00     0.037 C 
ATOM     27  C   UNL     1      -9.105 -42.413  34.349  1.00  0.00     0.011 C 
ENDBRANCH  25  26
ENDBRANCH  24  25
ENDBRANCH  18  19
ENDBRANCH   1  18
TORSDOF 9
ENDMDL
MODEL 8
REMARK VINA RESULT:    -8.044      3.043      5.653
REMARK INTER + INTRA:         -12.712
REMARK INTER:                 -12.008
REMARK INTRA:                  -0.705
REMARK UNBOUND:                -0.672
REMARK SMILES C=CC[n+]1ccc(CC=C(O)[C@@H]2Cc3cc(OC)c(OC)cc3S2)cc1
REMARK SMILES IDX 9 1 10 2 11 3 12 5 13 6 24 7 14 8 23 9 15 10 22 11 16 12
REMARK SMILES IDX 19 13 17 14 18 15 20 16 21 17 8 18 7 19 6 20 25 21 5 22
REMARK SMILES IDX 26 23 4 24 3 25 2 26 1 27
REMARK H PARENT 11 4
ROOT
ATOM      1  C   UNL     1     -16.852 -42.622  23.144  1.00  0.00     0.020 C 
ENDROOT
BRANCH   1   2
ATOM      2  C   UNL     1     -17.939 -41.888  22.854  1.00  0.00     0.102 C 
BRANCH   2   3
ATOM      3  O   UNL     1     -17.853 -40.887  21.899  1.00  0.00    -0.511 OA
ATOM      4  H   UNL     1     -17.052 -41.072  21.364  1.00  0.00     0.293 HD
ENDBRANCH   2   3
BRANCH   2   5
ATOM      5  C   UNL     1     -19.278 -42.081  23.536  1.00  0.00     0.121 C 
ATOM      6  C   UNL     1     -20.287 -40.960  23.215  1.00  0.00     0.059 C 
ATOM      7  S   UNL     1     -19.073 -42.083  25.355  1.00  0.00    -0.114 SA
ATOM      8  C   UNL     1     -21.182 -40.814  24.414  1.00  0.00    -0.029 A 
ATOM      9  C   UNL     1     -20.652 -41.322  25.599  1.00  0.00     0.015 A 
ATOM     10  C   UNL     1     -22.414 -40.168  24.416  1.00  0.00     0.055 A 
ATOM     11  C   UNL     1     -21.331 -41.211  26.801  1.00  0.00     0.065 A 
ATOM     12  C   UNL     1     -23.123 -40.052  25.619  1.00  0.00     0.161 A 
ATOM     13  C   UNL     1     -22.578 -40.575  26.819  1.00  0.00     0.161 A 
BRANCH  12  14
ATOM     14  O   UNL     1     -24.347 -39.439  25.738  1.00  0.00    -0.493 OA
ATOM     15  C   UNL     1     -25.478 -40.100  25.194  1.00  0.00     0.278 C 
ENDBRANCH  12  14
BRANCH  13  16
ATOM     16  O   UNL     1     -23.344 -40.408  27.946  1.00  0.00    -0.493 OA
ATOM     17  C   UNL     1     -24.133 -41.506  28.381  1.00  0.00     0.278 C 
ENDBRANCH  13  16
ENDBRANCH   2   5
ENDBRANCH   1   2
BRANCH   1  18
ATOM     18  C   UNL     1     -15.579 -42.073  23.720  1.00  0.00     0.067 C 
BRANCH  18  19
ATOM     19  C   UNL     1     -15.060 -42.906  24.869  1.00  0.00    -0.032 A 
ATOM     20  C   UNL     1     -14.543 -44.182  24.633  1.00  0.00     0.075 A 
ATOM     21  C   UNL     1     -15.107 -42.440  26.182  1.00  0.00     0.075 A 
ATOM     22  C   UNL     1     -14.078 -44.947  25.693  1.00  0.00     0.308 A 
ATOM     23  C   UNL     1     -14.627 -43.240  27.213  1.00  0.00     0.308 A 
ATOM     24  N   UNL     1     -14.121 -44.469  26.958  1.00  0.00    -0.201 N 
BRANCH  24  25
ATOM     25  C   UNL     1     -13.608 -45.293  28.076  1.00  0.00     0.385 C 
BRANCH  25  26
ATOM     26  C   UNL     1     -12.607 -46.280  27.555  1.00  0.00     0.037 C 
ATOM     27  C   UNL     1     -11.356 -46.414  28.016  1.00  0.00     0.011 C 
ENDBRANCH  25  26
ENDBRANCH  24  25
ENDBRANCH  18  19
ENDBRANCH   1  18
TORSDOF 9
ENDMDL
MODEL 9
REMARK VINA RESULT:    -7.917      1.615      1.762
REMARK INTER + INTRA:         -12.523
REMARK INTER:                 -11.873
REMARK INTRA:                  -0.650
REMARK UNBOUND:                -0.672
REMARK SMILES C=CC[n+]1ccc(CC=C(O)[C@@H]2Cc3cc(OC)c(OC)cc3S2)cc1
REMARK SMILES IDX 9 1 10 2 11 3 12 5 13 6 24 7 14 8 23 9 15 10 22 11 16 12
REMARK SMILES IDX 19 13 17 14 18 15 20 16 21 17 8 18 7 19 6 20 25 21 5 22
REMARK SMILES IDX 26 23 4 24 3 25 2 26 1 27
REMARK H PARENT 11 4
ROOT
ATOM      1  C   UNL     1     -13.189 -44.204  27.338  1.00  0.00     0.020 C 
ENDROOT
BRANCH   1   2
ATOM      2  C   UNL     1     -14.050 -44.222  26.308  1.00  0.00     0.102 C 
BRANCH   2   3
ATOM      3  O   UNL     1     -14.078 -45.317  25.458  1.00  0.00    -0.511 OA
ATOM      4  H   UNL     1     -15.020 -45.571  25.354  1.00  0.00     0.293 HD
ENDBRANCH   2   3
BRANCH   2   5
ATOM      5  C   UNL     1     -15.001 -43.084  26.001  1.00  0.00     0.121 C 
ATOM      6  C   UNL     1     -16.280 -43.115  26.862  1.00  0.00     0.059 C 
ATOM      7  S   UNL     1     -15.554 -43.167  24.258  1.00  0.00    -0.114 SA
ATOM      8  C   UNL     1     -17.383 -42.514  26.039  1.00  0.00    -0.029 A 
ATOM      9  C   UNL     1     -17.148 -42.515  24.665  1.00  0.00     0.015 A 
ATOM     10  C   UNL     1     -18.593 -42.047  26.543  1.00  0.00     0.055 A 
ATOM     11  C   UNL     1     -18.096 -42.048  23.768  1.00  0.00     0.065 A 
ATOM     12  C   UNL     1     -19.563 -41.562  25.655  1.00  0.00     0.161 A 
ATOM     13  C   UNL     1     -19.313 -41.564  24.260  1.00  0.00     0.161 A 
BRANCH  12  14
ATOM     14  O   UNL     1     -20.788 -41.075  26.042  1.00  0.00    -0.493 OA
ATOM     15  C   UNL     1     -21.659 -41.947  26.745  1.00  0.00     0.278 C 
ENDBRANCH  12  14
BRANCH  13  16
ATOM     16  O   UNL     1     -20.325 -41.074  23.471  1.00  0.00    -0.493 OA
ATOM     17  C   UNL     1     -20.066 -40.912  22.084  1.00  0.00     0.278 C 
ENDBRANCH  13  16
ENDBRANCH   2   5
ENDBRANCH   1   2
BRANCH   1  18
ATOM     18  C   UNL     1     -13.307 -45.061  28.566  1.00  0.00     0.067 C 
BRANCH  18  19
ATOM     19  C   UNL     1     -12.352 -44.636  29.657  1.00  0.00    -0.032 A 
ATOM     20  C   UNL     1     -12.838 -44.305  30.924  1.00  0.00     0.075 A 
ATOM     21  C   UNL     1     -10.980 -44.542  29.426  1.00  0.00     0.075 A 
ATOM     22  C   UNL     1     -11.958 -43.905  31.920  1.00  0.00     0.308 A 
ATOM     23  C   UNL     1     -10.135 -44.140  30.454  1.00  0.00     0.308 A 
ATOM     24  N   UNL     1     -10.629 -43.833  31.676  1.00  0.00    -0.201 N 
BRANCH  24  25
ATOM     25  C   UNL     1      -9.702 -43.419  32.754  1.00  0.00     0.385 C 
BRANCH  25  26
ATOM     26  C   UNL     1      -8.321 -43.913  32.447  1.00  0.00     0.037 C 
ATOM     27  C   UNL     1      -7.191 -43.274  32.777  1.00  0.00     0.011 C 
ENDBRANCH  25  26
ENDBRANCH  24  25
ENDBRANCH  18  19
ENDBRANCH   1  18
TORSDOF 9
ENDMDL
