MODEL 1
REMARK VINA RESULT:    -9.762      0.000      0.000
REMARK INTER + INTRA:         -15.518
REMARK INTER:                 -14.328
REMARK INTRA:                  -1.190
REMARK UNBOUND:                -1.190
REMARK SMILES COc1ccccc1[C@H](C)NS(=O)(=O)NC(=O)OCc1ccccc1
REMARK SMILES IDX 11 1 9 3 10 4 8 5 3 6 4 7 5 8 7 9 6 10 2 11 1 12 12 13 13 14
REMARK SMILES IDX 14 15 15 16 16 17 17 19 18 20 19 21 20 22 21 23 25 24 22 25
REMARK SMILES IDX 24 26 23 27
REMARK H PARENT 11 2 15 18
ROOT
ATOM      1  N   UNL     1     -12.502 -45.028  31.834  1.00  0.00    -0.190 NA
ATOM      2  H   UNL     1     -13.302 -45.039  32.466  1.00  0.00     0.143 HD
ENDROOT
BRANCH   1   3
ATOM      3  C   UNL     1     -11.977 -43.651  31.607  1.00  0.00     0.102 C 
ATOM      4  C   UNL     1     -12.244 -42.805  32.854  1.00  0.00     0.031 C 
BRANCH   3   5
ATOM      5  C   UNL     1     -10.486 -43.658  31.283  1.00  0.00     0.012 A 
ATOM      6  C   UNL     1     -10.023 -43.187  30.035  1.00  0.00     0.123 A 
ATOM      7  C   UNL     1      -8.651 -43.185  29.758  1.00  0.00     0.047 A 
ATOM      8  C   UNL     1      -7.734 -43.637  30.710  1.00  0.00     0.004 A 
ATOM      9  C   UNL     1      -9.543 -44.100  32.231  1.00  0.00     0.009 A 
ATOM     10  C   UNL     1      -8.178 -44.092  31.944  1.00  0.00     0.001 A 
BRANCH   6  11
ATOM     11  O   UNL     1     -10.988 -42.751  29.165  1.00  0.00    -0.496 OA
ATOM     12  C   UNL     1     -10.561 -42.058  27.999  1.00  0.00     0.278 C 
ENDBRANCH   6  11
ENDBRANCH   3   5
ENDBRANCH   1   3
BRANCH   1  13
ATOM     13  S   UNL     1     -12.881 -45.929  30.473  1.00  0.00     0.304 S 
ATOM     14  O   UNL     1     -13.867 -46.898  30.878  1.00  0.00    -0.189 OA
ATOM     15  O   UNL     1     -11.615 -46.300  29.893  1.00  0.00    -0.189 OA
BRANCH  13  16
ATOM     16  N   UNL     1     -13.538 -44.729  29.568  1.00  0.00    -0.205 N 
ATOM     17  C   UNL     1     -13.563 -44.777  28.181  1.00  0.00     0.422 C 
ATOM     18  H   UNL     1     -13.375 -43.804  29.947  1.00  0.00     0.188 HD
ATOM     19  O   UNL     1     -13.381 -45.782  27.516  1.00  0.00    -0.223 OA
BRANCH  17  20
ATOM     20  O   UNL     1     -13.814 -43.544  27.675  1.00  0.00    -0.444 OA
BRANCH  20  21
ATOM     21  C   UNL     1     -13.616 -43.404  26.265  1.00  0.00     0.270 C 
BRANCH  21  22
ATOM     22  C   UNL     1     -14.942 -43.146  25.600  1.00  0.00    -0.011 A 
ATOM     23  C   UNL     1     -15.092 -43.315  24.217  1.00  0.00     0.007 A 
ATOM     24  C   UNL     1     -16.058 -42.774  26.365  1.00  0.00     0.007 A 
ATOM     25  C   UNL     1     -16.329 -43.097  23.608  1.00  0.00     0.000 A 
ATOM     26  C   UNL     1     -17.294 -42.560  25.754  1.00  0.00     0.000 A 
ATOM     27  C   UNL     1     -17.429 -42.719  24.376  1.00  0.00     0.000 A 
ENDBRANCH  21  22
ENDBRANCH  20  21
ENDBRANCH  17  20
ENDBRANCH  13  16
ENDBRANCH   1  13
TORSDOF 8
ENDMDL
MODEL 2
REMARK VINA RESULT:    -9.610      1.580      2.577
REMARK INTER + INTRA:         -15.294
REMARK INTER:                 -14.132
REMARK INTRA:                  -1.163
REMARK UNBOUND:                -1.190
REMARK SMILES COc1ccccc1[C@H](C)NS(=O)(=O)NC(=O)OCc1ccccc1
REMARK SMILES IDX 11 1 9 3 10 4 8 5 3 6 4 7 5 8 7 9 6 10 2 11 1 12 12 13 13 14
REMARK SMILES IDX 14 15 15 16 16 17 17 19 18 20 19 21 20 22 21 23 25 24 22 25
REMARK SMILES IDX 24 26 23 27
REMARK H PARENT 11 2 15 18
ROOT
ATOM      1  N   UNL     1     -11.822 -44.746  29.626  1.00  0.00    -0.190 NA
ATOM      2  H   UNL     1     -11.578 -44.522  28.662  1.00  0.00     0.143 HD
ENDROOT
BRANCH   1   3
ATOM      3  C   UNL     1     -10.844 -45.676  30.259  1.00  0.00     0.102 C 
ATOM      4  C   UNL     1     -10.161 -46.499  29.165  1.00  0.00     0.031 C 
BRANCH   3   5
ATOM      5  C   UNL     1      -9.801 -44.927  31.084  1.00  0.00     0.012 A 
ATOM      6  C   UNL     1     -10.200 -44.026  32.095  1.00  0.00     0.123 A 
ATOM      7  C   UNL     1      -9.232 -43.358  32.854  1.00  0.00     0.047 A 
ATOM      8  C   UNL     1      -7.873 -43.582  32.626  1.00  0.00     0.004 A 
ATOM      9  C   UNL     1      -8.425 -45.145  30.878  1.00  0.00     0.009 A 
ATOM     10  C   UNL     1      -7.469 -44.475  31.641  1.00  0.00     0.001 A 
BRANCH   6  11
ATOM     11  O   UNL     1     -11.552 -43.874  32.260  1.00  0.00    -0.496 OA
ATOM     12  C   UNL     1     -12.007 -42.722  32.958  1.00  0.00     0.278 C 
ENDBRANCH   6  11
ENDBRANCH   3   5
ENDBRANCH   1   3
BRANCH   1  13
ATOM     13  S   UNL     1     -13.437 -45.191  29.682  1.00  0.00     0.304 S 
ATOM     14  O   UNL     1     -14.152 -44.086  30.265  1.00  0.00    -0.189 OA
ATOM     15  O   UNL     1     -13.451 -46.516  30.248  1.00  0.00    -0.189 OA
BRANCH  13  16
ATOM     16  N   UNL     1     -13.706 -45.311  28.068  1.00  0.00    -0.205 N 
ATOM     17  C   UNL     1     -13.545 -44.233  27.209  1.00  0.00     0.422 C 
ATOM     18  H   UNL     1     -14.484 -45.915  27.833  1.00  0.00     0.188 HD
ATOM     19  O   UNL     1     -12.940 -43.210  27.481  1.00  0.00    -0.223 OA
BRANCH  17  20
ATOM     20  O   UNL     1     -14.163 -44.480  26.027  1.00  0.00    -0.444 OA
BRANCH  20  21
ATOM     21  C   UNL     1     -14.188 -43.387  25.104  1.00  0.00     0.270 C 
BRANCH  21  22
ATOM     22  C   UNL     1     -15.619 -43.020  24.810  1.00  0.00    -0.011 A 
ATOM     23  C   UNL     1     -16.529 -42.804  25.854  1.00  0.00     0.007 A 
ATOM     24  C   UNL     1     -16.049 -42.848  23.486  1.00  0.00     0.007 A 
ATOM     25  C   UNL     1     -17.848 -42.441  25.578  1.00  0.00     0.000 A 
ATOM     26  C   UNL     1     -17.368 -42.482  23.213  1.00  0.00     0.000 A 
ATOM     27  C   UNL     1     -18.268 -42.281  24.259  1.00  0.00     0.000 A 
ENDBRANCH  21  22
ENDBRANCH  20  21
ENDBRANCH  17  20
ENDBRANCH  13  16
ENDBRANCH   1  13
TORSDOF 8
ENDMDL
MODEL 3
REMARK VINA RESULT:    -9.365      1.765      2.376
REMARK INTER + INTRA:         -14.934
REMARK INTER:                 -14.072
REMARK INTRA:                  -0.862
REMARK UNBOUND:                -1.190
REMARK SMILES COc1ccccc1[C@H](C)NS(=O)(=O)NC(=O)OCc1ccccc1
REMARK SMILES IDX 11 1 9 3 10 4 8 5 3 6 4 7 5 8 7 9 6 10 2 11 1 12 12 13 13 14
REMARK SMILES IDX 14 15 15 16 16 17 17 19 18 20 19 21 20 22 21 23 25 24 22 25
REMARK SMILES IDX 24 26 23 27
REMARK H PARENT 11 2 15 18
ROOT
ATOM      1  N   UNL     1     -12.458 -43.828  32.177  1.00  0.00    -0.190 NA
ATOM      2  H   UNL     1     -12.265 -44.657  32.738  1.00  0.00     0.143 HD
ENDROOT
BRANCH   1   3
ATOM      3  C   UNL     1     -11.398 -42.789  32.315  1.00  0.00     0.102 C 
ATOM      4  C   UNL     1     -11.222 -42.451  33.798  1.00  0.00     0.031 C 
BRANCH   3   5
ATOM      5  C   UNL     1     -10.070 -43.249  31.719  1.00  0.00     0.012 A 
ATOM      6  C   UNL     1      -9.922 -43.380  30.321  1.00  0.00     0.123 A 
ATOM      7  C   UNL     1      -8.694 -43.788  29.787  1.00  0.00     0.047 A 
ATOM      8  C   UNL     1      -7.610 -44.059  30.625  1.00  0.00     0.004 A 
ATOM      9  C   UNL     1      -8.962 -43.517  32.544  1.00  0.00     0.009 A 
ATOM     10  C   UNL     1      -7.743 -43.922  32.001  1.00  0.00     0.001 A 
BRANCH   6  11
ATOM     11  O   UNL     1     -11.031 -43.084  29.571  1.00  0.00    -0.496 OA
ATOM     12  C   UNL     1     -10.831 -42.404  28.339  1.00  0.00     0.278 C 
ENDBRANCH   6  11
ENDBRANCH   3   5
ENDBRANCH   1   3
BRANCH   1  13
ATOM     13  S   UNL     1     -14.036 -43.343  32.462  1.00  0.00     0.304 S 
ATOM     14  O   UNL     1     -14.008 -41.914  32.634  1.00  0.00    -0.189 OA
ATOM     15  O   UNL     1     -14.537 -44.242  33.472  1.00  0.00    -0.189 OA
BRANCH  13  16
ATOM     16  N   UNL     1     -14.681 -43.773  31.016  1.00  0.00    -0.205 N 
ATOM     17  C   UNL     1     -14.088 -44.721  30.193  1.00  0.00     0.422 C 
ATOM     18  H   UNL     1     -15.104 -42.999  30.518  1.00  0.00     0.188 HD
ATOM     19  O   UNL     1     -13.234 -45.514  30.549  1.00  0.00    -0.223 OA
BRANCH  17  20
ATOM     20  O   UNL     1     -14.593 -44.632  28.938  1.00  0.00    -0.444 OA
BRANCH  20  21
ATOM     21  C   UNL     1     -13.654 -44.843  27.879  1.00  0.00     0.270 C 
BRANCH  21  22
ATOM     22  C   UNL     1     -14.163 -44.182  26.625  1.00  0.00    -0.011 A 
ATOM     23  C   UNL     1     -14.538 -42.832  26.633  1.00  0.00     0.007 A 
ATOM     24  C   UNL     1     -14.227 -44.899  25.422  1.00  0.00     0.007 A 
ATOM     25  C   UNL     1     -14.988 -42.215  25.464  1.00  0.00     0.000 A 
ATOM     26  C   UNL     1     -14.675 -44.280  24.253  1.00  0.00     0.000 A 
ATOM     27  C   UNL     1     -15.057 -42.940  24.275  1.00  0.00     0.000 A 
ENDBRANCH  21  22
ENDBRANCH  20  21
ENDBRANCH  17  20
ENDBRANCH  13  16
ENDBRANCH   1  13
TORSDOF 8
ENDMDL
MODEL 4
REMARK VINA RESULT:    -9.249      1.982      3.139
REMARK INTER + INTRA:         -14.764
REMARK INTER:                 -14.225
REMARK INTRA:                  -0.539
REMARK UNBOUND:                -1.190
REMARK SMILES COc1ccccc1[C@H](C)NS(=O)(=O)NC(=O)OCc1ccccc1
REMARK SMILES IDX 11 1 9 3 10 4 8 5 3 6 4 7 5 8 7 9 6 10 2 11 1 12 12 13 13 14
REMARK SMILES IDX 14 15 15 16 16 17 17 19 18 20 19 21 20 22 21 23 25 24 22 25
REMARK SMILES IDX 24 26 23 27
REMARK H PARENT 11 2 15 18
ROOT
ATOM      1  N   UNL     1     -13.452 -45.350  29.821  1.00  0.00    -0.190 NA
ATOM      2  H   UNL     1     -14.466 -45.454  29.834  1.00  0.00     0.143 HD
ENDROOT
BRANCH   1   3
ATOM      3  C   UNL     1     -12.939 -44.627  31.019  1.00  0.00     0.102 C 
ATOM      4  C   UNL     1     -13.784 -45.014  32.234  1.00  0.00     0.031 C 
BRANCH   3   5
ATOM      5  C   UNL     1     -11.467 -44.933  31.281  1.00  0.00     0.012 A 
ATOM      6  C   UNL     1     -10.632 -43.969  31.886  1.00  0.00     0.123 A 
ATOM      7  C   UNL     1      -9.288 -44.270  32.134  1.00  0.00     0.047 A 
ATOM      8  C   UNL     1      -8.767 -45.521  31.796  1.00  0.00     0.004 A 
ATOM      9  C   UNL     1     -10.923 -46.191  30.957  1.00  0.00     0.009 A 
ATOM     10  C   UNL     1      -9.582 -46.480  31.210  1.00  0.00     0.001 A 
BRANCH   6  11
ATOM     11  O   UNL     1     -11.227 -42.774  32.196  1.00  0.00    -0.496 OA
ATOM     12  C   UNL     1     -11.192 -42.352  33.554  1.00  0.00     0.278 C 
ENDBRANCH   6  11
ENDBRANCH   3   5
ENDBRANCH   1   3
BRANCH   1  13
ATOM     13  S   UNL     1     -12.993 -44.758  28.322  1.00  0.00     0.304 S 
ATOM     14  O   UNL     1     -12.502 -45.880  27.565  1.00  0.00    -0.189 OA
ATOM     15  O   UNL     1     -12.192 -43.592  28.599  1.00  0.00    -0.189 OA
BRANCH  13  16
ATOM     16  N   UNL     1     -14.468 -44.265  27.800  1.00  0.00    -0.205 N 
ATOM     17  C   UNL     1     -14.621 -43.375  26.746  1.00  0.00     0.422 C 
ATOM     18  H   UNL     1     -15.138 -44.139  28.548  1.00  0.00     0.188 HD
ATOM     19  O   UNL     1     -13.751 -43.096  25.939  1.00  0.00    -0.223 OA
BRANCH  17  20
ATOM     20  O   UNL     1     -15.874 -42.858  26.748  1.00  0.00    -0.444 OA
BRANCH  20  21
ATOM     21  C   UNL     1     -16.560 -42.897  25.492  1.00  0.00     0.270 C 
BRANCH  21  22
ATOM     22  C   UNL     1     -17.955 -42.361  25.672  1.00  0.00    -0.011 A 
ATOM     23  C   UNL     1     -18.484 -42.166  26.955  1.00  0.00     0.007 A 
ATOM     24  C   UNL     1     -18.729 -42.010  24.556  1.00  0.00     0.007 A 
ATOM     25  C   UNL     1     -19.770 -41.646  27.119  1.00  0.00     0.000 A 
ATOM     26  C   UNL     1     -20.014 -41.488  24.723  1.00  0.00     0.000 A 
ATOM     27  C   UNL     1     -20.534 -41.309  26.003  1.00  0.00     0.000 A 
ENDBRANCH  21  22
ENDBRANCH  20  21
ENDBRANCH  17  20
ENDBRANCH  13  16
ENDBRANCH   1  13
TORSDOF 8
ENDMDL
MODEL 5
REMARK VINA RESULT:    -8.979      1.845      2.875
REMARK INTER + INTRA:         -14.368
REMARK INTER:                 -13.705
REMARK INTRA:                  -0.664
REMARK UNBOUND:                -1.190
REMARK SMILES COc1ccccc1[C@H](C)NS(=O)(=O)NC(=O)OCc1ccccc1
REMARK SMILES IDX 11 1 9 3 10 4 8 5 3 6 4 7 5 8 7 9 6 10 2 11 1 12 12 13 13 14
REMARK SMILES IDX 14 15 15 16 16 17 17 19 18 20 19 21 20 22 21 23 25 24 22 25
REMARK SMILES IDX 24 26 23 27
REMARK H PARENT 11 2 15 18
ROOT
ATOM      1  N   UNL     1     -11.489 -43.029  29.919  1.00  0.00    -0.190 NA
ATOM      2  H   UNL     1     -12.188 -42.286  29.903  1.00  0.00     0.143 HD
ENDROOT
BRANCH   1   3
ATOM      3  C   UNL     1     -10.656 -42.999  31.154  1.00  0.00     0.102 C 
ATOM      4  C   UNL     1     -11.578 -42.911  32.373  1.00  0.00     0.031 C 
BRANCH   3   5
ATOM      5  C   UNL     1      -9.755 -44.226  31.262  1.00  0.00     0.012 A 
ATOM      6  C   UNL     1     -10.315 -45.518  31.357  1.00  0.00     0.123 A 
ATOM      7  C   UNL     1      -9.476 -46.635  31.440  1.00  0.00     0.047 A 
ATOM      8  C   UNL     1      -8.088 -46.484  31.421  1.00  0.00     0.004 A 
ATOM      9  C   UNL     1      -8.353 -44.097  31.235  1.00  0.00     0.009 A 
ATOM     10  C   UNL     1      -7.527 -45.217  31.317  1.00  0.00     0.001 A 
BRANCH   6  11
ATOM     11  O   UNL     1     -11.684 -45.578  31.358  1.00  0.00    -0.496 OA
ATOM     12  C   UNL     1     -12.313 -46.308  30.312  1.00  0.00     0.278 C 
ENDBRANCH   6  11
ENDBRANCH   3   5
ENDBRANCH   1   3
BRANCH   1  13
ATOM     13  S   UNL     1     -10.674 -43.030  28.454  1.00  0.00     0.304 S 
ATOM     14  O   UNL     1     -10.360 -44.402  28.155  1.00  0.00    -0.189 OA
ATOM     15  O   UNL     1      -9.667 -42.006  28.574  1.00  0.00    -0.189 OA
BRANCH  13  16
ATOM     16  N   UNL     1     -11.887 -42.459  27.508  1.00  0.00    -0.205 N 
ATOM     17  C   UNL     1     -13.075 -43.154  27.328  1.00  0.00     0.422 C 
ATOM     18  H   UNL     1     -11.558 -41.980  26.679  1.00  0.00     0.188 HD
ATOM     19  O   UNL     1     -13.460 -44.068  28.036  1.00  0.00    -0.223 OA
BRANCH  17  20
ATOM     20  O   UNL     1     -13.740 -42.672  26.249  1.00  0.00    -0.444 OA
BRANCH  20  21
ATOM     21  C   UNL     1     -14.288 -43.660  25.370  1.00  0.00     0.270 C 
BRANCH  21  22
ATOM     22  C   UNL     1     -15.673 -43.238  24.953  1.00  0.00    -0.011 A 
ATOM     23  C   UNL     1     -16.601 -42.797  25.906  1.00  0.00     0.007 A 
ATOM     24  C   UNL     1     -16.037 -43.241  23.599  1.00  0.00     0.007 A 
ATOM     25  C   UNL     1     -17.876 -42.385  25.514  1.00  0.00     0.000 A 
ATOM     26  C   UNL     1     -17.311 -42.827  23.209  1.00  0.00     0.000 A 
ATOM     27  C   UNL     1     -18.231 -42.401  24.165  1.00  0.00     0.000 A 
ENDBRANCH  21  22
ENDBRANCH  20  21
ENDBRANCH  17  20
ENDBRANCH  13  16
ENDBRANCH   1  13
TORSDOF 8
ENDMDL
MODEL 6
REMARK VINA RESULT:    -8.658      1.976      3.024
REMARK INTER + INTRA:         -13.897
REMARK INTER:                 -13.593
REMARK INTRA:                  -0.304
REMARK UNBOUND:                -1.190
REMARK SMILES COc1ccccc1[C@H](C)NS(=O)(=O)NC(=O)OCc1ccccc1
REMARK SMILES IDX 11 1 9 3 10 4 8 5 3 6 4 7 5 8 7 9 6 10 2 11 1 12 12 13 13 14
REMARK SMILES IDX 14 15 15 16 16 17 17 19 18 20 19 21 20 22 21 23 25 24 22 25
REMARK SMILES IDX 24 26 23 27
REMARK H PARENT 11 2 15 18
ROOT
ATOM      1  N   UNL     1     -13.090 -43.952  29.441  1.00  0.00    -0.190 NA
ATOM      2  H   UNL     1     -13.513 -43.071  29.733  1.00  0.00     0.143 HD
ENDROOT
BRANCH   1   3
ATOM      3  C   UNL     1     -12.772 -44.840  30.595  1.00  0.00     0.102 C 
ATOM      4  C   UNL     1     -12.422 -46.234  30.069  1.00  0.00     0.031 C 
BRANCH   3   5
ATOM      5  C   UNL     1     -11.623 -44.290  31.436  1.00  0.00     0.012 A 
ATOM      6  C   UNL     1     -11.795 -43.114  32.198  1.00  0.00     0.123 A 
ATOM      7  C   UNL     1     -10.737 -42.630  32.977  1.00  0.00     0.047 A 
ATOM      8  C   UNL     1      -9.515 -43.305  33.013  1.00  0.00     0.004 A 
ATOM      9  C   UNL     1     -10.386 -44.960  31.494  1.00  0.00     0.009 A 
ATOM     10  C   UNL     1      -9.340 -44.468  32.274  1.00  0.00     0.001 A 
BRANCH   6  11
ATOM     11  O   UNL     1     -13.028 -42.521  32.115  1.00  0.00    -0.496 OA
ATOM     12  C   UNL     1     -13.954 -42.775  33.164  1.00  0.00     0.278 C 
ENDBRANCH   6  11
ENDBRANCH   3   5
ENDBRANCH   1   3
BRANCH   1  13
ATOM     13  S   UNL     1     -11.843 -43.620  28.372  1.00  0.00     0.304 S 
ATOM     14  O   UNL     1     -11.267 -44.886  28.000  1.00  0.00    -0.189 OA
ATOM     15  O   UNL     1     -11.079 -42.565  28.988  1.00  0.00    -0.189 OA
BRANCH  13  16
ATOM     16  N   UNL     1     -12.737 -42.975  27.157  1.00  0.00    -0.205 N 
ATOM     17  C   UNL     1     -13.779 -43.667  26.556  1.00  0.00     0.422 C 
ATOM     18  H   UNL     1     -12.196 -42.405  26.518  1.00  0.00     0.188 HD
ATOM     19  O   UNL     1     -14.316 -44.658  27.021  1.00  0.00    -0.223 OA
BRANCH  17  20
ATOM     20  O   UNL     1     -14.108 -43.086  25.376  1.00  0.00    -0.444 OA
BRANCH  20  21
ATOM     21  C   UNL     1     -14.966 -43.855  24.527  1.00  0.00     0.270 C 
BRANCH  21  22
ATOM     22  C   UNL     1     -16.275 -43.130  24.357  1.00  0.00    -0.011 A 
ATOM     23  C   UNL     1     -17.104 -42.888  25.461  1.00  0.00     0.007 A 
ATOM     24  C   UNL     1     -16.661 -42.649  23.098  1.00  0.00     0.007 A 
ATOM     25  C   UNL     1     -18.306 -42.194  25.304  1.00  0.00     0.000 A 
ATOM     26  C   UNL     1     -17.862 -41.954  22.944  1.00  0.00     0.000 A 
ATOM     27  C   UNL     1     -18.684 -41.729  24.046  1.00  0.00     0.000 A 
ENDBRANCH  21  22
ENDBRANCH  20  21
ENDBRANCH  17  20
ENDBRANCH  13  16
ENDBRANCH   1  13
TORSDOF 8
ENDMDL
MODEL 7
REMARK VINA RESULT:    -7.899      4.408      8.983
REMARK INTER + INTRA:         -12.783
REMARK INTER:                 -11.436
REMARK INTRA:                  -1.348
REMARK UNBOUND:                -1.190
REMARK SMILES COc1ccccc1[C@H](C)NS(=O)(=O)NC(=O)OCc1ccccc1
REMARK SMILES IDX 11 1 9 3 10 4 8 5 3 6 4 7 5 8 7 9 6 10 2 11 1 12 12 13 13 14
REMARK SMILES IDX 14 15 15 16 16 17 17 19 18 20 19 21 20 22 21 23 25 24 22 25
REMARK SMILES IDX 24 26 23 27
REMARK H PARENT 11 2 15 18
ROOT
ATOM      1  N   UNL     1     -18.826 -43.537  24.198  1.00  0.00    -0.190 NA
ATOM      2  H   UNL     1     -19.001 -44.300  23.544  1.00  0.00     0.143 HD
ENDROOT
BRANCH   1   3
ATOM      3  C   UNL     1     -20.086 -42.938  24.721  1.00  0.00     0.102 C 
ATOM      4  C   UNL     1     -21.199 -43.138  23.690  1.00  0.00     0.031 C 
BRANCH   3   5
ATOM      5  C   UNL     1     -20.492 -43.547  26.060  1.00  0.00     0.012 A 
ATOM      6  C   UNL     1     -19.734 -43.288  27.223  1.00  0.00     0.123 A 
ATOM      7  C   UNL     1     -20.128 -43.841  28.447  1.00  0.00     0.047 A 
ATOM      8  C   UNL     1     -21.269 -44.642  28.530  1.00  0.00     0.004 A 
ATOM      9  C   UNL     1     -21.644 -44.349  26.169  1.00  0.00     0.009 A 
ATOM     10  C   UNL     1     -22.027 -44.895  27.394  1.00  0.00     0.001 A 
BRANCH   6  11
ATOM     11  O   UNL     1     -18.637 -42.483  27.055  1.00  0.00    -0.496 OA
ATOM     12  C   UNL     1     -17.695 -42.422  28.118  1.00  0.00     0.278 C 
ENDBRANCH   6  11
ENDBRANCH   3   5
ENDBRANCH   1   3
BRANCH   1  13
ATOM     13  S   UNL     1     -17.713 -42.488  23.513  1.00  0.00     0.304 S 
ATOM     14  O   UNL     1     -18.375 -41.218  23.366  1.00  0.00    -0.189 OA
ATOM     15  O   UNL     1     -17.144 -43.205  22.400  1.00  0.00    -0.189 OA
BRANCH  13  16
ATOM     16  N   UNL     1     -16.620 -42.471  24.735  1.00  0.00    -0.205 N 
ATOM     17  C   UNL     1     -15.283 -42.160  24.528  1.00  0.00     0.422 C 
ATOM     18  H   UNL     1     -16.774 -43.197  25.424  1.00  0.00     0.188 HD
ATOM     19  O   UNL     1     -14.842 -41.611  23.534  1.00  0.00    -0.223 OA
BRANCH  17  20
ATOM     20  O   UNL     1     -14.540 -42.562  25.589  1.00  0.00    -0.444 OA
BRANCH  20  21
ATOM     21  C   UNL     1     -14.690 -43.935  25.964  1.00  0.00     0.270 C 
BRANCH  21  22
ATOM     22  C   UNL     1     -13.505 -44.356  26.792  1.00  0.00    -0.011 A 
ATOM     23  C   UNL     1     -12.629 -43.398  27.321  1.00  0.00     0.007 A 
ATOM     24  C   UNL     1     -13.288 -45.711  27.083  1.00  0.00     0.007 A 
ATOM     25  C   UNL     1     -11.545 -43.790  28.109  1.00  0.00     0.000 A 
ATOM     26  C   UNL     1     -12.205 -46.100  27.873  1.00  0.00     0.000 A 
ATOM     27  C   UNL     1     -11.333 -45.140  28.383  1.00  0.00     0.000 A 
ENDBRANCH  21  22
ENDBRANCH  20  21
ENDBRANCH  17  20
ENDBRANCH  13  16
ENDBRANCH   1  13
TORSDOF 8
ENDMDL
MODEL 8
REMARK VINA RESULT:    -7.896      6.246      8.326
REMARK INTER + INTRA:         -12.778
REMARK INTER:                 -11.069
REMARK INTRA:                  -1.709
REMARK UNBOUND:                -1.190
REMARK SMILES COc1ccccc1[C@H](C)NS(=O)(=O)NC(=O)OCc1ccccc1
REMARK SMILES IDX 11 1 9 3 10 4 8 5 3 6 4 7 5 8 7 9 6 10 2 11 1 12 12 13 13 14
REMARK SMILES IDX 14 15 15 16 16 17 17 19 18 20 19 21 20 22 21 23 25 24 22 25
REMARK SMILES IDX 24 26 23 27
REMARK H PARENT 11 2 15 18
ROOT
ATOM      1  N   UNL     1     -19.123 -43.088  26.709  1.00  0.00    -0.190 NA
ATOM      2  H   UNL     1     -19.154 -43.969  27.221  1.00  0.00     0.143 HD
ENDROOT
BRANCH   1   3
ATOM      3  C   UNL     1     -17.892 -42.302  27.006  1.00  0.00     0.102 C 
ATOM      4  C   UNL     1     -17.545 -42.462  28.488  1.00  0.00     0.031 C 
BRANCH   3   5
ATOM      5  C   UNL     1     -16.715 -42.739  26.138  1.00  0.00     0.012 A 
ATOM      6  C   UNL     1     -16.780 -42.620  24.733  1.00  0.00     0.123 A 
ATOM      7  C   UNL     1     -15.687 -43.011  23.951  1.00  0.00     0.047 A 
ATOM      8  C   UNL     1     -14.528 -43.510  24.550  1.00  0.00     0.004 A 
ATOM      9  C   UNL     1     -15.533 -43.236  26.721  1.00  0.00     0.009 A 
ATOM     10  C   UNL     1     -14.450 -43.621  25.932  1.00  0.00     0.001 A 
BRANCH   6  11
ATOM     11  O   UNL     1     -17.948 -42.110  24.229  1.00  0.00    -0.496 OA
ATOM     12  C   UNL     1     -17.963 -41.722  22.861  1.00  0.00     0.278 C 
ENDBRANCH   6  11
ENDBRANCH   3   5
ENDBRANCH   1   3
BRANCH   1  13
ATOM     13  S   UNL     1     -20.591 -42.303  26.903  1.00  0.00     0.304 S 
ATOM     14  O   UNL     1     -20.291 -40.964  27.340  1.00  0.00    -0.189 OA
ATOM     15  O   UNL     1     -21.412 -43.208  27.666  1.00  0.00    -0.189 OA
BRANCH  13  16
ATOM     16  N   UNL     1     -21.088 -42.339  25.340  1.00  0.00    -0.205 N 
ATOM     17  C   UNL     1     -21.012 -43.488  24.566  1.00  0.00     0.422 C 
ATOM     18  H   UNL     1     -20.886 -41.485  24.834  1.00  0.00     0.188 HD
ATOM     19  O   UNL     1     -20.855 -44.614  25.005  1.00  0.00    -0.223 OA
BRANCH  17  20
ATOM     20  O   UNL     1     -21.134 -43.176  23.252  1.00  0.00    -0.444 OA
BRANCH  20  21
ATOM     21  C   UNL     1     -22.103 -42.169  22.944  1.00  0.00     0.270 C 
BRANCH  21  22
ATOM     22  C   UNL     1     -21.462 -41.111  22.084  1.00  0.00    -0.011 A 
ATOM     23  C   UNL     1     -21.112 -39.867  22.626  1.00  0.00     0.007 A 
ATOM     24  C   UNL     1     -21.168 -41.374  20.738  1.00  0.00     0.007 A 
ATOM     25  C   UNL     1     -20.496 -38.897  21.832  1.00  0.00     0.000 A 
ATOM     26  C   UNL     1     -20.550 -40.404  19.947  1.00  0.00     0.000 A 
ATOM     27  C   UNL     1     -20.217 -39.166  20.493  1.00  0.00     0.000 A 
ENDBRANCH  21  22
ENDBRANCH  20  21
ENDBRANCH  17  20
ENDBRANCH  13  16
ENDBRANCH   1  13
TORSDOF 8
ENDMDL
MODEL 9
REMARK VINA RESULT:    -7.702      6.537      9.419
REMARK INTER + INTRA:         -12.494
REMARK INTER:                 -11.047
REMARK INTRA:                  -1.447
REMARK UNBOUND:                -1.190
REMARK SMILES COc1ccccc1[C@H](C)NS(=O)(=O)NC(=O)OCc1ccccc1
REMARK SMILES IDX 11 1 9 3 10 4 8 5 3 6 4 7 5 8 7 9 6 10 2 11 1 12 12 13 13 14
REMARK SMILES IDX 14 15 15 16 16 17 17 19 18 20 19 21 20 22 21 23 25 24 22 25
REMARK SMILES IDX 24 26 23 27
REMARK H PARENT 11 2 15 18
ROOT
ATOM      1  N   UNL     1     -19.522 -43.021  25.091  1.00  0.00    -0.190 NA
ATOM      2  H   UNL     1     -19.847 -43.783  25.685  1.00  0.00     0.143 HD
ENDROOT
BRANCH   1   3
ATOM      3  C   UNL     1     -18.588 -42.103  25.803  1.00  0.00     0.102 C 
ATOM      4  C   UNL     1     -18.975 -42.050  27.283  1.00  0.00     0.031 C 
BRANCH   3   5
ATOM      5  C   UNL     1     -17.135 -42.543  25.653  1.00  0.00     0.012 A 
ATOM      6  C   UNL     1     -16.505 -42.514  24.390  1.00  0.00     0.123 A 
ATOM      7  C   UNL     1     -15.167 -42.906  24.270  1.00  0.00     0.047 A 
ATOM      8  C   UNL     1     -14.445 -43.318  25.393  1.00  0.00     0.004 A 
ATOM      9  C   UNL     1     -16.385 -42.952  26.773  1.00  0.00     0.009 A 
ATOM     10  C   UNL     1     -15.052 -43.340  26.642  1.00  0.00     0.001 A 
BRANCH   6  11
ATOM     11  O   UNL     1     -17.282 -42.086  23.344  1.00  0.00    -0.496 OA
ATOM     12  C   UNL     1     -16.660 -41.291  22.343  1.00  0.00     0.278 C 
ENDBRANCH   6  11
ENDBRANCH   3   5
ENDBRANCH   1   3
BRANCH   1  13
ATOM     13  S   UNL     1     -20.849 -42.323  24.342  1.00  0.00     0.304 S 
ATOM     14  O   UNL     1     -21.705 -41.830  25.389  1.00  0.00    -0.189 OA
ATOM     15  O   UNL     1     -21.287 -43.285  23.362  1.00  0.00    -0.189 OA
BRANCH  13  16
ATOM     16  N   UNL     1     -20.070 -41.106  23.565  1.00  0.00    -0.205 N 
ATOM     17  C   UNL     1     -20.751 -40.111  22.877  1.00  0.00     0.422 C 
ATOM     18  H   UNL     1     -19.207 -41.398  23.124  1.00  0.00     0.188 HD
ATOM     19  O   UNL     1     -21.938 -39.866  23.003  1.00  0.00    -0.223 OA
BRANCH  17  20
ATOM     20  O   UNL     1     -19.905 -39.457  22.043  1.00  0.00    -0.444 OA
BRANCH  20  21
ATOM     21  C   UNL     1     -19.716 -40.061  20.759  1.00  0.00     0.270 C 
BRANCH  21  22
ATOM     22  C   UNL     1     -20.815 -39.611  19.833  1.00  0.00    -0.011 A 
ATOM     23  C   UNL     1     -21.802 -40.511  19.409  1.00  0.00     0.007 A 
ATOM     24  C   UNL     1     -20.889 -38.274  19.417  1.00  0.00     0.007 A 
ATOM     25  C   UNL     1     -22.833 -40.085  18.569  1.00  0.00     0.000 A 
ATOM     26  C   UNL     1     -21.922 -37.850  18.579  1.00  0.00     0.000 A 
ATOM     27  C   UNL     1     -22.892 -38.756  18.153  1.00  0.00     0.000 A 
ENDBRANCH  21  22
ENDBRANCH  20  21
ENDBRANCH  17  20
ENDBRANCH  13  16
ENDBRANCH   1  13
TORSDOF 8
ENDMDL
