MODEL 1
REMARK VINA RESULT:   -12.588      0.000      0.000
REMARK INTER + INTRA:         -17.266
REMARK INTER:                 -17.372
REMARK INTRA:                   0.106
REMARK UNBOUND:                 0.106
REMARK SMILES COc1ccc2c(c1)CCC(Cc1cc[n+](Cc3ccccc3C)cc1C(C)=O)=C2O
REMARK SMILES IDX 13 1 14 2 15 3 16 4 25 5 26 6 12 7 11 8 30 9 6 10 10 11 5 12
REMARK SMILES IDX 7 13 9 14 4 15 8 16 3 17 31 18 2 20 1 21 27 22 28 23 29 24
REMARK SMILES IDX 17 25 18 26 19 27 23 28 20 29 22 30 21 31 24 32
REMARK H PARENT 31 19
ROOT
ATOM      1  C   UNL     1     -12.699 -44.015  27.349  1.00  0.00    -0.021 A 
ATOM      2  C   UNL     1     -13.359 -45.161  27.821  1.00  0.00     0.075 A 
ATOM      3  C   UNL     1     -12.958 -45.779  29.004  1.00  0.00     0.308 A 
ATOM      4  N   UNL     1     -11.923 -45.284  29.718  1.00  0.00    -0.200 N 
ATOM      5  C   UNL     1     -11.251 -44.195  29.283  1.00  0.00     0.320 A 
ATOM      6  C   UNL     1     -11.600 -43.556  28.089  1.00  0.00     0.085 A 
ENDROOT
BRANCH   1   7
ATOM      7  C   UNL     1     -13.282 -43.293  26.149  1.00  0.00     0.071 C 
BRANCH   7   8
ATOM      8  C   UNL     1     -14.771 -43.059  26.270  1.00  0.00    -0.023 C 
ATOM      9  C   UNL     1     -15.542 -42.718  25.220  1.00  0.00     0.122 C 
ATOM     10  C   UNL     1     -17.010 -42.585  25.357  1.00  0.00     0.020 A 
ATOM     11  C   UNL     1     -15.403 -43.300  27.624  1.00  0.00     0.040 C 
ATOM     12  C   UNL     1     -17.876 -42.612  24.257  1.00  0.00     0.016 A 
ATOM     13  C   UNL     1     -17.563 -42.454  26.643  1.00  0.00    -0.033 A 
ATOM     14  C   UNL     1     -16.660 -42.450  27.849  1.00  0.00     0.041 C 
ATOM     15  C   UNL     1     -19.260 -42.463  24.424  1.00  0.00     0.047 A 
ATOM     16  C   UNL     1     -18.947 -42.287  26.801  1.00  0.00     0.050 A 
ATOM     17  C   UNL     1     -19.800 -42.291  25.696  1.00  0.00     0.119 A 
BRANCH   9  18
ATOM     18  O   UNL     1     -14.979 -42.476  23.988  1.00  0.00    -0.507 OA
ATOM     19  H   UNL     1     -15.415 -43.046  23.330  1.00  0.00     0.293 HD
ENDBRANCH   9  18
BRANCH  17  20
ATOM     20  O   UNL     1     -21.122 -42.127  25.997  1.00  0.00    -0.497 OA
ATOM     21  C   UNL     1     -21.464 -41.017  26.819  1.00  0.00     0.278 C 
ENDBRANCH  17  20
ENDBRANCH   7   8
ENDBRANCH   1   7
BRANCH   6  22
ATOM     22  C   UNL     1     -10.736 -42.404  27.756  1.00  0.00     0.166 C 
ATOM     23  C   UNL     1      -9.342 -42.636  27.241  1.00  0.00     0.094 C 
ATOM     24  O   UNL     1     -11.164 -41.285  28.033  1.00  0.00    -0.294 OA
ENDBRANCH   6  22
BRANCH   4  25
ATOM     25  C   UNL     1     -11.538 -45.928  31.003  1.00  0.00     0.393 C 
BRANCH  25  26
ATOM     26  C   UNL     1     -10.113 -45.589  31.373  1.00  0.00     0.020 A 
ATOM     27  C   UNL     1      -9.084 -46.466  30.972  1.00  0.00     0.010 A 
ATOM     28  C   UNL     1      -9.777 -44.425  32.099  1.00  0.00    -0.042 A 
ATOM     29  C   UNL     1      -7.755 -46.210  31.302  1.00  0.00     0.001 A 
ATOM     30  C   UNL     1      -8.431 -44.187  32.424  1.00  0.00     0.004 A 
ATOM     31  C   UNL     1      -7.429 -45.072  32.032  1.00  0.00     0.000 A 
ATOM     32  C   UNL     1     -10.803 -43.412  32.532  1.00  0.00     0.045 C 
ENDBRANCH  25  26
ENDBRANCH   4  25
TORSDOF 7
ENDMDL
MODEL 2
REMARK VINA RESULT:   -11.697      2.361      9.394
REMARK INTER + INTRA:         -16.036
REMARK INTER:                 -15.206
REMARK INTRA:                  -0.830
REMARK UNBOUND:                 0.106
REMARK SMILES COc1ccc2c(c1)CCC(Cc1cc[n+](Cc3ccccc3C)cc1C(C)=O)=C2O
REMARK SMILES IDX 13 1 14 2 15 3 16 4 25 5 26 6 12 7 11 8 30 9 6 10 10 11 5 12
REMARK SMILES IDX 7 13 9 14 4 15 8 16 3 17 31 18 2 20 1 21 27 22 28 23 29 24
REMARK SMILES IDX 17 25 18 26 19 27 23 28 20 29 22 30 21 31 24 32
REMARK H PARENT 31 19
ROOT
ATOM      1  C   UNL     1     -15.449 -43.172  25.969  1.00  0.00    -0.021 A 
ATOM      2  C   UNL     1     -15.669 -43.140  27.356  1.00  0.00     0.075 A 
ATOM      3  C   UNL     1     -16.896 -42.734  27.874  1.00  0.00     0.308 A 
ATOM      4  N   UNL     1     -17.899 -42.362  27.048  1.00  0.00    -0.200 N 
ATOM      5  C   UNL     1     -17.717 -42.360  25.709  1.00  0.00     0.320 A 
ATOM      6  C   UNL     1     -16.494 -42.735  25.143  1.00  0.00     0.085 A 
ENDROOT
BRANCH   1   7
ATOM      7  C   UNL     1     -14.154 -43.776  25.461  1.00  0.00     0.071 C 
BRANCH   7   8
ATOM      8  C   UNL     1     -13.320 -44.391  26.562  1.00  0.00    -0.023 C 
ATOM      9  C   UNL     1     -12.495 -43.667  27.342  1.00  0.00     0.122 C 
ATOM     10  C   UNL     1     -11.762 -44.288  28.468  1.00  0.00     0.020 A 
ATOM     11  C   UNL     1     -13.500 -45.871  26.824  1.00  0.00     0.040 C 
ATOM     12  C   UNL     1     -11.211 -43.537  29.514  1.00  0.00     0.016 A 
ATOM     13  C   UNL     1     -11.636 -45.688  28.507  1.00  0.00    -0.033 A 
ATOM     14  C   UNL     1     -12.243 -46.524  27.412  1.00  0.00     0.041 C 
ATOM     15  C   UNL     1     -10.507 -44.159  30.555  1.00  0.00     0.047 A 
ATOM     16  C   UNL     1     -10.914 -46.301  29.542  1.00  0.00     0.050 A 
ATOM     17  C   UNL     1     -10.348 -45.543  30.568  1.00  0.00     0.119 A 
BRANCH   9  18
ATOM     18  O   UNL     1     -12.306 -42.325  27.102  1.00  0.00    -0.507 OA
ATOM     19  H   UNL     1     -11.362 -42.119  27.222  1.00  0.00     0.293 HD
ENDBRANCH   9  18
BRANCH  17  20
ATOM     20  O   UNL     1      -9.680 -46.270  31.512  1.00  0.00    -0.497 OA
ATOM     21  C   UNL     1      -8.259 -46.232  31.471  1.00  0.00     0.278 C 
ENDBRANCH  17  20
ENDBRANCH   7   8
ENDBRANCH   1   7
BRANCH   6  22
ATOM     22  C   UNL     1     -16.468 -42.641  23.668  1.00  0.00     0.166 C 
ATOM     23  C   UNL     1     -15.777 -41.483  23.003  1.00  0.00     0.094 C 
ATOM     24  O   UNL     1     -17.128 -43.469  23.043  1.00  0.00    -0.294 OA
ENDBRANCH   6  22
BRANCH   4  25
ATOM     25  C   UNL     1     -19.220 -41.977  27.617  1.00  0.00     0.393 C 
BRANCH  25  26
ATOM     26  C   UNL     1     -20.319 -42.864  27.082  1.00  0.00     0.020 A 
ATOM     27  C   UNL     1     -20.523 -44.124  27.680  1.00  0.00     0.010 A 
ATOM     28  C   UNL     1     -21.151 -42.473  26.009  1.00  0.00    -0.042 A 
ATOM     29  C   UNL     1     -21.512 -44.988  27.214  1.00  0.00     0.001 A 
ATOM     30  C   UNL     1     -22.140 -43.360  25.552  1.00  0.00     0.004 A 
ATOM     31  C   UNL     1     -22.317 -44.608  26.147  1.00  0.00     0.000 A 
ATOM     32  C   UNL     1     -21.034 -41.131  25.336  1.00  0.00     0.045 C 
ENDBRANCH  25  26
ENDBRANCH   4  25
TORSDOF 7
ENDMDL
MODEL 3
REMARK VINA RESULT:   -10.490      3.280      6.097
REMARK INTER + INTRA:         -14.370
REMARK INTER:                 -14.453
REMARK INTRA:                   0.083
REMARK UNBOUND:                 0.106
REMARK SMILES COc1ccc2c(c1)CCC(Cc1cc[n+](Cc3ccccc3C)cc1C(C)=O)=C2O
REMARK SMILES IDX 13 1 14 2 15 3 16 4 25 5 26 6 12 7 11 8 30 9 6 10 10 11 5 12
REMARK SMILES IDX 7 13 9 14 4 15 8 16 3 17 31 18 2 20 1 21 27 22 28 23 29 24
REMARK SMILES IDX 17 25 18 26 19 27 23 28 20 29 22 30 21 31 24 32
REMARK H PARENT 31 19
ROOT
ATOM      1  C   UNL     1     -17.241 -42.829  25.113  1.00  0.00    -0.021 A 
ATOM      2  C   UNL     1     -16.136 -42.886  24.249  1.00  0.00     0.075 A 
ATOM      3  C   UNL     1     -14.839 -42.753  24.739  1.00  0.00     0.308 A 
ATOM      4  N   UNL     1     -14.622 -42.567  26.060  1.00  0.00    -0.200 N 
ATOM      5  C   UNL     1     -15.662 -42.486  26.919  1.00  0.00     0.320 A 
ATOM      6  C   UNL     1     -16.983 -42.588  26.470  1.00  0.00     0.085 A 
ENDROOT
BRANCH   1   7
ATOM      7  C   UNL     1     -18.613 -43.143  24.547  1.00  0.00     0.071 C 
BRANCH   7   8
ATOM      8  C   UNL     1     -19.124 -42.069  23.615  1.00  0.00    -0.023 C 
ATOM      9  C   UNL     1     -20.429 -41.754  23.511  1.00  0.00     0.122 C 
ATOM     10  C   UNL     1     -20.884 -40.637  22.654  1.00  0.00     0.020 A 
ATOM     11  C   UNL     1     -18.094 -41.280  22.835  1.00  0.00     0.040 C 
ATOM     12  C   UNL     1     -22.141 -40.036  22.801  1.00  0.00     0.016 A 
ATOM     13  C   UNL     1     -20.012 -40.135  21.672  1.00  0.00    -0.033 A 
ATOM     14  C   UNL     1     -18.643 -40.740  21.508  1.00  0.00     0.041 C 
ATOM     15  C   UNL     1     -22.545 -38.991  21.958  1.00  0.00     0.047 A 
ATOM     16  C   UNL     1     -20.430 -39.102  20.819  1.00  0.00     0.050 A 
ATOM     17  C   UNL     1     -21.694 -38.526  20.959  1.00  0.00     0.119 A 
BRANCH   9  18
ATOM     18  O   UNL     1     -21.379 -42.476  24.198  1.00  0.00    -0.507 OA
ATOM     19  H   UNL     1     -21.732 -43.165  23.607  1.00  0.00     0.293 HD
ENDBRANCH   9  18
BRANCH  17  20
ATOM     20  O   UNL     1     -21.966 -37.526  20.068  1.00  0.00    -0.497 OA
ATOM     21  C   UNL     1     -23.330 -37.154  19.911  1.00  0.00     0.278 C 
ENDBRANCH  17  20
ENDBRANCH   7   8
ENDBRANCH   1   7
BRANCH   6  22
ATOM     22  C   UNL     1     -17.989 -42.444  27.544  1.00  0.00     0.166 C 
ATOM     23  C   UNL     1     -19.302 -41.771  27.256  1.00  0.00     0.094 C 
ATOM     24  O   UNL     1     -17.650 -42.784  28.676  1.00  0.00    -0.294 OA
ENDBRANCH   6  22
BRANCH   4  25
ATOM     25  C   UNL     1     -13.229 -42.475  26.574  1.00  0.00     0.393 C 
BRANCH  25  26
ATOM     26  C   UNL     1     -12.778 -43.794  27.156  1.00  0.00     0.020 A 
ATOM     27  C   UNL     1     -13.470 -44.966  26.790  1.00  0.00     0.010 A 
ATOM     28  C   UNL     1     -11.686 -43.893  28.048  1.00  0.00    -0.042 A 
ATOM     29  C   UNL     1     -13.106 -46.207  27.312  1.00  0.00     0.001 A 
ATOM     30  C   UNL     1     -11.338 -45.152  28.565  1.00  0.00     0.004 A 
ATOM     31  C   UNL     1     -12.043 -46.298  28.202  1.00  0.00     0.000 A 
ATOM     32  C   UNL     1     -10.864 -42.701  28.462  1.00  0.00     0.045 C 
ENDBRANCH  25  26
ENDBRANCH   4  25
TORSDOF 7
ENDMDL
MODEL 4
REMARK VINA RESULT:   -10.303      3.657     10.176
REMARK INTER + INTRA:         -14.112
REMARK INTER:                 -13.790
REMARK INTRA:                  -0.323
REMARK UNBOUND:                 0.106
REMARK SMILES COc1ccc2c(c1)CCC(Cc1cc[n+](Cc3ccccc3C)cc1C(C)=O)=C2O
REMARK SMILES IDX 13 1 14 2 15 3 16 4 25 5 26 6 12 7 11 8 30 9 6 10 10 11 5 12
REMARK SMILES IDX 7 13 9 14 4 15 8 16 3 17 31 18 2 20 1 21 27 22 28 23 29 24
REMARK SMILES IDX 17 25 18 26 19 27 23 28 20 29 22 30 21 31 24 32
REMARK H PARENT 31 19
ROOT
ATOM      1  C   UNL     1     -17.485 -42.399  24.071  1.00  0.00    -0.021 A 
ATOM      2  C   UNL     1     -18.166 -43.125  25.061  1.00  0.00     0.075 A 
ATOM      3  C   UNL     1     -19.558 -43.168  25.084  1.00  0.00     0.308 A 
ATOM      4  N   UNL     1     -20.278 -42.508  24.151  1.00  0.00    -0.200 N 
ATOM      5  C   UNL     1     -19.658 -41.782  23.195  1.00  0.00     0.320 A 
ATOM      6  C   UNL     1     -18.263 -41.688  23.147  1.00  0.00     0.085 A 
ENDROOT
BRANCH   1   7
ATOM      7  C   UNL     1     -15.974 -42.523  24.000  1.00  0.00     0.071 C 
BRANCH   7   8
ATOM      8  C   UNL     1     -15.376 -43.147  25.240  1.00  0.00    -0.023 C 
ATOM      9  C   UNL     1     -14.725 -44.326  25.220  1.00  0.00     0.122 C 
ATOM     10  C   UNL     1     -14.075 -44.863  26.436  1.00  0.00     0.020 A 
ATOM     11  C   UNL     1     -15.463 -42.355  26.526  1.00  0.00     0.040 C 
ATOM     12  C   UNL     1     -13.089 -45.858  26.388  1.00  0.00     0.016 A 
ATOM     13  C   UNL     1     -14.437 -44.339  27.689  1.00  0.00    -0.033 A 
ATOM     14  C   UNL     1     -15.473 -43.249  27.773  1.00  0.00     0.041 C 
ATOM     15  C   UNL     1     -12.508 -46.356  27.563  1.00  0.00     0.047 A 
ATOM     16  C   UNL     1     -13.866 -44.856  28.862  1.00  0.00     0.050 A 
ATOM     17  C   UNL     1     -12.901 -45.863  28.805  1.00  0.00     0.119 A 
BRANCH   9  18
ATOM     18  O   UNL     1     -14.656 -45.067  24.063  1.00  0.00    -0.507 OA
ATOM     19  H   UNL     1     -15.561 -45.298  23.788  1.00  0.00     0.293 HD
ENDBRANCH   9  18
BRANCH  17  20
ATOM     20  O   UNL     1     -12.425 -46.265  30.020  1.00  0.00    -0.497 OA
ATOM     21  C   UNL     1     -13.206 -45.933  31.162  1.00  0.00     0.278 C 
ENDBRANCH  17  20
ENDBRANCH   7   8
ENDBRANCH   1   7
BRANCH   6  22
ATOM     22  C   UNL     1     -17.762 -40.826  22.056  1.00  0.00     0.166 C 
ATOM     23  C   UNL     1     -18.730 -40.024  21.230  1.00  0.00     0.094 C 
ATOM     24  O   UNL     1     -16.563 -40.896  21.792  1.00  0.00    -0.294 OA
ENDBRANCH   6  22
BRANCH   4  25
ATOM     25  C   UNL     1     -21.763 -42.604  24.161  1.00  0.00     0.393 C 
BRANCH  25  26
ATOM     26  C   UNL     1     -22.373 -41.476  24.959  1.00  0.00     0.020 A 
ATOM     27  C   UNL     1     -22.252 -41.498  26.364  1.00  0.00     0.010 A 
ATOM     28  C   UNL     1     -23.054 -40.399  24.348  1.00  0.00    -0.042 A 
ATOM     29  C   UNL     1     -22.811 -40.492  27.149  1.00  0.00     0.001 A 
ATOM     30  C   UNL     1     -23.613 -39.396  25.158  1.00  0.00     0.004 A 
ATOM     31  C   UNL     1     -23.495 -39.443  26.546  1.00  0.00     0.000 A 
ATOM     32  C   UNL     1     -23.196 -40.269  22.855  1.00  0.00     0.045 C 
ENDBRANCH  25  26
ENDBRANCH   4  25
TORSDOF 7
ENDMDL
MODEL 5
REMARK VINA RESULT:   -10.207      2.088      3.377
REMARK INTER + INTRA:         -13.979
REMARK INTER:                 -14.707
REMARK INTRA:                   0.727
REMARK UNBOUND:                 0.106
REMARK SMILES COc1ccc2c(c1)CCC(Cc1cc[n+](Cc3ccccc3C)cc1C(C)=O)=C2O
REMARK SMILES IDX 13 1 14 2 15 3 16 4 25 5 26 6 12 7 11 8 30 9 6 10 10 11 5 12
REMARK SMILES IDX 7 13 9 14 4 15 8 16 3 17 31 18 2 20 1 21 27 22 28 23 29 24
REMARK SMILES IDX 17 25 18 26 19 27 23 28 20 29 22 30 21 31 24 32
REMARK H PARENT 31 19
ROOT
ATOM      1  C   UNL     1     -14.912 -43.917  29.041  1.00  0.00    -0.021 A 
ATOM      2  C   UNL     1     -14.458 -44.332  27.779  1.00  0.00     0.075 A 
ATOM      3  C   UNL     1     -13.286 -45.073  27.650  1.00  0.00     0.308 A 
ATOM      4  N   UNL     1     -12.562 -45.405  28.742  1.00  0.00    -0.200 N 
ATOM      5  C   UNL     1     -12.957 -45.005  29.972  1.00  0.00     0.320 A 
ATOM      6  C   UNL     1     -14.113 -44.238  30.148  1.00  0.00     0.085 A 
ENDROOT
BRANCH   1   7
ATOM      7  C   UNL     1     -16.275 -43.258  29.134  1.00  0.00     0.071 C 
BRANCH   7   8
ATOM      8  C   UNL     1     -16.831 -42.865  27.784  1.00  0.00    -0.023 C 
ATOM      9  C   UNL     1     -18.150 -42.714  27.556  1.00  0.00     0.122 C 
ATOM     10  C   UNL     1     -18.652 -42.242  26.246  1.00  0.00     0.020 A 
ATOM     11  C   UNL     1     -15.836 -42.562  26.685  1.00  0.00     0.040 C 
ATOM     12  C   UNL     1     -19.939 -41.714  26.077  1.00  0.00     0.016 A 
ATOM     13  C   UNL     1     -17.799 -42.297  25.130  1.00  0.00    -0.033 A 
ATOM     14  C   UNL     1     -16.400 -42.832  25.285  1.00  0.00     0.041 C 
ATOM     15  C   UNL     1     -20.387 -41.293  24.817  1.00  0.00     0.047 A 
ATOM     16  C   UNL     1     -18.261 -41.892  23.869  1.00  0.00     0.050 A 
ATOM     17  C   UNL     1     -19.553 -41.389  23.706  1.00  0.00     0.119 A 
BRANCH   9  18
ATOM     18  O   UNL     1     -19.068 -43.007  28.538  1.00  0.00    -0.507 OA
ATOM     19  H   UNL     1     -19.690 -43.671  28.193  1.00  0.00     0.293 HD
ENDBRANCH   9  18
BRANCH  17  20
ATOM     20  O   UNL     1     -19.866 -41.026  22.427  1.00  0.00    -0.497 OA
ATOM     21  C   UNL     1     -18.859 -40.352  21.682  1.00  0.00     0.278 C 
ENDBRANCH  17  20
ENDBRANCH   7   8
ENDBRANCH   1   7
BRANCH   6  22
ATOM     22  C   UNL     1     -14.371 -43.866  31.555  1.00  0.00     0.166 C 
ATOM     23  C   UNL     1     -14.169 -44.879  32.648  1.00  0.00     0.094 C 
ATOM     24  O   UNL     1     -14.862 -42.757  31.760  1.00  0.00    -0.294 OA
ENDBRANCH   6  22
BRANCH   4  25
ATOM     25  C   UNL     1     -11.338 -46.237  28.592  1.00  0.00     0.393 C 
BRANCH  25  26
ATOM     26  C   UNL     1     -10.238 -45.752  29.507  1.00  0.00     0.020 A 
ATOM     27  C   UNL     1      -9.830 -46.580  30.573  1.00  0.00     0.010 A 
ATOM     28  C   UNL     1      -9.601 -44.503  29.328  1.00  0.00    -0.042 A 
ATOM     29  C   UNL     1      -8.832 -46.173  31.456  1.00  0.00     0.001 A 
ATOM     30  C   UNL     1      -8.600 -44.111  30.231  1.00  0.00     0.004 A 
ATOM     31  C   UNL     1      -8.220 -44.937  31.287  1.00  0.00     0.000 A 
ATOM     32  C   UNL     1      -9.942 -43.572  28.194  1.00  0.00     0.045 C 
ENDBRANCH  25  26
ENDBRANCH   4  25
TORSDOF 7
ENDMDL
MODEL 6
REMARK VINA RESULT:   -10.112      4.204     11.333
REMARK INTER + INTRA:         -13.848
REMARK INTER:                 -13.619
REMARK INTRA:                  -0.229
REMARK UNBOUND:                 0.106
REMARK SMILES COc1ccc2c(c1)CCC(Cc1cc[n+](Cc3ccccc3C)cc1C(C)=O)=C2O
REMARK SMILES IDX 13 1 14 2 15 3 16 4 25 5 26 6 12 7 11 8 30 9 6 10 10 11 5 12
REMARK SMILES IDX 7 13 9 14 4 15 8 16 3 17 31 18 2 20 1 21 27 22 28 23 29 24
REMARK SMILES IDX 17 25 18 26 19 27 23 28 20 29 22 30 21 31 24 32
REMARK H PARENT 31 19
ROOT
ATOM      1  C   UNL     1     -21.295 -41.349  23.940  1.00  0.00    -0.021 A 
ATOM      2  C   UNL     1     -21.785 -41.951  25.110  1.00  0.00     0.075 A 
ATOM      3  C   UNL     1     -22.939 -41.474  25.729  1.00  0.00     0.308 A 
ATOM      4  N   UNL     1     -23.608 -40.420  25.211  1.00  0.00    -0.200 N 
ATOM      5  C   UNL     1     -23.155 -39.803  24.098  1.00  0.00     0.320 A 
ATOM      6  C   UNL     1     -21.987 -40.229  23.457  1.00  0.00     0.085 A 
ENDROOT
BRANCH   1   7
ATOM      7  C   UNL     1     -20.134 -42.011  23.224  1.00  0.00     0.071 C 
BRANCH   7   8
ATOM      8  C   UNL     1     -18.928 -42.206  24.114  1.00  0.00    -0.023 C 
ATOM      9  C   UNL     1     -17.781 -42.760  23.676  1.00  0.00     0.122 C 
ATOM     10  C   UNL     1     -16.591 -42.853  24.551  1.00  0.00     0.020 A 
ATOM     11  C   UNL     1     -19.018 -41.677  25.529  1.00  0.00     0.040 C 
ATOM     12  C   UNL     1     -15.299 -43.058  24.049  1.00  0.00     0.016 A 
ATOM     13  C   UNL     1     -16.754 -42.702  25.939  1.00  0.00    -0.033 A 
ATOM     14  C   UNL     1     -18.126 -42.451  26.508  1.00  0.00     0.041 C 
ATOM     15  C   UNL     1     -14.198 -43.159  24.910  1.00  0.00     0.047 A 
ATOM     16  C   UNL     1     -15.650 -42.824  26.796  1.00  0.00     0.050 A 
ATOM     17  C   UNL     1     -14.370 -43.051  26.287  1.00  0.00     0.119 A 
BRANCH   9  18
ATOM     18  O   UNL     1     -17.692 -43.264  22.399  1.00  0.00    -0.507 OA
ATOM     19  H   UNL     1     -17.995 -44.189  22.409  1.00  0.00     0.293 HD
ENDBRANCH   9  18
BRANCH  17  20
ATOM     20  O   UNL     1     -13.389 -43.140  27.234  1.00  0.00    -0.497 OA
ATOM     21  C   UNL     1     -13.151 -44.424  27.798  1.00  0.00     0.278 C 
ENDBRANCH  17  20
ENDBRANCH   7   8
ENDBRANCH   1   7
BRANCH   6  22
ATOM     22  C   UNL     1     -21.626 -39.417  22.276  1.00  0.00     0.166 C 
ATOM     23  C   UNL     1     -20.191 -39.039  22.034  1.00  0.00     0.094 C 
ATOM     24  O   UNL     1     -22.552 -38.979  21.594  1.00  0.00    -0.294 OA
ENDBRANCH   6  22
BRANCH   4  25
ATOM     25  C   UNL     1     -24.865 -39.954  25.857  1.00  0.00     0.393 C 
BRANCH  25  26
ATOM     26  C   UNL     1     -24.572 -38.978  26.971  1.00  0.00     0.020 A 
ATOM     27  C   UNL     1     -24.279 -37.640  26.639  1.00  0.00     0.010 A 
ATOM     28  C   UNL     1     -24.587 -39.358  28.332  1.00  0.00    -0.042 A 
ATOM     29  C   UNL     1     -23.984 -36.702  27.627  1.00  0.00     0.001 A 
ATOM     30  C   UNL     1     -24.284 -38.399  29.313  1.00  0.00     0.004 A 
ATOM     31  C   UNL     1     -23.982 -37.083  28.963  1.00  0.00     0.000 A 
ATOM     32  C   UNL     1     -24.930 -40.753  28.783  1.00  0.00     0.045 C 
ENDBRANCH  25  26
ENDBRANCH   4  25
TORSDOF 7
ENDMDL
MODEL 7
REMARK VINA RESULT:   -10.051      5.851     13.215
REMARK INTER + INTRA:         -13.764
REMARK INTER:                 -12.613
REMARK INTRA:                  -1.151
REMARK UNBOUND:                 0.106
REMARK SMILES COc1ccc2c(c1)CCC(Cc1cc[n+](Cc3ccccc3C)cc1C(C)=O)=C2O
REMARK SMILES IDX 13 1 14 2 15 3 16 4 25 5 26 6 12 7 11 8 30 9 6 10 10 11 5 12
REMARK SMILES IDX 7 13 9 14 4 15 8 16 3 17 31 18 2 20 1 21 27 22 28 23 29 24
REMARK SMILES IDX 17 25 18 26 19 27 23 28 20 29 22 30 21 31 24 32
REMARK H PARENT 31 19
ROOT
ATOM      1  C   UNL     1     -21.105 -41.099  22.210  1.00  0.00    -0.021 A 
ATOM      2  C   UNL     1     -20.771 -39.751  22.418  1.00  0.00     0.075 A 
ATOM      3  C   UNL     1     -20.836 -38.831  21.373  1.00  0.00     0.308 A 
ATOM      4  N   UNL     1     -21.223 -39.223  20.139  1.00  0.00    -0.200 N 
ATOM      5  C   UNL     1     -21.531 -40.516  19.897  1.00  0.00     0.320 A 
ATOM      6  C   UNL     1     -21.455 -41.480  20.908  1.00  0.00     0.085 A 
ENDROOT
BRANCH   1   7
ATOM      7  C   UNL     1     -21.173 -42.016  23.417  1.00  0.00     0.071 C 
BRANCH   7   8
ATOM      8  C   UNL     1     -19.857 -42.118  24.153  1.00  0.00    -0.023 C 
ATOM      9  C   UNL     1     -18.726 -42.554  23.566  1.00  0.00     0.122 C 
ATOM     10  C   UNL     1     -17.436 -42.557  24.292  1.00  0.00     0.020 A 
ATOM     11  C   UNL     1     -19.823 -41.630  25.585  1.00  0.00     0.040 C 
ATOM     12  C   UNL     1     -16.201 -42.632  23.636  1.00  0.00     0.016 A 
ATOM     13  C   UNL     1     -17.445 -42.451  25.694  1.00  0.00    -0.033 A 
ATOM     14  C   UNL     1     -18.756 -42.340  26.427  1.00  0.00     0.041 C 
ATOM     15  C   UNL     1     -14.999 -42.650  24.358  1.00  0.00     0.047 A 
ATOM     16  C   UNL     1     -16.240 -42.489  26.412  1.00  0.00     0.050 A 
ATOM     17  C   UNL     1     -15.015 -42.587  25.749  1.00  0.00     0.119 A 
BRANCH   9  18
ATOM     18  O   UNL     1     -18.745 -43.021  22.272  1.00  0.00    -0.507 OA
ATOM     19  H   UNL     1     -18.607 -43.985  22.287  1.00  0.00     0.293 HD
ENDBRANCH   9  18
BRANCH  17  20
ATOM     20  O   UNL     1     -13.923 -42.606  26.571  1.00  0.00    -0.497 OA
ATOM     21  C   UNL     1     -13.440 -43.882  26.974  1.00  0.00     0.278 C 
ENDBRANCH  17  20
ENDBRANCH   7   8
ENDBRANCH   1   7
BRANCH   6  22
ATOM     22  C   UNL     1     -21.797 -42.845  20.454  1.00  0.00     0.166 C 
ATOM     23  C   UNL     1     -23.237 -43.268  20.369  1.00  0.00     0.094 C 
ATOM     24  O   UNL     1     -20.863 -43.625  20.275  1.00  0.00    -0.294 OA
ENDBRANCH   6  22
BRANCH   4  25
ATOM     25  C   UNL     1     -21.333 -38.218  19.047  1.00  0.00     0.393 C 
BRANCH  25  26
ATOM     26  C   UNL     1     -22.728 -37.642  18.979  1.00  0.00     0.020 A 
ATOM     27  C   UNL     1     -23.023 -36.495  19.743  1.00  0.00     0.010 A 
ATOM     28  C   UNL     1     -23.742 -38.210  18.175  1.00  0.00    -0.042 A 
ATOM     29  C   UNL     1     -24.299 -35.934  19.730  1.00  0.00     0.001 A 
ATOM     30  C   UNL     1     -25.021 -37.631  18.178  1.00  0.00     0.004 A 
ATOM     31  C   UNL     1     -25.299 -36.504  18.951  1.00  0.00     0.000 A 
ATOM     32  C   UNL     1     -23.506 -39.409  17.295  1.00  0.00     0.045 C 
ENDBRANCH  25  26
ENDBRANCH   4  25
TORSDOF 7
ENDMDL
MODEL 8
REMARK VINA RESULT:    -9.952      4.119     11.175
REMARK INTER + INTRA:         -13.627
REMARK INTER:                 -13.247
REMARK INTRA:                  -0.380
REMARK UNBOUND:                 0.106
REMARK SMILES COc1ccc2c(c1)CCC(Cc1cc[n+](Cc3ccccc3C)cc1C(C)=O)=C2O
REMARK SMILES IDX 13 1 14 2 15 3 16 4 25 5 26 6 12 7 11 8 30 9 6 10 10 11 5 12
REMARK SMILES IDX 7 13 9 14 4 15 8 16 3 17 31 18 2 20 1 21 27 22 28 23 29 24
REMARK SMILES IDX 17 25 18 26 19 27 23 28 20 29 22 30 21 31 24 32
REMARK H PARENT 31 19
ROOT
ATOM      1  C   UNL     1     -21.417 -41.763  23.999  1.00  0.00    -0.021 A 
ATOM      2  C   UNL     1     -21.908 -40.456  24.151  1.00  0.00     0.075 A 
ATOM      3  C   UNL     1     -23.013 -40.198  24.959  1.00  0.00     0.308 A 
ATOM      4  N   UNL     1     -23.634 -41.205  25.611  1.00  0.00    -0.200 N 
ATOM      5  C   UNL     1     -23.203 -42.479  25.472  1.00  0.00     0.320 A 
ATOM      6  C   UNL     1     -22.114 -42.790  24.652  1.00  0.00     0.085 A 
ENDROOT
BRANCH   1   7
ATOM      7  C   UNL     1     -20.117 -41.959  23.242  1.00  0.00     0.071 C 
BRANCH   7   8
ATOM      8  C   UNL     1     -18.933 -42.178  24.155  1.00  0.00    -0.023 C 
ATOM      9  C   UNL     1     -17.786 -42.745  23.737  1.00  0.00     0.122 C 
ATOM     10  C   UNL     1     -16.615 -42.862  24.635  1.00  0.00     0.020 A 
ATOM     11  C   UNL     1     -19.044 -41.659  25.573  1.00  0.00     0.040 C 
ATOM     12  C   UNL     1     -15.316 -43.082  24.157  1.00  0.00     0.016 A 
ATOM     13  C   UNL     1     -16.805 -42.720  26.021  1.00  0.00    -0.033 A 
ATOM     14  C   UNL     1     -18.184 -42.454  26.563  1.00  0.00     0.041 C 
ATOM     15  C   UNL     1     -14.234 -43.206  25.040  1.00  0.00     0.047 A 
ATOM     16  C   UNL     1     -15.720 -42.864  26.899  1.00  0.00     0.050 A 
ATOM     17  C   UNL     1     -14.433 -43.106  26.415  1.00  0.00     0.119 A 
BRANCH   9  18
ATOM     18  O   UNL     1     -17.677 -43.240  22.457  1.00  0.00    -0.507 OA
ATOM     19  H   UNL     1     -18.405 -43.868  22.305  1.00  0.00     0.293 HD
ENDBRANCH   9  18
BRANCH  17  20
ATOM     20  O   UNL     1     -13.473 -43.217  27.380  1.00  0.00    -0.497 OA
ATOM     21  C   UNL     1     -13.077 -44.533  27.749  1.00  0.00     0.278 C 
ENDBRANCH  17  20
ENDBRANCH   7   8
ENDBRANCH   1   7
BRANCH   6  22
ATOM     22  C   UNL     1     -21.805 -44.234  24.596  1.00  0.00     0.166 C 
ATOM     23  C   UNL     1     -21.007 -44.874  25.698  1.00  0.00     0.094 C 
ATOM     24  O   UNL     1     -22.122 -44.835  23.570  1.00  0.00    -0.294 OA
ENDBRANCH   6  22
BRANCH   4  25
ATOM     25  C   UNL     1     -24.784 -40.907  26.507  1.00  0.00     0.393 C 
BRANCH  25  26
ATOM     26  C   UNL     1     -24.583 -39.594  27.226  1.00  0.00     0.020 A 
ATOM     27  C   UNL     1     -24.449 -38.417  26.461  1.00  0.00     0.010 A 
ATOM     28  C   UNL     1     -24.532 -39.503  28.636  1.00  0.00    -0.042 A 
ATOM     29  C   UNL     1     -24.244 -37.182  27.074  1.00  0.00     0.001 A 
ATOM     30  C   UNL     1     -24.323 -38.250  29.233  1.00  0.00     0.004 A 
ATOM     31  C   UNL     1     -24.177 -37.100  28.459  1.00  0.00     0.000 A 
ATOM     32  C   UNL     1     -24.708 -40.699  29.534  1.00  0.00     0.045 C 
ENDBRANCH  25  26
ENDBRANCH   4  25
TORSDOF 7
ENDMDL
MODEL 9
REMARK VINA RESULT:    -9.589      4.797     11.003
REMARK INTER + INTRA:         -13.127
REMARK INTER:                 -11.954
REMARK INTRA:                  -1.173
REMARK UNBOUND:                 0.106
REMARK SMILES COc1ccc2c(c1)CCC(Cc1cc[n+](Cc3ccccc3C)cc1C(C)=O)=C2O
REMARK SMILES IDX 13 1 14 2 15 3 16 4 25 5 26 6 12 7 11 8 30 9 6 10 10 11 5 12
REMARK SMILES IDX 7 13 9 14 4 15 8 16 3 17 31 18 2 20 1 21 27 22 28 23 29 24
REMARK SMILES IDX 17 25 18 26 19 27 23 28 20 29 22 30 21 31 24 32
REMARK H PARENT 31 19
ROOT
ATOM      1  C   UNL     1     -21.680 -42.821  24.437  1.00  0.00    -0.021 A 
ATOM      2  C   UNL     1     -22.018 -43.091  23.102  1.00  0.00     0.075 A 
ATOM      3  C   UNL     1     -22.907 -44.114  22.783  1.00  0.00     0.308 A 
ATOM      4  N   UNL     1     -23.462 -44.867  23.758  1.00  0.00    -0.200 N 
ATOM      5  C   UNL     1     -23.145 -44.650  25.054  1.00  0.00     0.320 A 
ATOM      6  C   UNL     1     -22.237 -43.651  25.420  1.00  0.00     0.085 A 
ENDROOT
BRANCH   1   7
ATOM      7  C   UNL     1     -20.838 -41.594  24.732  1.00  0.00     0.071 C 
BRANCH   7   8
ATOM      8  C   UNL     1     -19.455 -41.938  25.236  1.00  0.00    -0.023 C 
ATOM      9  C   UNL     1     -18.489 -42.428  24.436  1.00  0.00     0.122 C 
ATOM     10  C   UNL     1     -17.120 -42.668  24.945  1.00  0.00     0.020 A 
ATOM     11  C   UNL     1     -19.151 -41.636  26.688  1.00  0.00     0.040 C 
ATOM     12  C   UNL     1     -16.013 -42.806  24.097  1.00  0.00     0.016 A 
ATOM     13  C   UNL     1     -16.913 -42.734  26.334  1.00  0.00    -0.033 A 
ATOM     14  C   UNL     1     -18.078 -42.562  27.273  1.00  0.00     0.041 C 
ATOM     15  C   UNL     1     -14.734 -43.051  24.615  1.00  0.00     0.047 A 
ATOM     16  C   UNL     1     -15.633 -43.000  26.844  1.00  0.00     0.050 A 
ATOM     17  C   UNL     1     -14.540 -43.158  25.989  1.00  0.00     0.119 A 
BRANCH   9  18
ATOM     18  O   UNL     1     -18.756 -42.727  23.120  1.00  0.00    -0.507 OA
ATOM     19  H   UNL     1     -17.985 -43.186  22.743  1.00  0.00     0.293 HD
ENDBRANCH   9  18
BRANCH  17  20
ATOM     20  O   UNL     1     -13.354 -43.403  26.621  1.00  0.00    -0.497 OA
ATOM     21  C   UNL     1     -13.255 -44.614  27.362  1.00  0.00     0.278 C 
ENDBRANCH  17  20
ENDBRANCH   7   8
ENDBRANCH   1   7
BRANCH   6  22
ATOM     22  C   UNL     1     -21.987 -43.580  26.876  1.00  0.00     0.166 C 
ATOM     23  C   UNL     1     -21.218 -44.676  27.559  1.00  0.00     0.094 C 
ATOM     24  O   UNL     1     -22.533 -42.667  27.493  1.00  0.00    -0.294 OA
ENDBRANCH   6  22
BRANCH   4  25
ATOM     25  C   UNL     1     -24.447 -45.925  23.405  1.00  0.00     0.393 C 
BRANCH  25  26
ATOM     26  C   UNL     1     -23.814 -47.295  23.458  1.00  0.00     0.020 A 
ATOM     27  C   UNL     1     -22.969 -47.691  22.401  1.00  0.00     0.010 A 
ATOM     28  C   UNL     1     -24.034 -48.189  24.530  1.00  0.00    -0.042 A 
ATOM     29  C   UNL     1     -22.373 -48.951  22.392  1.00  0.00     0.001 A 
ATOM     30  C   UNL     1     -23.427 -49.455  24.501  1.00  0.00     0.004 A 
ATOM     31  C   UNL     1     -22.605 -49.834  23.440  1.00  0.00     0.000 A 
ATOM     32  C   UNL     1     -24.887 -47.837  25.720  1.00  0.00     0.045 C 
ENDBRANCH  25  26
ENDBRANCH   4  25
TORSDOF 7
ENDMDL
