MODEL 1
REMARK VINA RESULT:   -10.377      0.000      0.000
REMARK INTER + INTRA:         -13.575
REMARK INTER:                 -13.106
REMARK INTRA:                  -0.469
REMARK UNBOUND:                -0.469
REMARK SMILES C[NH+]1CCC(=CC=CC2=C(O)c3ccccc3C2)CC1
REMARK SMILES IDX 8 1 9 2 10 3 12 4 18 5 13 6 17 7 14 8 16 9 15 10 11 11 7 13
REMARK SMILES IDX 6 14 5 15 4 16 19 17 3 18 20 19 2 20 1 21
REMARK H PARENT 11 12 2 22
ROOT
ATOM      1  C   UNL     1     -14.244 -43.404  26.512  1.00  0.00     0.008 C 
ENDROOT
BRANCH   1   2
ATOM      2  C   UNL     1     -15.620 -42.983  26.402  1.00  0.00    -0.001 C 
ATOM      3  C   UNL     1     -16.491 -42.710  27.390  1.00  0.00     0.126 C 
ATOM      4  C   UNL     1     -17.771 -42.330  26.815  1.00  0.00     0.020 A 
ATOM      5  C   UNL     1     -16.279 -42.846  25.039  1.00  0.00     0.075 C 
ATOM      6  C   UNL     1     -18.956 -41.952  27.420  1.00  0.00     0.012 A 
ATOM      7  C   UNL     1     -17.663 -42.404  25.420  1.00  0.00    -0.033 A 
ATOM      8  C   UNL     1     -20.045 -41.643  26.603  1.00  0.00     0.001 A 
ATOM      9  C   UNL     1     -18.736 -42.100  24.598  1.00  0.00     0.005 A 
ATOM     10  C   UNL     1     -19.935 -41.716  25.203  1.00  0.00     0.000 A 
BRANCH   3  11
ATOM     11  O   UNL     1     -16.319 -42.761  28.737  1.00  0.00    -0.507 OA
ATOM     12  H   UNL     1     -16.653 -41.920  29.095  1.00  0.00     0.293 HD
ENDBRANCH   3  11
ENDBRANCH   1   2
BRANCH   1  13
ATOM     13  C   UNL     1     -13.780 -44.597  26.926  1.00  0.00     0.000 C 
BRANCH  13  14
ATOM     14  C   UNL     1     -13.761 -45.073  28.294  1.00  0.00    -0.000 C 
BRANCH  14  15
ATOM     15  C   UNL     1     -12.818 -45.837  28.879  1.00  0.00    -0.059 C 
ATOM     16  C   UNL     1     -11.581 -46.408  28.222  1.00  0.00     0.092 C 
ATOM     17  C   UNL     1     -12.931 -46.195  30.349  1.00  0.00     0.092 C 
ATOM     18  C   UNL     1     -10.317 -46.023  29.000  1.00  0.00     0.266 C 
ATOM     19  C   UNL     1     -11.662 -45.809  31.113  1.00  0.00     0.266 C 
ATOM     20  N   UNL     1     -10.448 -46.443  30.455  1.00  0.00    -0.337 N 
ATOM     21  C   UNL     1      -9.191 -46.169  31.229  1.00  0.00     0.332 C 
ATOM     22  H   UNL     1     -10.593 -47.461  30.467  1.00  0.00     0.347 HD
ENDBRANCH  14  15
ENDBRANCH  13  14
ENDBRANCH   1  13
TORSDOF 5
ENDMDL
MODEL 2
REMARK VINA RESULT:   -10.364      1.263      1.829
REMARK INTER + INTRA:         -13.559
REMARK INTER:                 -13.110
REMARK INTRA:                  -0.449
REMARK UNBOUND:                -0.469
REMARK SMILES C[NH+]1CCC(=CC=CC2=C(O)c3ccccc3C2)CC1
REMARK SMILES IDX 8 1 9 2 10 3 12 4 18 5 13 6 17 7 14 8 16 9 15 10 11 11 7 13
REMARK SMILES IDX 6 14 5 15 4 16 19 17 3 18 20 19 2 20 1 21
REMARK H PARENT 11 12 2 22
ROOT
ATOM      1  C   UNL     1     -14.085 -43.491  25.972  1.00  0.00     0.008 C 
ENDROOT
BRANCH   1   2
ATOM      2  C   UNL     1     -15.468 -43.081  25.937  1.00  0.00    -0.001 C 
ATOM      3  C   UNL     1     -16.241 -42.840  24.862  1.00  0.00     0.126 C 
ATOM      4  C   UNL     1     -17.568 -42.444  25.300  1.00  0.00     0.020 A 
ATOM      5  C   UNL     1     -16.228 -42.816  27.227  1.00  0.00     0.075 C 
ATOM      6  C   UNL     1     -18.697 -42.113  24.572  1.00  0.00     0.012 A 
ATOM      7  C   UNL     1     -17.580 -42.425  26.701  1.00  0.00    -0.033 A 
ATOM      8  C   UNL     1     -19.854 -41.760  25.272  1.00  0.00     0.001 A 
ATOM      9  C   UNL     1     -18.720 -42.078  27.407  1.00  0.00     0.005 A 
ATOM     10  C   UNL     1     -19.864 -41.743  26.678  1.00  0.00     0.000 A 
BRANCH   3  11
ATOM     11  O   UNL     1     -15.933 -42.909  23.540  1.00  0.00    -0.507 OA
ATOM     12  H   UNL     1     -16.302 -43.746  23.209  1.00  0.00     0.293 HD
ENDBRANCH   3  11
ENDBRANCH   1   2
BRANCH   1  13
ATOM     13  C   UNL     1     -13.411 -44.023  27.007  1.00  0.00     0.000 C 
BRANCH  13  14
ATOM     14  C   UNL     1     -13.381 -45.424  27.372  1.00  0.00    -0.000 C 
BRANCH  14  15
ATOM     15  C   UNL     1     -12.594 -46.011  28.295  1.00  0.00    -0.059 C 
ATOM     16  C   UNL     1     -11.199 -46.552  28.080  1.00  0.00     0.092 C 
ATOM     17  C   UNL     1     -13.082 -46.169  29.722  1.00  0.00     0.092 C 
ATOM     18  C   UNL     1     -10.213 -45.950  29.089  1.00  0.00     0.266 C 
ATOM     19  C   UNL     1     -12.089 -45.567  30.718  1.00  0.00     0.266 C 
ATOM     20  N   UNL     1     -10.711 -46.173  30.507  1.00  0.00    -0.337 N 
ATOM     21  C   UNL     1      -9.726 -45.681  31.528  1.00  0.00     0.332 C 
ATOM     22  H   UNL     1     -10.803 -47.189  30.642  1.00  0.00     0.347 HD
ENDBRANCH  14  15
ENDBRANCH  13  14
ENDBRANCH   1  13
TORSDOF 5
ENDMDL
MODEL 3
REMARK VINA RESULT:   -10.057      1.147      1.801
REMARK INTER + INTRA:         -13.172
REMARK INTER:                 -12.723
REMARK INTRA:                  -0.449
REMARK UNBOUND:                -0.469
REMARK SMILES C[NH+]1CCC(=CC=CC2=C(O)c3ccccc3C2)CC1
REMARK SMILES IDX 8 1 9 2 10 3 12 4 18 5 13 6 17 7 14 8 16 9 15 10 11 11 7 13
REMARK SMILES IDX 6 14 5 15 4 16 19 17 3 18 20 19 2 20 1 21
REMARK H PARENT 11 12 2 22
ROOT
ATOM      1  C   UNL     1     -13.393 -44.319  26.917  1.00  0.00     0.008 C 
ENDROOT
BRANCH   1   2
ATOM      2  C   UNL     1     -14.567 -43.799  26.258  1.00  0.00    -0.001 C 
ATOM      3  C   UNL     1     -15.670 -43.266  26.816  1.00  0.00     0.126 C 
ATOM      4  C   UNL     1     -16.603 -42.883  25.770  1.00  0.00     0.020 A 
ATOM      5  C   UNL     1     -14.694 -43.858  24.744  1.00  0.00     0.075 C 
ATOM      6  C   UNL     1     -17.850 -42.289  25.847  1.00  0.00     0.012 A 
ATOM      7  C   UNL     1     -16.040 -43.226  24.533  1.00  0.00    -0.033 A 
ATOM      8  C   UNL     1     -18.536 -42.037  24.656  1.00  0.00     0.001 A 
ATOM      9  C   UNL     1     -16.710 -42.981  23.345  1.00  0.00     0.005 A 
ATOM     10  C   UNL     1     -17.969 -42.381  23.415  1.00  0.00     0.000 A 
BRANCH   3  11
ATOM     11  O   UNL     1     -15.975 -43.080  28.127  1.00  0.00    -0.507 OA
ATOM     12  H   UNL     1     -16.599 -42.334  28.167  1.00  0.00     0.293 HD
ENDBRANCH   3  11
ENDBRANCH   1   2
BRANCH   1  13
ATOM     13  C   UNL     1     -13.256 -45.504  27.538  1.00  0.00     0.000 C 
BRANCH  13  14
ATOM     14  C   UNL     1     -12.003 -46.156  27.857  1.00  0.00    -0.000 C 
BRANCH  14  15
ATOM     15  C   UNL     1     -11.378 -46.185  29.050  1.00  0.00    -0.059 C 
ATOM     16  C   UNL     1      -9.906 -46.433  29.295  1.00  0.00     0.092 C 
ATOM     17  C   UNL     1     -12.161 -45.940  30.326  1.00  0.00     0.092 C 
ATOM     18  C   UNL     1      -9.290 -45.306  30.133  1.00  0.00     0.266 C 
ATOM     19  C   UNL     1     -11.534 -44.817  31.155  1.00  0.00     0.266 C 
ATOM     20  N   UNL     1     -10.071 -45.126  31.424  1.00  0.00    -0.337 N 
ATOM     21  C   UNL     1      -9.440 -44.096  32.317  1.00  0.00     0.332 C 
ATOM     22  H   UNL     1     -10.038 -46.021  31.929  1.00  0.00     0.347 HD
ENDBRANCH  14  15
ENDBRANCH  13  14
ENDBRANCH   1  13
TORSDOF 5
ENDMDL
MODEL 4
REMARK VINA RESULT:    -9.724      2.925      8.390
REMARK INTER + INTRA:         -12.751
REMARK INTER:                 -12.351
REMARK INTRA:                  -0.400
REMARK UNBOUND:                -0.469
REMARK SMILES C[NH+]1CCC(=CC=CC2=C(O)c3ccccc3C2)CC1
REMARK SMILES IDX 8 1 9 2 10 3 12 4 18 5 13 6 17 7 14 8 16 9 15 10 11 11 7 13
REMARK SMILES IDX 6 14 5 15 4 16 19 17 3 18 20 19 2 20 1 21
REMARK H PARENT 11 12 2 22
ROOT
ATOM      1  C   UNL     1     -14.553 -44.290  27.268  1.00  0.00     0.008 C 
ENDROOT
BRANCH   1   2
ATOM      2  C   UNL     1     -13.530 -44.808  28.144  1.00  0.00    -0.001 C 
ATOM      3  C   UNL     1     -13.518 -44.833  29.490  1.00  0.00     0.126 C 
ATOM      4  C   UNL     1     -12.281 -45.442  29.950  1.00  0.00     0.020 A 
ATOM      5  C   UNL     1     -12.242 -45.379  27.574  1.00  0.00     0.075 C 
ATOM      6  C   UNL     1     -11.823 -45.699  31.229  1.00  0.00     0.012 A 
ATOM      7  C   UNL     1     -11.511 -45.774  28.826  1.00  0.00    -0.033 A 
ATOM      8  C   UNL     1     -10.570 -46.300  31.374  1.00  0.00     0.001 A 
ATOM      9  C   UNL     1     -10.268 -46.370  28.956  1.00  0.00     0.005 A 
ATOM     10  C   UNL     1      -9.800 -46.633  30.245  1.00  0.00     0.000 A 
BRANCH   3  11
ATOM     11  O   UNL     1     -14.444 -44.380  30.374  1.00  0.00    -0.507 OA
ATOM     12  H   UNL     1     -14.782 -43.539  30.020  1.00  0.00     0.293 HD
ENDBRANCH   3  11
ENDBRANCH   1   2
BRANCH   1  13
ATOM     13  C   UNL     1     -14.413 -43.378  26.290  1.00  0.00     0.000 C 
BRANCH  13  14
ATOM     14  C   UNL     1     -15.428 -42.445  25.846  1.00  0.00    -0.000 C 
BRANCH  14  15
ATOM     15  C   UNL     1     -16.519 -42.717  25.104  1.00  0.00    -0.059 C 
ATOM     16  C   UNL     1     -17.953 -42.751  25.585  1.00  0.00     0.092 C 
ATOM     17  C   UNL     1     -16.379 -43.019  23.625  1.00  0.00     0.092 C 
ATOM     18  C   UNL     1     -18.841 -41.837  24.732  1.00  0.00     0.266 C 
ATOM     19  C   UNL     1     -17.273 -42.103  22.785  1.00  0.00     0.266 C 
ATOM     20  N   UNL     1     -18.712 -42.203  23.262  1.00  0.00    -0.337 N 
ATOM     21  C   UNL     1     -19.640 -41.394  22.403  1.00  0.00     0.332 C 
ATOM     22  H   UNL     1     -18.996 -43.187  23.166  1.00  0.00     0.347 HD
ENDBRANCH  14  15
ENDBRANCH  13  14
ENDBRANCH   1  13
TORSDOF 5
ENDMDL
MODEL 5
REMARK VINA RESULT:    -9.500      1.839      2.606
REMARK INTER + INTRA:         -12.468
REMARK INTER:                 -12.117
REMARK INTRA:                  -0.351
REMARK UNBOUND:                -0.469
REMARK SMILES C[NH+]1CCC(=CC=CC2=C(O)c3ccccc3C2)CC1
REMARK SMILES IDX 8 1 9 2 10 3 12 4 18 5 13 6 17 7 14 8 16 9 15 10 11 11 7 13
REMARK SMILES IDX 6 14 5 15 4 16 19 17 3 18 20 19 2 20 1 21
REMARK H PARENT 11 12 2 22
ROOT
ATOM      1  C   UNL     1     -15.340 -43.457  24.826  1.00  0.00     0.008 C 
ENDROOT
BRANCH   1   2
ATOM      2  C   UNL     1     -16.663 -42.888  24.922  1.00  0.00    -0.001 C 
ATOM      3  C   UNL     1     -17.463 -42.466  23.925  1.00  0.00     0.126 C 
ATOM      4  C   UNL     1     -18.704 -41.958  24.485  1.00  0.00     0.020 A 
ATOM      5  C   UNL     1     -17.306 -42.650  26.278  1.00  0.00     0.075 C 
ATOM      6  C   UNL     1     -19.826 -41.435  23.867  1.00  0.00     0.012 A 
ATOM      7  C   UNL     1     -18.629 -42.060  25.881  1.00  0.00    -0.033 A 
ATOM      8  C   UNL     1     -20.886 -41.012  24.672  1.00  0.00     0.001 A 
ATOM      9  C   UNL     1     -19.674 -41.645  26.690  1.00  0.00     0.005 A 
ATOM     10  C   UNL     1     -20.810 -41.118  26.073  1.00  0.00     0.000 A 
BRANCH   3  11
ATOM     11  O   UNL     1     -17.246 -42.454  22.584  1.00  0.00    -0.507 OA
ATOM     12  H   UNL     1     -16.330 -42.751  22.445  1.00  0.00     0.293 HD
ENDBRANCH   3  11
ENDBRANCH   1   2
BRANCH   1  13
ATOM     13  C   UNL     1     -14.322 -43.319  25.694  1.00  0.00     0.000 C 
BRANCH  13  14
ATOM     14  C   UNL     1     -14.145 -44.066  26.923  1.00  0.00    -0.000 C 
BRANCH  14  15
ATOM     15  C   UNL     1     -12.988 -44.522  27.441  1.00  0.00    -0.059 C 
ATOM     16  C   UNL     1     -11.818 -43.690  27.914  1.00  0.00     0.092 C 
ATOM     17  C   UNL     1     -12.767 -46.013  27.613  1.00  0.00     0.092 C 
ATOM     18  C   UNL     1     -11.435 -44.045  29.355  1.00  0.00     0.266 C 
ATOM     19  C   UNL     1     -12.383 -46.355  29.054  1.00  0.00     0.266 C 
ATOM     20  N   UNL     1     -11.172 -45.537  29.475  1.00  0.00    -0.337 N 
ATOM     21  C   UNL     1     -10.701 -45.911  30.851  1.00  0.00     0.332 C 
ATOM     22  H   UNL     1     -10.410 -45.767  28.824  1.00  0.00     0.347 HD
ENDBRANCH  14  15
ENDBRANCH  13  14
ENDBRANCH   1  13
TORSDOF 5
ENDMDL
MODEL 6
REMARK VINA RESULT:    -9.103      2.024      2.809
REMARK INTER + INTRA:         -11.967
REMARK INTER:                 -11.583
REMARK INTRA:                  -0.384
REMARK UNBOUND:                -0.469
REMARK SMILES C[NH+]1CCC(=CC=CC2=C(O)c3ccccc3C2)CC1
REMARK SMILES IDX 8 1 9 2 10 3 12 4 18 5 13 6 17 7 14 8 16 9 15 10 11 11 7 13
REMARK SMILES IDX 6 14 5 15 4 16 19 17 3 18 20 19 2 20 1 21
REMARK H PARENT 11 12 2 22
ROOT
ATOM      1  C   UNL     1     -14.711 -43.460  24.981  1.00  0.00     0.008 C 
ENDROOT
BRANCH   1   2
ATOM      2  C   UNL     1     -16.060 -43.019  25.245  1.00  0.00    -0.001 C 
ATOM      3  C   UNL     1     -17.027 -42.717  24.359  1.00  0.00     0.126 C 
ATOM      4  C   UNL     1     -18.226 -42.310  25.073  1.00  0.00     0.020 A 
ATOM      5  C   UNL     1     -16.533 -42.789  26.671  1.00  0.00     0.075 C 
ATOM      6  C   UNL     1     -19.468 -41.924  24.604  1.00  0.00     0.012 A 
ATOM      7  C   UNL     1     -17.951 -42.347  26.447  1.00  0.00    -0.033 A 
ATOM      8  C   UNL     1     -20.447 -41.574  25.537  1.00  0.00     0.001 A 
ATOM      9  C   UNL     1     -18.913 -42.002  27.382  1.00  0.00     0.005 A 
ATOM     10  C   UNL     1     -20.170 -41.614  26.915  1.00  0.00     0.000 A 
BRANCH   3  11
ATOM     11  O   UNL     1     -16.997 -42.740  23.001  1.00  0.00    -0.507 OA
ATOM     12  H   UNL     1     -16.729 -43.638  22.740  1.00  0.00     0.293 HD
ENDBRANCH   3  11
ENDBRANCH   1   2
BRANCH   1  13
ATOM     13  C   UNL     1     -14.145 -44.627  25.333  1.00  0.00     0.000 C 
BRANCH  13  14
ATOM     14  C   UNL     1     -13.848 -45.055  26.685  1.00  0.00    -0.000 C 
BRANCH  14  15
ATOM     15  C   UNL     1     -13.018 -44.462  27.565  1.00  0.00    -0.059 C 
ATOM     16  C   UNL     1     -12.354 -45.109  28.760  1.00  0.00     0.092 C 
ATOM     17  C   UNL     1     -12.652 -42.999  27.401  1.00  0.00     0.092 C 
ATOM     18  C   UNL     1     -10.835 -44.904  28.725  1.00  0.00     0.266 C 
ATOM     19  C   UNL     1     -11.134 -42.807  27.370  1.00  0.00     0.266 C 
ATOM     20  N   UNL     1     -10.509 -43.424  28.611  1.00  0.00    -0.337 N 
ATOM     21  C   UNL     1      -9.029 -43.174  28.670  1.00  0.00     0.332 C 
ATOM     22  H   UNL     1     -10.926 -42.955  29.426  1.00  0.00     0.347 HD
ENDBRANCH  14  15
ENDBRANCH  13  14
ENDBRANCH   1  13
TORSDOF 5
ENDMDL
MODEL 7
REMARK VINA RESULT:    -9.040      1.715      2.733
REMARK INTER + INTRA:         -11.887
REMARK INTER:                 -11.500
REMARK INTRA:                  -0.387
REMARK UNBOUND:                -0.469
REMARK SMILES C[NH+]1CCC(=CC=CC2=C(O)c3ccccc3C2)CC1
REMARK SMILES IDX 8 1 9 2 10 3 12 4 18 5 13 6 17 7 14 8 16 9 15 10 11 11 7 13
REMARK SMILES IDX 6 14 5 15 4 16 19 17 3 18 20 19 2 20 1 21
REMARK H PARENT 11 12 2 22
ROOT
ATOM      1  C   UNL     1     -16.071 -43.080  23.992  1.00  0.00     0.008 C 
ENDROOT
BRANCH   1   2
ATOM      2  C   UNL     1     -17.297 -42.574  24.561  1.00  0.00    -0.001 C 
ATOM      3  C   UNL     1     -17.616 -42.429  25.861  1.00  0.00     0.126 C 
ATOM      4  C   UNL     1     -18.961 -41.889  25.970  1.00  0.00     0.020 A 
ATOM      5  C   UNL     1     -18.455 -42.170  23.665  1.00  0.00     0.075 C 
ATOM      6  C   UNL     1     -19.713 -41.558  27.082  1.00  0.00     0.012 A 
ATOM      7  C   UNL     1     -19.475 -41.728  24.675  1.00  0.00    -0.033 A 
ATOM      8  C   UNL     1     -21.001 -41.056  26.883  1.00  0.00     0.001 A 
ATOM      9  C   UNL     1     -20.750 -41.230  24.464  1.00  0.00     0.005 A 
ATOM     10  C   UNL     1     -21.514 -40.893  25.584  1.00  0.00     0.000 A 
BRANCH   3  11
ATOM     11  O   UNL     1     -16.888 -42.720  26.971  1.00  0.00    -0.507 OA
ATOM     12  H   UNL     1     -16.827 -41.899  27.489  1.00  0.00     0.293 HD
ENDBRANCH   3  11
ENDBRANCH   1   2
BRANCH   1  13
ATOM     13  C   UNL     1     -14.854 -43.117  24.563  1.00  0.00     0.000 C 
BRANCH  13  14
ATOM     14  C   UNL     1     -14.317 -44.207  25.352  1.00  0.00    -0.000 C 
BRANCH  14  15
ATOM     15  C   UNL     1     -13.715 -44.125  26.554  1.00  0.00    -0.059 C 
ATOM     16  C   UNL     1     -13.597 -45.227  27.583  1.00  0.00     0.092 C 
ATOM     17  C   UNL     1     -13.051 -42.832  26.987  1.00  0.00     0.092 C 
ATOM     18  C   UNL     1     -12.136 -45.446  27.991  1.00  0.00     0.266 C 
ATOM     19  C   UNL     1     -11.594 -43.065  27.394  1.00  0.00     0.266 C 
ATOM     20  N   UNL     1     -11.522 -44.140  28.466  1.00  0.00    -0.337 N 
ATOM     21  C   UNL     1     -10.118 -44.333  28.965  1.00  0.00     0.332 C 
ATOM     22  H   UNL     1     -12.082 -43.811  29.264  1.00  0.00     0.347 HD
ENDBRANCH  14  15
ENDBRANCH  13  14
ENDBRANCH   1  13
TORSDOF 5
ENDMDL
MODEL 8
REMARK VINA RESULT:    -9.023      3.529      8.571
REMARK INTER + INTRA:         -11.866
REMARK INTER:                 -11.541
REMARK INTRA:                  -0.325
REMARK UNBOUND:                -0.469
REMARK SMILES C[NH+]1CCC(=CC=CC2=C(O)c3ccccc3C2)CC1
REMARK SMILES IDX 8 1 9 2 10 3 12 4 18 5 13 6 17 7 14 8 16 9 15 10 11 11 7 13
REMARK SMILES IDX 6 14 5 15 4 16 19 17 3 18 20 19 2 20 1 21
REMARK H PARENT 11 12 2 22
ROOT
ATOM      1  C   UNL     1     -15.950 -42.872  26.748  1.00  0.00     0.008 C 
ENDROOT
BRANCH   1   2
ATOM      2  C   UNL     1     -14.984 -43.708  27.420  1.00  0.00    -0.001 C 
ATOM      3  C   UNL     1     -14.910 -44.012  28.729  1.00  0.00     0.126 C 
ATOM      4  C   UNL     1     -13.769 -44.882  28.959  1.00  0.00     0.020 A 
ATOM      5  C   UNL     1     -13.836 -44.336  26.647  1.00  0.00     0.075 C 
ATOM      6  C   UNL     1     -13.298 -45.463  30.122  1.00  0.00     0.012 A 
ATOM      7  C   UNL     1     -13.120 -45.086  27.733  1.00  0.00    -0.033 A 
ATOM      8  C   UNL     1     -12.155 -46.263  30.044  1.00  0.00     0.001 A 
ATOM      9  C   UNL     1     -11.987 -45.878  27.643  1.00  0.00     0.005 A 
ATOM     10  C   UNL     1     -11.506 -46.469  28.814  1.00  0.00     0.000 A 
BRANCH   3  11
ATOM     11  O   UNL     1     -15.706 -43.616  29.757  1.00  0.00    -0.507 OA
ATOM     12  H   UNL     1     -15.476 -42.690  29.950  1.00  0.00     0.293 HD
ENDBRANCH   3  11
ENDBRANCH   1   2
BRANCH   1  13
ATOM     13  C   UNL     1     -16.414 -42.997  25.492  1.00  0.00     0.000 C 
BRANCH  13  14
ATOM     14  C   UNL     1     -17.642 -42.426  24.979  1.00  0.00    -0.000 C 
BRANCH  14  15
ATOM     15  C   UNL     1     -18.006 -42.300  23.688  1.00  0.00    -0.059 C 
ATOM     16  C   UNL     1     -19.355 -42.637  23.092  1.00  0.00     0.092 C 
ATOM     17  C   UNL     1     -17.023 -41.758  22.669  1.00  0.00     0.092 C 
ATOM     18  C   UNL     1     -19.932 -41.442  22.324  1.00  0.00     0.266 C 
ATOM     19  C   UNL     1     -17.612 -40.568  21.907  1.00  0.00     0.266 C 
ATOM     20  N   UNL     1     -18.939 -40.960  21.279  1.00  0.00    -0.337 N 
ATOM     21  C   UNL     1     -19.507 -39.851  20.441  1.00  0.00     0.332 C 
ATOM     22  H   UNL     1     -18.754 -41.750  20.647  1.00  0.00     0.347 HD
ENDBRANCH  14  15
ENDBRANCH  13  14
ENDBRANCH   1  13
TORSDOF 5
ENDMDL
MODEL 9
REMARK VINA RESULT:    -8.762      5.339     10.453
REMARK INTER + INTRA:         -11.536
REMARK INTER:                 -11.098
REMARK INTRA:                  -0.438
REMARK UNBOUND:                -0.469
REMARK SMILES C[NH+]1CCC(=CC=CC2=C(O)c3ccccc3C2)CC1
REMARK SMILES IDX 8 1 9 2 10 3 12 4 18 5 13 6 17 7 14 8 16 9 15 10 11 11 7 13
REMARK SMILES IDX 6 14 5 15 4 16 19 17 3 18 20 19 2 20 1 21
REMARK H PARENT 11 12 2 22
ROOT
ATOM      1  C   UNL     1     -20.137 -42.149  24.573  1.00  0.00     0.008 C 
ENDROOT
BRANCH   1   2
ATOM      2  C   UNL     1     -18.733 -42.411  24.779  1.00  0.00    -0.001 C 
ATOM      3  C   UNL     1     -17.808 -42.766  23.869  1.00  0.00     0.126 C 
ATOM      4  C   UNL     1     -16.523 -42.932  24.527  1.00  0.00     0.020 A 
ATOM      5  C   UNL     1     -18.133 -42.349  26.174  1.00  0.00     0.075 C 
ATOM      6  C   UNL     1     -15.284 -43.274  24.014  1.00  0.00     0.012 A 
ATOM      7  C   UNL     1     -16.696 -42.688  25.896  1.00  0.00    -0.033 A 
ATOM      8  C   UNL     1     -14.206 -43.367  24.898  1.00  0.00     0.001 A 
ATOM      9  C   UNL     1     -15.636 -42.776  26.783  1.00  0.00     0.005 A 
ATOM     10  C   UNL     1     -14.382 -43.119  26.271  1.00  0.00     0.000 A 
BRANCH   3  11
ATOM     11  O   UNL     1     -17.941 -42.978  22.533  1.00  0.00    -0.507 OA
ATOM     12  H   UNL     1     -17.856 -42.110  22.102  1.00  0.00     0.293 HD
ENDBRANCH   3  11
ENDBRANCH   1   2
BRANCH   1  13
ATOM     13  C   UNL     1     -20.728 -40.962  24.348  1.00  0.00     0.000 C 
BRANCH  13  14
ATOM     14  C   UNL     1     -21.544 -40.622  23.201  1.00  0.00    -0.000 C 
BRANCH  14  15
ATOM     15  C   UNL     1     -21.473 -39.506  22.451  1.00  0.00    -0.059 C 
ATOM     16  C   UNL     1     -20.240 -38.946  21.777  1.00  0.00     0.092 C 
ATOM     17  C   UNL     1     -22.718 -38.678  22.197  1.00  0.00     0.092 C 
ATOM     18  C   UNL     1     -20.481 -38.727  20.280  1.00  0.00     0.266 C 
ATOM     19  C   UNL     1     -22.946 -38.463  20.699  1.00  0.00     0.266 C 
ATOM     20  N   UNL     1     -21.706 -37.852  20.068  1.00  0.00    -0.337 N 
ATOM     21  C   UNL     1     -21.920 -37.535  18.616  1.00  0.00     0.332 C 
ATOM     22  H   UNL     1     -21.530 -36.959  20.548  1.00  0.00     0.347 HD
ENDBRANCH  14  15
ENDBRANCH  13  14
ENDBRANCH   1  13
TORSDOF 5
ENDMDL
