MODEL 1
REMARK VINA RESULT:    -8.909      0.000      0.000
REMARK INTER + INTRA:          -9.170
REMARK INTER:                  -9.170
REMARK INTRA:                   0.000
REMARK UNBOUND:                 0.000
REMARK SMILES Nc1c2c(nc3cc(Cl)ccc13)CCCC2
REMARK SMILES IDX 2 1 3 2 4 3 5 4 6 5 7 6 8 7 9 8 10 9 11 10 12 11 13 12 14 13
REMARK SMILES IDX 15 14 16 15 1 16
REMARK H PARENT 1 17 1 18
ROOT
ATOM      1  C   UNL     1     -17.979 -42.296  24.061  1.00  0.00     0.046 A 
ATOM      2  C   UNL     1     -16.852 -42.761  24.653  1.00  0.00    -0.003 A 
ATOM      3  C   UNL     1     -16.794 -42.777  26.050  1.00  0.00     0.046 A 
ATOM      4  N   UNL     1     -17.873 -42.338  26.784  1.00  0.00    -0.252 NA
ATOM      5  C   UNL     1     -18.951 -41.899  26.158  1.00  0.00     0.074 A 
ATOM      6  C   UNL     1     -20.046 -41.451  26.905  1.00  0.00     0.049 A 
ATOM      7  C   UNL     1     -21.186 -40.984  26.283  1.00  0.00     0.043 A 
ATOM      8  Cl  UNL     1     -22.526 -40.436  27.267  1.00  0.00    -0.084 Cl
ATOM      9  C   UNL     1     -21.238 -40.961  24.908  1.00  0.00     0.021 A 
ATOM     10  C   UNL     1     -20.184 -41.391  24.133  1.00  0.00     0.014 A 
ATOM     11  C   UNL     1     -19.062 -41.851  24.785  1.00  0.00     0.024 A 
ATOM     12  C   UNL     1     -15.573 -43.005  26.794  1.00  0.00     0.056 C 
ATOM     13  C   UNL     1     -14.305 -42.996  25.947  1.00  0.00     0.007 C 
ATOM     14  C   UNL     1     -14.555 -43.862  24.751  1.00  0.00     0.005 C 
ATOM     15  C   UNL     1     -15.690 -43.169  23.935  1.00  0.00     0.039 C 
ENDROOT
BRANCH   1  16
ATOM     16  N   UNL     1     -18.029 -42.275  22.635  1.00  0.00    -0.398 N 
ATOM     17  H   UNL     1     -18.895 -42.233  22.079  1.00  0.00     0.156 HD
ATOM     18  H   UNL     1     -17.091 -42.305  22.151  1.00  0.00     0.156 HD
ENDBRANCH   1  16
TORSDOF 1
ENDMDL
MODEL 2
REMARK VINA RESULT:    -8.806      1.030      2.570
REMARK INTER + INTRA:          -9.063
REMARK INTER:                  -9.063
REMARK INTRA:                   0.000
REMARK UNBOUND:                 0.000
REMARK SMILES Nc1c2c(nc3cc(Cl)ccc13)CCCC2
REMARK SMILES IDX 2 1 3 2 4 3 5 4 6 5 7 6 8 7 9 8 10 9 11 10 12 11 13 12 14 13
REMARK SMILES IDX 15 14 16 15 1 16
REMARK H PARENT 1 17 1 18
ROOT
ATOM      1  C   UNL     1     -17.474 -42.453  26.957  1.00  0.00     0.046 A 
ATOM      2  C   UNL     1     -16.429 -42.805  26.169  1.00  0.00    -0.003 A 
ATOM      3  C   UNL     1     -16.580 -42.709  24.782  1.00  0.00     0.046 A 
ATOM      4  N   UNL     1     -17.767 -42.252  24.255  1.00  0.00    -0.252 NA
ATOM      5  C   UNL     1     -18.755 -41.917  25.067  1.00  0.00     0.074 A 
ATOM      6  C   UNL     1     -19.961 -41.455  24.529  1.00  0.00     0.049 A 
ATOM      7  C   UNL     1     -21.013 -41.099  25.350  1.00  0.00     0.043 A 
ATOM      8  Cl  UNL     1     -22.500 -40.527  24.623  1.00  0.00    -0.084 Cl
ATOM      9  C   UNL     1     -20.865 -41.203  26.714  1.00  0.00     0.021 A 
ATOM     10  C   UNL     1     -19.696 -41.653  27.286  1.00  0.00     0.014 A 
ATOM     11  C   UNL     1     -18.667 -42.000  26.440  1.00  0.00     0.024 A 
ATOM     12  C   UNL     1     -15.648 -43.285  23.837  1.00  0.00     0.056 C 
ATOM     13  C   UNL     1     -14.607 -44.210  24.459  1.00  0.00     0.007 C 
ATOM     14  C   UNL     1     -14.034 -43.507  25.651  1.00  0.00     0.005 C 
ATOM     15  C   UNL     1     -15.205 -43.339  26.668  1.00  0.00     0.039 C 
ENDROOT
BRANCH   1  16
ATOM     16  N   UNL     1     -17.316 -42.563  28.371  1.00  0.00    -0.398 N 
ATOM     17  H   UNL     1     -18.081 -42.473  29.055  1.00  0.00     0.156 HD
ATOM     18  H   UNL     1     -16.330 -42.749  28.701  1.00  0.00     0.156 HD
ENDBRANCH   1  16
TORSDOF 1
ENDMDL
MODEL 3
REMARK VINA RESULT:    -8.705      2.634      5.205
REMARK INTER + INTRA:          -8.960
REMARK INTER:                  -8.960
REMARK INTRA:                   0.000
REMARK UNBOUND:                 0.000
REMARK SMILES Nc1c2c(nc3cc(Cl)ccc13)CCCC2
REMARK SMILES IDX 2 1 3 2 4 3 5 4 6 5 7 6 8 7 9 8 10 9 11 10 12 11 13 12 14 13
REMARK SMILES IDX 15 14 16 15 1 16
REMARK H PARENT 1 17 1 18
ROOT
ATOM      1  C   UNL     1     -17.560 -42.642  24.139  1.00  0.00     0.046 A 
ATOM      2  C   UNL     1     -18.656 -42.101  24.725  1.00  0.00    -0.003 A 
ATOM      3  C   UNL     1     -18.660 -41.954  26.116  1.00  0.00     0.046 A 
ATOM      4  N   UNL     1     -17.562 -42.344  26.848  1.00  0.00    -0.252 NA
ATOM      5  C   UNL     1     -16.516 -42.862  26.228  1.00  0.00     0.074 A 
ATOM      6  C   UNL     1     -15.401 -43.260  26.973  1.00  0.00     0.049 A 
ATOM      7  C   UNL     1     -14.293 -43.807  26.356  1.00  0.00     0.043 A 
ATOM      8  Cl  UNL     1     -12.926 -44.288  27.338  1.00  0.00    -0.084 Cl
ATOM      9  C   UNL     1     -14.294 -43.959  24.988  1.00  0.00     0.021 A 
ATOM     10  C   UNL     1     -15.369 -43.581  24.215  1.00  0.00     0.014 A 
ATOM     11  C   UNL     1     -16.458 -43.039  24.862  1.00  0.00     0.024 A 
ATOM     12  C   UNL     1     -19.847 -41.633  26.879  1.00  0.00     0.056 C 
ATOM     13  C   UNL     1     -21.147 -41.695  26.083  1.00  0.00     0.007 C 
ATOM     14  C   UNL     1     -20.928 -40.949  24.803  1.00  0.00     0.005 C 
ATOM     15  C   UNL     1     -19.837 -41.738  24.015  1.00  0.00     0.039 C 
ENDROOT
BRANCH   1  16
ATOM     16  N   UNL     1     -17.564 -42.797  22.720  1.00  0.00    -0.398 N 
ATOM     17  H   UNL     1     -16.788 -43.192  22.171  1.00  0.00     0.156 HD
ATOM     18  H   UNL     1     -18.444 -42.472  22.235  1.00  0.00     0.156 HD
ENDBRANCH   1  16
TORSDOF 1
ENDMDL
MODEL 4
REMARK VINA RESULT:    -8.553      8.456      9.880
REMARK INTER + INTRA:          -8.803
REMARK INTER:                  -8.803
REMARK INTRA:                   0.000
REMARK UNBOUND:                 0.000
REMARK SMILES Nc1c2c(nc3cc(Cl)ccc13)CCCC2
REMARK SMILES IDX 2 1 3 2 4 3 5 4 6 5 7 6 8 7 9 8 10 9 11 10 12 11 13 12 14 13
REMARK SMILES IDX 15 14 16 15 1 16
REMARK H PARENT 1 17 1 18
ROOT
ATOM      1  C   UNL     1     -11.551 -45.411  31.387  1.00  0.00     0.046 A 
ATOM      2  C   UNL     1     -10.206 -45.352  31.545  1.00  0.00    -0.003 A 
ATOM      3  C   UNL     1      -9.666 -44.268  32.246  1.00  0.00     0.046 A 
ATOM      4  N   UNL     1     -10.502 -43.305  32.763  1.00  0.00    -0.252 NA
ATOM      5  C   UNL     1     -11.807 -43.410  32.586  1.00  0.00     0.074 A 
ATOM      6  C   UNL     1     -12.655 -42.429  33.110  1.00  0.00     0.049 A 
ATOM      7  C   UNL     1     -14.022 -42.508  32.940  1.00  0.00     0.043 A 
ATOM      8  Cl  UNL     1     -15.037 -41.253  33.619  1.00  0.00    -0.084 Cl
ATOM      9  C   UNL     1     -14.552 -43.571  32.243  1.00  0.00     0.021 A 
ATOM     10  C   UNL     1     -13.755 -44.559  31.709  1.00  0.00     0.014 A 
ATOM     11  C   UNL     1     -12.395 -44.450  31.897  1.00  0.00     0.024 A 
ATOM     12  C   UNL     1      -8.253 -43.957  32.265  1.00  0.00     0.056 C 
ATOM     13  C   UNL     1      -7.415 -44.759  31.275  1.00  0.00     0.007 C 
ATOM     14  C   UNL     1      -7.805 -46.198  31.415  1.00  0.00     0.005 C 
ATOM     15  C   UNL     1      -9.299 -46.294  30.977  1.00  0.00     0.039 C 
ENDROOT
BRANCH   1  16
ATOM     16  N   UNL     1     -12.095 -46.514  30.664  1.00  0.00    -0.398 N 
ATOM     17  H   UNL     1     -11.662 -47.446  30.605  1.00  0.00     0.156 HD
ATOM     18  H   UNL     1     -13.007 -46.321  30.167  1.00  0.00     0.156 HD
ENDBRANCH   1  16
TORSDOF 1
ENDMDL
MODEL 5
REMARK VINA RESULT:    -8.485      6.721      9.600
REMARK INTER + INTRA:          -8.733
REMARK INTER:                  -8.733
REMARK INTRA:                   0.000
REMARK UNBOUND:                 0.000
REMARK SMILES Nc1c2c(nc3cc(Cl)ccc13)CCCC2
REMARK SMILES IDX 2 1 3 2 4 3 5 4 6 5 7 6 8 7 9 8 10 9 11 10 12 11 13 12 14 13
REMARK SMILES IDX 15 14 16 15 1 16
REMARK H PARENT 1 17 1 18
ROOT
ATOM      1  C   UNL     1     -12.489 -45.482  29.396  1.00  0.00     0.046 A 
ATOM      2  C   UNL     1     -12.849 -44.735  28.324  1.00  0.00    -0.003 A 
ATOM      3  C   UNL     1     -11.918 -43.830  27.801  1.00  0.00     0.046 A 
ATOM      4  N   UNL     1     -10.670 -43.729  28.372  1.00  0.00    -0.252 NA
ATOM      5  C   UNL     1     -10.366 -44.484  29.414  1.00  0.00     0.074 A 
ATOM      6  C   UNL     1      -9.097 -44.378  29.994  1.00  0.00     0.049 A 
ATOM      7  C   UNL     1      -8.749 -45.150  31.084  1.00  0.00     0.043 A 
ATOM      8  Cl  UNL     1      -7.147 -44.977  31.770  1.00  0.00    -0.084 Cl
ATOM      9  C   UNL     1      -9.669 -46.034  31.602  1.00  0.00     0.021 A 
ATOM     10  C   UNL     1     -10.929 -46.170  31.063  1.00  0.00     0.014 A 
ATOM     11  C   UNL     1     -11.244 -45.385  29.976  1.00  0.00     0.024 A 
ATOM     12  C   UNL     1     -12.257 -42.807  26.836  1.00  0.00     0.056 C 
ATOM     13  C   UNL     1     -13.754 -42.632  26.599  1.00  0.00     0.007 C 
ATOM     14  C   UNL     1     -14.342 -43.994  26.395  1.00  0.00     0.005 C 
ATOM     15  C   UNL     1     -14.148 -44.763  27.738  1.00  0.00     0.039 C 
ENDROOT
BRANCH   1  16
ATOM     16  N   UNL     1     -13.445 -46.397  29.929  1.00  0.00    -0.398 N 
ATOM     17  H   UNL     1     -14.306 -46.123  30.422  1.00  0.00     0.156 HD
ATOM     18  H   UNL     1     -13.218 -47.419  29.788  1.00  0.00     0.156 HD
ENDBRANCH   1  16
TORSDOF 1
ENDMDL
MODEL 6
REMARK VINA RESULT:    -8.467      6.351      8.861
REMARK INTER + INTRA:          -8.715
REMARK INTER:                  -8.715
REMARK INTRA:                   0.000
REMARK UNBOUND:                 0.000
REMARK SMILES Nc1c2c(nc3cc(Cl)ccc13)CCCC2
REMARK SMILES IDX 2 1 3 2 4 3 5 4 6 5 7 6 8 7 9 8 10 9 11 10 12 11 13 12 14 13
REMARK SMILES IDX 15 14 16 15 1 16
REMARK H PARENT 1 17 1 18
ROOT
ATOM      1  C   UNL     1     -11.532 -45.256  30.218  1.00  0.00     0.046 A 
ATOM      2  C   UNL     1     -10.310 -44.813  30.604  1.00  0.00    -0.003 A 
ATOM      3  C   UNL     1      -9.696 -43.812  29.844  1.00  0.00     0.046 A 
ATOM      4  N   UNL     1     -10.343 -43.297  28.743  1.00  0.00    -0.252 NA
ATOM      5  C   UNL     1     -11.536 -43.760  28.412  1.00  0.00     0.074 A 
ATOM      6  C   UNL     1     -12.191 -43.236  27.292  1.00  0.00     0.049 A 
ATOM      7  C   UNL     1     -13.436 -43.700  26.917  1.00  0.00     0.043 A 
ATOM      8  Cl  UNL     1     -14.210 -43.009  25.507  1.00  0.00    -0.084 Cl
ATOM      9  C   UNL     1     -14.035 -44.691  27.661  1.00  0.00     0.021 A 
ATOM     10  C   UNL     1     -13.427 -45.235  28.770  1.00  0.00     0.014 A 
ATOM     11  C   UNL     1     -12.185 -44.751  29.117  1.00  0.00     0.024 A 
ATOM     12  C   UNL     1      -8.307 -43.437  29.994  1.00  0.00     0.056 C 
ATOM     13  C   UNL     1      -7.492 -44.372  30.882  1.00  0.00     0.007 C 
ATOM     14  C   UNL     1      -8.281 -44.609  32.133  1.00  0.00     0.005 C 
ATOM     15  C   UNL     1      -9.579 -45.358  31.699  1.00  0.00     0.039 C 
ENDROOT
BRANCH   1  16
ATOM     16  N   UNL     1     -12.149 -46.284  30.992  1.00  0.00    -0.398 N 
ATOM     17  H   UNL     1     -13.000 -46.795  30.716  1.00  0.00     0.156 HD
ATOM     18  H   UNL     1     -11.671 -46.507  31.907  1.00  0.00     0.156 HD
ENDBRANCH   1  16
TORSDOF 1
ENDMDL
MODEL 7
REMARK VINA RESULT:    -8.367      9.080     11.073
REMARK INTER + INTRA:          -8.612
REMARK INTER:                  -8.612
REMARK INTRA:                   0.000
REMARK UNBOUND:                 0.000
REMARK SMILES Nc1c2c(nc3cc(Cl)ccc13)CCCC2
REMARK SMILES IDX 2 1 3 2 4 3 5 4 6 5 7 6 8 7 9 8 10 9 11 10 12 11 13 12 14 13
REMARK SMILES IDX 15 14 16 15 1 16
REMARK H PARENT 1 17 1 18
ROOT
ATOM      1  C   UNL     1     -12.505 -45.054  31.561  1.00  0.00     0.046 A 
ATOM      2  C   UNL     1     -13.087 -43.976  32.141  1.00  0.00    -0.003 A 
ATOM      3  C   UNL     1     -12.267 -43.042  32.782  1.00  0.00     0.046 A 
ATOM      4  N   UNL     1     -10.903 -43.229  32.799  1.00  0.00    -0.252 NA
ATOM      5  C   UNL     1     -10.384 -44.294  32.214  1.00  0.00     0.074 A 
ATOM      6  C   UNL     1      -8.998 -44.483  32.234  1.00  0.00     0.049 A 
ATOM      7  C   UNL     1      -8.424 -45.587  31.635  1.00  0.00     0.043 A 
ATOM      8  Cl  UNL     1      -6.684 -45.773  31.689  1.00  0.00    -0.084 Cl
ATOM      9  C   UNL     1      -9.234 -46.510  31.012  1.00  0.00     0.021 A 
ATOM     10  C   UNL     1     -10.602 -46.364  30.969  1.00  0.00     0.014 A 
ATOM     11  C   UNL     1     -11.142 -45.252  31.576  1.00  0.00     0.024 A 
ATOM     12  C   UNL     1     -12.773 -41.998  33.646  1.00  0.00     0.056 C 
ATOM     13  C   UNL     1     -14.252 -42.129  33.998  1.00  0.00     0.007 C 
ATOM     14  C   UNL     1     -14.997 -42.392  32.725  1.00  0.00     0.005 C 
ATOM     15  C   UNL     1     -14.497 -43.773  32.200  1.00  0.00     0.039 C 
ENDROOT
BRANCH   1  16
ATOM     16  N   UNL     1     -13.348 -46.008  30.916  1.00  0.00    -0.398 N 
ATOM     17  H   UNL     1     -14.014 -46.625  31.403  1.00  0.00     0.156 HD
ATOM     18  H   UNL     1     -13.253 -46.055  29.866  1.00  0.00     0.156 HD
ENDBRANCH   1  16
TORSDOF 1
ENDMDL
MODEL 8
REMARK VINA RESULT:    -8.322      7.205     10.129
REMARK INTER + INTRA:          -8.565
REMARK INTER:                  -8.565
REMARK INTRA:                   0.000
REMARK UNBOUND:                 0.000
REMARK SMILES Nc1c2c(nc3cc(Cl)ccc13)CCCC2
REMARK SMILES IDX 2 1 3 2 4 3 5 4 6 5 7 6 8 7 9 8 10 9 11 10 12 11 13 12 14 13
REMARK SMILES IDX 15 14 16 15 1 16
REMARK H PARENT 1 17 1 18
ROOT
ATOM      1  C   UNL     1     -10.665 -43.313  28.503  1.00  0.00     0.046 A 
ATOM      2  C   UNL     1     -11.732 -44.037  28.085  1.00  0.00    -0.003 A 
ATOM      3  C   UNL     1     -11.844 -45.364  28.514  1.00  0.00     0.046 A 
ATOM      4  N   UNL     1     -10.889 -45.895  29.350  1.00  0.00    -0.252 NA
ATOM      5  C   UNL     1      -9.870 -45.146  29.734  1.00  0.00     0.074 A 
ATOM      6  C   UNL     1      -8.898 -45.687  30.582  1.00  0.00     0.049 A 
ATOM      7  C   UNL     1      -7.820 -44.932  30.999  1.00  0.00     0.043 A 
ATOM      8  Cl  UNL     1      -6.634 -45.660  32.061  1.00  0.00    -0.084 Cl
ATOM      9  C   UNL     1      -7.706 -43.629  30.569  1.00  0.00     0.021 A 
ATOM     10  C   UNL     1      -8.639 -43.056  29.734  1.00  0.00     0.014 A 
ATOM     11  C   UNL     1      -9.701 -43.836  29.336  1.00  0.00     0.024 A 
ATOM     12  C   UNL     1     -12.782 -46.308  27.945  1.00  0.00     0.056 C 
ATOM     13  C   UNL     1     -13.483 -45.820  26.681  1.00  0.00     0.007 C 
ATOM     14  C   UNL     1     -13.978 -44.432  26.947  1.00  0.00     0.005 C 
ATOM     15  C   UNL     1     -12.712 -43.549  27.173  1.00  0.00     0.039 C 
ENDROOT
BRANCH   1  16
ATOM     16  N   UNL     1     -10.551 -41.963  28.055  1.00  0.00    -0.398 N 
ATOM     17  H   UNL     1     -11.211 -41.210  28.293  1.00  0.00     0.156 HD
ATOM     18  H   UNL     1      -9.718 -41.762  27.439  1.00  0.00     0.156 HD
ENDBRANCH   1  16
TORSDOF 1
ENDMDL
MODEL 9
REMARK VINA RESULT:    -8.043      7.965     10.037
REMARK INTER + INTRA:          -8.278
REMARK INTER:                  -8.278
REMARK INTRA:                   0.000
REMARK UNBOUND:                 0.000
REMARK SMILES Nc1c2c(nc3cc(Cl)ccc13)CCCC2
REMARK SMILES IDX 2 1 3 2 4 3 5 4 6 5 7 6 8 7 9 8 10 9 11 10 12 11 13 12 14 13
REMARK SMILES IDX 15 14 16 15 1 16
REMARK H PARENT 1 17 1 18
ROOT
ATOM      1  C   UNL     1     -12.436 -43.696  31.926  1.00  0.00     0.046 A 
ATOM      2  C   UNL     1     -11.337 -43.187  32.535  1.00  0.00    -0.003 A 
ATOM      3  C   UNL     1     -10.082 -43.466  31.983  1.00  0.00     0.046 A 
ATOM      4  N   UNL     1      -9.992 -44.230  30.842  1.00  0.00    -0.252 NA
ATOM      5  C   UNL     1     -11.094 -44.699  30.284  1.00  0.00     0.074 A 
ATOM      6  C   UNL     1     -11.001 -45.478  29.125  1.00  0.00     0.049 A 
ATOM      7  C   UNL     1     -12.132 -45.985  28.518  1.00  0.00     0.043 A 
ATOM      8  Cl  UNL     1     -11.957 -46.953  27.069  1.00  0.00    -0.084 Cl
ATOM      9  C   UNL     1     -13.366 -45.717  29.067  1.00  0.00     0.021 A 
ATOM     10  C   UNL     1     -13.505 -44.956  30.206  1.00  0.00     0.014 A 
ATOM     11  C   UNL     1     -12.356 -44.465  30.786  1.00  0.00     0.024 A 
ATOM     12  C   UNL     1      -8.834 -43.202  32.668  1.00  0.00     0.056 C 
ATOM     13  C   UNL     1      -8.988 -42.811  34.135  1.00  0.00     0.007 C 
ATOM     14  C   UNL     1     -10.053 -41.761  34.213  1.00  0.00     0.005 C 
ATOM     15  C   UNL     1     -11.378 -42.442  33.749  1.00  0.00     0.039 C 
ENDROOT
BRANCH   1  16
ATOM     16  N   UNL     1     -13.712 -43.415  32.498  1.00  0.00    -0.398 N 
ATOM     17  H   UNL     1     -14.041 -43.778  33.403  1.00  0.00     0.156 HD
ATOM     18  H   UNL     1     -14.335 -42.786  31.922  1.00  0.00     0.156 HD
ENDBRANCH   1  16
TORSDOF 1
ENDMDL
