MODEL 1
REMARK VINA RESULT:    -8.833      0.000      0.000
REMARK INTER + INTRA:          -9.091
REMARK INTER:                  -9.091
REMARK INTRA:                   0.000
REMARK UNBOUND:                 0.000
REMARK SMILES N=c1c2c([nH]c3ccccc13)CCCC2
REMARK SMILES IDX 5 1 4 2 3 3 2 4 11 5 10 6 9 7 8 8 7 9 6 10 15 11 14 12 13 13
REMARK SMILES IDX 12 14 1 16
REMARK H PARENT 5 15 1 17
ROOT
ATOM      1  N   UNL     1     -11.155 -46.019  29.259  1.00  0.00    -0.358 N 
ATOM      2  C   UNL     1     -10.065 -45.568  29.970  1.00  0.00     0.020 A 
ATOM      3  C   UNL     1      -9.565 -44.324  29.828  1.00  0.00    -0.003 A 
ATOM      4  C   UNL     1     -10.212 -43.389  28.847  1.00  0.00     0.068 A 
ATOM      5  C   UNL     1     -11.452 -43.867  28.155  1.00  0.00     0.023 A 
ATOM      6  C   UNL     1     -12.187 -43.049  27.285  1.00  0.00     0.012 A 
ATOM      7  C   UNL     1     -13.332 -43.544  26.654  1.00  0.00     0.001 A 
ATOM      8  C   UNL     1     -13.747 -44.852  26.884  1.00  0.00     0.002 A 
ATOM      9  C   UNL     1     -13.024 -45.670  27.754  1.00  0.00     0.027 A 
ATOM     10  C   UNL     1     -11.883 -45.183  28.405  1.00  0.00     0.048 A 
ATOM     11  C   UNL     1      -8.384 -43.802  30.603  1.00  0.00     0.039 C 
ATOM     12  C   UNL     1      -7.995 -44.691  31.785  1.00  0.00     0.005 C 
ATOM     13  C   UNL     1      -8.036 -46.163  31.397  1.00  0.00     0.007 C 
ATOM     14  C   UNL     1      -9.436 -46.559  30.924  1.00  0.00     0.054 C 
ATOM     15  H   UNL     1     -11.550 -46.916  29.511  1.00  0.00     0.166 HD
ENDROOT
BRANCH   4  16
ATOM     16  N   UNL     1      -9.674 -42.224  28.642  1.00  0.00    -0.300 NA
ATOM     17  H   UNL     1     -10.316 -41.562  28.212  1.00  0.00     0.188 HD
ENDBRANCH   4  16
TORSDOF 1
ENDMDL
MODEL 2
REMARK VINA RESULT:    -8.748      6.129      8.729
REMARK INTER + INTRA:          -9.004
REMARK INTER:                  -9.004
REMARK INTRA:                   0.000
REMARK UNBOUND:                 0.000
REMARK SMILES N=c1c2c([nH]c3ccccc13)CCCC2
REMARK SMILES IDX 5 1 4 2 3 3 2 4 11 5 10 6 9 7 8 8 7 9 6 10 15 11 14 12 13 13
REMARK SMILES IDX 12 14 1 16
REMARK H PARENT 5 15 1 17
ROOT
ATOM      1  N   UNL     1     -17.765 -42.397  26.829  1.00  0.00    -0.358 N 
ATOM      2  C   UNL     1     -16.678 -42.816  26.096  1.00  0.00     0.020 A 
ATOM      3  C   UNL     1     -16.685 -42.877  24.749  1.00  0.00    -0.003 A 
ATOM      4  C   UNL     1     -17.933 -42.483  24.011  1.00  0.00     0.068 A 
ATOM      5  C   UNL     1     -19.070 -41.942  24.822  1.00  0.00     0.023 A 
ATOM      6  C   UNL     1     -20.249 -41.464  24.233  1.00  0.00     0.012 A 
ATOM      7  C   UNL     1     -21.289 -40.979  25.032  1.00  0.00     0.001 A 
ATOM      8  C   UNL     1     -21.158 -40.969  26.418  1.00  0.00     0.002 A 
ATOM      9  C   UNL     1     -19.985 -41.437  27.011  1.00  0.00     0.027 A 
ATOM     10  C   UNL     1     -18.929 -41.912  26.222  1.00  0.00     0.048 A 
ATOM     11  C   UNL     1     -15.504 -43.317  23.924  1.00  0.00     0.039 C 
ATOM     12  C   UNL     1     -14.202 -43.389  24.721  1.00  0.00     0.005 C 
ATOM     13  C   UNL     1     -14.432 -44.026  26.085  1.00  0.00     0.007 C 
ATOM     14  C   UNL     1     -15.456 -43.225  26.891  1.00  0.00     0.054 C 
ATOM     15  H   UNL     1     -17.644 -42.256  27.824  1.00  0.00     0.166 HD
ENDROOT
BRANCH   4  16
ATOM     16  N   UNL     1     -17.971 -42.631  22.721  1.00  0.00    -0.300 NA
ATOM     17  H   UNL     1     -18.381 -41.831  22.244  1.00  0.00     0.188 HD
ENDBRANCH   4  16
TORSDOF 1
ENDMDL
MODEL 3
REMARK VINA RESULT:    -8.715      1.956      2.883
REMARK INTER + INTRA:          -8.970
REMARK INTER:                  -8.970
REMARK INTRA:                   0.000
REMARK UNBOUND:                 0.000
REMARK SMILES N=c1c2c([nH]c3ccccc13)CCCC2
REMARK SMILES IDX 5 1 4 2 3 3 2 4 11 5 10 6 9 7 8 8 7 9 6 10 15 11 14 12 13 13
REMARK SMILES IDX 12 14 1 16
REMARK H PARENT 5 15 1 17
ROOT
ATOM      1  N   UNL     1     -12.191 -43.837  30.517  1.00  0.00    -0.358 N 
ATOM      2  C   UNL     1     -11.108 -43.747  31.362  1.00  0.00     0.020 A 
ATOM      3  C   UNL     1     -10.040 -44.565  31.270  1.00  0.00    -0.003 A 
ATOM      4  C   UNL     1     -10.031 -45.629  30.210  1.00  0.00     0.068 A 
ATOM      5  C   UNL     1     -11.175 -45.648  29.243  1.00  0.00     0.023 A 
ATOM      6  C   UNL     1     -11.228 -46.542  28.164  1.00  0.00     0.012 A 
ATOM      7  C   UNL     1     -12.322 -46.530  27.294  1.00  0.00     0.001 A 
ATOM      8  C   UNL     1     -13.366 -45.632  27.497  1.00  0.00     0.002 A 
ATOM      9  C   UNL     1     -13.317 -44.736  28.566  1.00  0.00     0.027 A 
ATOM     10  C   UNL     1     -12.220 -44.726  29.437  1.00  0.00     0.048 A 
ATOM     11  C   UNL     1      -8.837 -44.477  32.172  1.00  0.00     0.039 C 
ATOM     12  C   UNL     1      -8.790 -43.190  32.995  1.00  0.00     0.005 C 
ATOM     13  C   UNL     1     -10.164 -42.850  33.555  1.00  0.00     0.007 C 
ATOM     14  C   UNL     1     -11.181 -42.674  32.427  1.00  0.00     0.054 C 
ATOM     15  H   UNL     1     -12.894 -43.111  30.564  1.00  0.00     0.166 HD
ENDROOT
BRANCH   4  16
ATOM     16  N   UNL     1      -9.046 -46.477  30.182  1.00  0.00    -0.300 NA
ATOM     17  H   UNL     1      -8.552 -46.539  31.069  1.00  0.00     0.188 HD
ENDBRANCH   4  16
TORSDOF 1
ENDMDL
MODEL 4
REMARK VINA RESULT:    -8.500      5.753      8.329
REMARK INTER + INTRA:          -8.748
REMARK INTER:                  -8.748
REMARK INTRA:                   0.000
REMARK UNBOUND:                 0.000
REMARK SMILES N=c1c2c([nH]c3ccccc13)CCCC2
REMARK SMILES IDX 5 1 4 2 3 3 2 4 11 5 10 6 9 7 8 8 7 9 6 10 15 11 14 12 13 13
REMARK SMILES IDX 12 14 1 16
REMARK H PARENT 5 15 1 17
ROOT
ATOM      1  N   UNL     1     -17.631 -42.387  24.329  1.00  0.00    -0.358 N 
ATOM      2  C   UNL     1     -16.505 -42.895  24.937  1.00  0.00     0.020 A 
ATOM      3  C   UNL     1     -16.363 -42.957  26.276  1.00  0.00    -0.003 A 
ATOM      4  C   UNL     1     -17.471 -42.440  27.148  1.00  0.00     0.068 A 
ATOM      5  C   UNL     1     -18.724 -41.980  26.468  1.00  0.00     0.023 A 
ATOM      6  C   UNL     1     -19.854 -41.559  27.185  1.00  0.00     0.012 A 
ATOM      7  C   UNL     1     -20.997 -41.126  26.506  1.00  0.00     0.001 A 
ATOM      8  C   UNL     1     -21.018 -41.110  25.115  1.00  0.00     0.002 A 
ATOM      9  C   UNL     1     -19.900 -41.534  24.395  1.00  0.00     0.027 A 
ATOM     10  C   UNL     1     -18.753 -41.984  25.062  1.00  0.00     0.048 A 
ATOM     11  C   UNL     1     -15.148 -43.522  26.965  1.00  0.00     0.039 C 
ATOM     12  C   UNL     1     -14.228 -44.302  26.026  1.00  0.00     0.005 C 
ATOM     13  C   UNL     1     -14.057 -43.574  24.700  1.00  0.00     0.007 C 
ATOM     14  C   UNL     1     -15.409 -43.378  24.011  1.00  0.00     0.054 C 
ATOM     15  H   UNL     1     -17.720 -42.491  23.327  1.00  0.00     0.166 HD
ENDROOT
BRANCH   4  16
ATOM     16  N   UNL     1     -17.295 -42.413  28.435  1.00  0.00    -0.300 NA
ATOM     17  H   UNL     1     -17.858 -41.702  28.897  1.00  0.00     0.188 HD
ENDBRANCH   4  16
TORSDOF 1
ENDMDL
MODEL 5
REMARK VINA RESULT:    -8.442      0.375      4.809
REMARK INTER + INTRA:          -8.688
REMARK INTER:                  -8.688
REMARK INTRA:                   0.000
REMARK UNBOUND:                 0.000
REMARK SMILES N=c1c2c([nH]c3ccccc13)CCCC2
REMARK SMILES IDX 5 1 4 2 3 3 2 4 11 5 10 6 9 7 8 8 7 9 6 10 15 11 14 12 13 13
REMARK SMILES IDX 12 14 1 16
REMARK H PARENT 5 15 1 17
ROOT
ATOM      1  N   UNL     1     -11.333 -45.783  29.513  1.00  0.00    -0.358 N 
ATOM      2  C   UNL     1     -11.973 -44.962  28.611  1.00  0.00     0.020 A 
ATOM      3  C   UNL     1     -11.481 -43.764  28.237  1.00  0.00    -0.003 A 
ATOM      4  C   UNL     1     -10.185 -43.293  28.832  1.00  0.00     0.068 A 
ATOM      5  C   UNL     1      -9.459 -44.242  29.736  1.00  0.00     0.023 A 
ATOM      6  C   UNL     1      -8.201 -43.943  30.280  1.00  0.00     0.012 A 
ATOM      7  C   UNL     1      -7.567 -44.854  31.129  1.00  0.00     0.001 A 
ATOM      8  C   UNL     1      -8.182 -46.064  31.440  1.00  0.00     0.002 A 
ATOM      9  C   UNL     1      -9.431 -46.370  30.898  1.00  0.00     0.027 A 
ATOM     10  C   UNL     1     -10.072 -45.472  30.034  1.00  0.00     0.048 A 
ATOM     11  C   UNL     1     -12.155 -42.855  27.242  1.00  0.00     0.039 C 
ATOM     12  C   UNL     1     -13.278 -43.538  26.462  1.00  0.00     0.005 C 
ATOM     13  C   UNL     1     -14.136 -44.399  27.380  1.00  0.00     0.007 C 
ATOM     14  C   UNL     1     -13.288 -45.473  28.063  1.00  0.00     0.054 C 
ATOM     15  H   UNL     1     -11.695 -46.717  29.647  1.00  0.00     0.166 HD
ENDROOT
BRANCH   4  16
ATOM     16  N   UNL     1      -9.759 -42.101  28.543  1.00  0.00    -0.300 NA
ATOM     17  H   UNL     1      -9.741 -41.480  29.350  1.00  0.00     0.188 HD
ENDBRANCH   4  16
TORSDOF 1
ENDMDL
MODEL 6
REMARK VINA RESULT:    -8.357      2.177      2.859
REMARK INTER + INTRA:          -8.602
REMARK INTER:                  -8.602
REMARK INTRA:                   0.000
REMARK UNBOUND:                 0.000
REMARK SMILES N=c1c2c([nH]c3ccccc13)CCCC2
REMARK SMILES IDX 5 1 4 2 3 3 2 4 11 5 10 6 9 7 8 8 7 9 6 10 15 11 14 12 13 13
REMARK SMILES IDX 12 14 1 16
REMARK H PARENT 5 15 1 17
ROOT
ATOM      1  N   UNL     1      -9.379 -45.125  30.314  1.00  0.00    -0.358 N 
ATOM      2  C   UNL     1      -9.387 -44.327  31.436  1.00  0.00     0.020 A 
ATOM      3  C   UNL     1     -10.490 -43.681  31.865  1.00  0.00    -0.003 A 
ATOM      4  C   UNL     1     -11.765 -43.825  31.085  1.00  0.00     0.068 A 
ATOM      5  C   UNL     1     -11.758 -44.773  29.924  1.00  0.00     0.023 A 
ATOM      6  C   UNL     1     -12.912 -45.051  29.177  1.00  0.00     0.012 A 
ATOM      7  C   UNL     1     -12.854 -45.933  28.095  1.00  0.00     0.001 A 
ATOM      8  C   UNL     1     -11.649 -46.539  27.751  1.00  0.00     0.002 A 
ATOM      9  C   UNL     1     -10.497 -46.271  28.493  1.00  0.00     0.027 A 
ATOM     10  C   UNL     1     -10.544 -45.401  29.590  1.00  0.00     0.048 A 
ATOM     11  C   UNL     1     -10.527 -42.814  33.096  1.00  0.00     0.039 C 
ATOM     12  C   UNL     1      -9.297 -42.978  33.990  1.00  0.00     0.005 C 
ATOM     13  C   UNL     1      -8.023 -43.030  33.159  1.00  0.00     0.007 C 
ATOM     14  C   UNL     1      -8.069 -44.196  32.169  1.00  0.00     0.054 C 
ATOM     15  H   UNL     1      -8.551 -45.676  30.127  1.00  0.00     0.166 HD
ENDROOT
BRANCH   4  16
ATOM     16  N   UNL     1     -12.802 -43.130  31.444  1.00  0.00    -0.300 NA
ATOM     17  H   UNL     1     -13.321 -43.559  32.207  1.00  0.00     0.188 HD
ENDBRANCH   4  16
TORSDOF 1
ENDMDL
MODEL 7
REMARK VINA RESULT:    -8.315      6.049      9.540
REMARK INTER + INTRA:          -8.558
REMARK INTER:                  -8.558
REMARK INTRA:                   0.000
REMARK UNBOUND:                 0.000
REMARK SMILES N=c1c2c([nH]c3ccccc13)CCCC2
REMARK SMILES IDX 5 1 4 2 3 3 2 4 11 5 10 6 9 7 8 8 7 9 6 10 15 11 14 12 13 13
REMARK SMILES IDX 12 14 1 16
REMARK H PARENT 5 15 1 17
ROOT
ATOM      1  N   UNL     1     -17.585 -42.402  26.816  1.00  0.00    -0.358 N 
ATOM      2  C   UNL     1     -18.774 -42.054  26.215  1.00  0.00     0.020 A 
ATOM      3  C   UNL     1     -18.935 -42.030  24.876  1.00  0.00    -0.003 A 
ATOM      4  C   UNL     1     -17.770 -42.386  23.998  1.00  0.00     0.068 A 
ATOM      5  C   UNL     1     -16.517 -42.853  24.673  1.00  0.00     0.023 A 
ATOM      6  C   UNL     1     -15.397 -43.292  23.952  1.00  0.00     0.012 A 
ATOM      7  C   UNL     1     -14.245 -43.707  24.626  1.00  0.00     0.001 A 
ATOM      8  C   UNL     1     -14.203 -43.685  26.017  1.00  0.00     0.002 A 
ATOM      9  C   UNL     1     -15.316 -43.255  26.741  1.00  0.00     0.027 A 
ATOM     10  C   UNL     1     -16.483 -42.850  26.080  1.00  0.00     0.048 A 
ATOM     11  C   UNL     1     -20.229 -41.667  24.195  1.00  0.00     0.039 C 
ATOM     12  C   UNL     1     -21.425 -41.632  25.146  1.00  0.00     0.005 C 
ATOM     13  C   UNL     1     -21.060 -40.948  26.456  1.00  0.00     0.007 C 
ATOM     14  C   UNL     1     -19.906 -41.679  27.146  1.00  0.00     0.054 C 
ATOM     15  H   UNL     1     -17.576 -42.520  27.821  1.00  0.00     0.166 HD
ENDROOT
BRANCH   4  16
ATOM     16  N   UNL     1     -17.898 -42.273  22.710  1.00  0.00    -0.300 NA
ATOM     17  H   UNL     1     -18.669 -41.666  22.441  1.00  0.00     0.188 HD
ENDBRANCH   4  16
TORSDOF 1
ENDMDL
MODEL 8
REMARK VINA RESULT:    -8.298      0.862      2.508
REMARK INTER + INTRA:          -8.541
REMARK INTER:                  -8.541
REMARK INTRA:                   0.000
REMARK UNBOUND:                 0.000
REMARK SMILES N=c1c2c([nH]c3ccccc13)CCCC2
REMARK SMILES IDX 5 1 4 2 3 3 2 4 11 5 10 6 9 7 8 8 7 9 6 10 15 11 14 12 13 13
REMARK SMILES IDX 12 14 1 16
REMARK H PARENT 5 15 1 17
ROOT
ATOM      1  N   UNL     1     -10.241 -43.319  28.795  1.00  0.00    -0.358 N 
ATOM      2  C   UNL     1      -9.620 -44.030  29.797  1.00  0.00     0.020 A 
ATOM      3  C   UNL     1     -10.196 -45.083  30.411  1.00  0.00    -0.003 A 
ATOM      4  C   UNL     1     -11.579 -45.497  29.996  1.00  0.00     0.068 A 
ATOM      5  C   UNL     1     -12.197 -44.771  28.840  1.00  0.00     0.023 A 
ATOM      6  C   UNL     1     -13.446 -45.129  28.313  1.00  0.00     0.012 A 
ATOM      7  C   UNL     1     -13.989 -44.413  27.241  1.00  0.00     0.001 A 
ATOM      8  C   UNL     1     -13.291 -43.341  26.693  1.00  0.00     0.002 A 
ATOM      9  C   UNL     1     -12.045 -42.983  27.209  1.00  0.00     0.027 A 
ATOM     10  C   UNL     1     -11.482 -43.700  28.273  1.00  0.00     0.048 A 
ATOM     11  C   UNL     1      -9.532 -45.885  31.499  1.00  0.00     0.039 C 
ATOM     12  C   UNL     1      -8.036 -45.602  31.632  1.00  0.00     0.005 C 
ATOM     13  C   UNL     1      -7.752 -44.110  31.533  1.00  0.00     0.007 C 
ATOM     14  C   UNL     1      -8.239 -43.554  30.194  1.00  0.00     0.054 C 
ATOM     15  H   UNL     1      -9.699 -42.626  28.296  1.00  0.00     0.166 HD
ENDROOT
BRANCH   4  16
ATOM     16  N   UNL     1     -12.171 -46.451  30.650  1.00  0.00    -0.300 NA
ATOM     17  H   UNL     1     -12.623 -46.126  31.501  1.00  0.00     0.188 HD
ENDBRANCH   4  16
TORSDOF 1
ENDMDL
MODEL 9
REMARK VINA RESULT:    -8.189      2.620      5.078
REMARK INTER + INTRA:          -8.428
REMARK INTER:                  -8.428
REMARK INTRA:                   0.000
REMARK UNBOUND:                 0.000
REMARK SMILES N=c1c2c([nH]c3ccccc13)CCCC2
REMARK SMILES IDX 5 1 4 2 3 3 2 4 11 5 10 6 9 7 8 8 7 9 6 10 15 11 14 12 13 13
REMARK SMILES IDX 12 14 1 16
REMARK H PARENT 5 15 1 17
ROOT
ATOM      1  N   UNL     1     -12.338 -43.684  31.186  1.00  0.00    -0.358 N 
ATOM      2  C   UNL     1     -12.031 -44.502  30.123  1.00  0.00     0.020 A 
ATOM      3  C   UNL     1     -10.774 -44.912  29.856  1.00  0.00    -0.003 A 
ATOM      4  C   UNL     1      -9.656 -44.452  30.747  1.00  0.00     0.068 A 
ATOM      5  C   UNL     1     -10.026 -43.641  31.952  1.00  0.00     0.023 A 
ATOM      6  C   UNL     1      -9.075 -43.230  32.898  1.00  0.00     0.012 A 
ATOM      7  C   UNL     1      -9.466 -42.464  34.000  1.00  0.00     0.001 A 
ATOM      8  C   UNL     1     -10.800 -42.104  34.163  1.00  0.00     0.002 A 
ATOM      9  C   UNL     1     -11.752 -42.515  33.229  1.00  0.00     0.027 A 
ATOM     10  C   UNL     1     -11.378 -43.295  32.127  1.00  0.00     0.048 A 
ATOM     11  C   UNL     1     -10.415 -45.819  28.708  1.00  0.00     0.039 C 
ATOM     12  C   UNL     1     -11.628 -46.484  28.059  1.00  0.00     0.005 C 
ATOM     13  C   UNL     1     -12.770 -45.491  27.890  1.00  0.00     0.007 C 
ATOM     14  C   UNL     1     -13.191 -44.915  29.243  1.00  0.00     0.054 C 
ATOM     15  H   UNL     1     -13.314 -43.523  31.397  1.00  0.00     0.166 HD
ENDROOT
BRANCH   4  16
ATOM     16  N   UNL     1      -8.436 -44.770  30.437  1.00  0.00    -0.300 NA
ATOM     17  H   UNL     1      -8.368 -45.251  29.542  1.00  0.00     0.188 HD
ENDBRANCH   4  16
TORSDOF 1
ENDMDL
