MODEL 1
REMARK VINA RESULT:    -9.691      0.000      0.000
REMARK INTER + INTRA:         -14.674
REMARK INTER:                 -13.374
REMARK INTRA:                  -1.301
REMARK UNBOUND:                -1.301
REMARK SMILES COc1ccc(OC)c([C@@H]2C=C(c3cc(F)cc(F)c3)NN2c2ccc(S(N)(=O)=O)cc2)c1
REMARK SMILES IDX 23 1 24 2 25 3 26 4 31 5 32 6 22 7 21 8 12 9 11 10 10 11
REMARK SMILES IDX 13 13 14 14 20 15 15 16 18 17 17 18 16 19 19 20 9 21 33 22
REMARK SMILES IDX 6 23 3 24 5 25 4 26 7 27 8 28 2 29 1 30 27 31 29 32 30 33
REMARK SMILES IDX 28 34
REMARK H PARENT 21 12 28 35 28 36
ROOT
ATOM      1  C   UNL     1     -17.860 -42.550  25.256  1.00  0.00     0.058 A 
ATOM      2  C   UNL     1     -16.821 -43.065  24.457  1.00  0.00     0.029 A 
ATOM      3  C   UNL     1     -15.595 -43.462  25.002  1.00  0.00     0.024 A 
ATOM      4  C   UNL     1     -15.398 -43.366  26.377  1.00  0.00     0.082 A 
ATOM      5  C   UNL     1     -16.406 -42.866  27.200  1.00  0.00     0.024 A 
ATOM      6  C   UNL     1     -17.626 -42.472  26.639  1.00  0.00     0.029 A 
ENDROOT
BRANCH   1   7
ATOM      7  N   UNL     1     -19.089 -42.181  24.675  1.00  0.00    -0.276 N 
ATOM      8  N   UNL     1     -19.153 -41.410  23.513  1.00  0.00    -0.297 N 
ATOM      9  C   UNL     1     -20.308 -40.638  23.504  1.00  0.00     0.060 C 
ATOM     10  C   UNL     1     -20.967 -40.783  24.664  1.00  0.00     0.033 C 
ATOM     11  C   UNL     1     -20.241 -41.778  25.551  1.00  0.00     0.165 C 
ATOM     12  H   UNL     1     -19.054 -41.942  22.647  1.00  0.00     0.188 HD
BRANCH   9  13
ATOM     13  C   UNL     1     -20.693 -39.835  22.343  1.00  0.00     0.005 A 
ATOM     14  C   UNL     1     -19.814 -39.693  21.259  1.00  0.00     0.049 A 
ATOM     15  C   UNL     1     -21.945 -39.212  22.273  1.00  0.00     0.049 A 
ATOM     16  C   UNL     1     -20.186 -38.939  20.148  1.00  0.00     0.126 A 
ATOM     17  C   UNL     1     -22.295 -38.464  21.150  1.00  0.00     0.126 A 
ATOM     18  C   UNL     1     -21.424 -38.320  20.083  1.00  0.00     0.078 A 
ATOM     19  F   UNL     1     -19.331 -38.811  19.125  1.00  0.00    -0.207 F 
ATOM     20  F   UNL     1     -23.499 -37.878  21.102  1.00  0.00    -0.207 F 
ENDBRANCH   9  13
BRANCH  11  21
ATOM     21  C   UNL     1     -21.133 -42.929  25.979  1.00  0.00     0.026 A 
ATOM     22  C   UNL     1     -20.895 -44.200  25.415  1.00  0.00     0.056 A 
ATOM     23  C   UNL     1     -22.165 -42.820  26.922  1.00  0.00     0.124 A 
ATOM     24  C   UNL     1     -21.657 -45.320  25.766  1.00  0.00     0.119 A 
ATOM     25  C   UNL     1     -22.914 -43.941  27.295  1.00  0.00     0.050 A 
ATOM     26  C   UNL     1     -22.668 -45.187  26.712  1.00  0.00     0.050 A 
BRANCH  23  27
ATOM     27  O   UNL     1     -22.397 -41.629  27.557  1.00  0.00    -0.496 OA
ATOM     28  C   UNL     1     -23.758 -41.226  27.413  1.00  0.00     0.278 C 
ENDBRANCH  23  27
BRANCH  24  29
ATOM     29  O   UNL     1     -21.304 -46.473  25.120  1.00  0.00    -0.497 OA
ATOM     30  C   UNL     1     -22.267 -47.039  24.240  1.00  0.00     0.278 C 
ENDBRANCH  24  29
ENDBRANCH  11  21
ENDBRANCH   1   7
BRANCH   4  31
ATOM     31  S   UNL     1     -13.854 -43.861  27.091  1.00  0.00     0.238 S 
ATOM     32  O   UNL     1     -12.957 -42.731  27.075  1.00  0.00    -0.207 OA
ATOM     33  O   UNL     1     -13.491 -45.152  26.555  1.00  0.00    -0.207 OA
BRANCH  31  34
ATOM     34  N   UNL     1     -14.302 -44.146  28.691  1.00  0.00    -0.225 NA
ATOM     35  H   UNL     1     -14.060 -43.379  29.317  1.00  0.00     0.137 HD
ATOM     36  H   UNL     1     -15.301 -44.360  28.718  1.00  0.00     0.137 HD
ENDBRANCH  31  34
ENDBRANCH   4  31
TORSDOF 7
ENDMDL
MODEL 2
REMARK VINA RESULT:    -9.102      4.887      7.899
REMARK INTER + INTRA:         -13.861
REMARK INTER:                 -12.553
REMARK INTRA:                  -1.308
REMARK UNBOUND:                -1.301
REMARK SMILES COc1ccc(OC)c([C@@H]2C=C(c3cc(F)cc(F)c3)NN2c2ccc(S(N)(=O)=O)cc2)c1
REMARK SMILES IDX 23 1 24 2 25 3 26 4 31 5 32 6 22 7 21 8 12 9 11 10 10 11
REMARK SMILES IDX 13 13 14 14 20 15 15 16 18 17 17 18 16 19 19 20 9 21 33 22
REMARK SMILES IDX 6 23 3 24 5 25 4 26 7 27 8 28 2 29 1 30 27 31 29 32 30 33
REMARK SMILES IDX 28 34
REMARK H PARENT 21 12 28 35 28 36
ROOT
ATOM      1  C   UNL     1     -21.382 -40.952  24.951  1.00  0.00     0.058 A 
ATOM      2  C   UNL     1     -22.399 -40.305  24.222  1.00  0.00     0.029 A 
ATOM      3  C   UNL     1     -23.459 -39.646  24.855  1.00  0.00     0.024 A 
ATOM      4  C   UNL     1     -23.503 -39.608  26.246  1.00  0.00     0.082 A 
ATOM      5  C   UNL     1     -22.513 -40.233  27.000  1.00  0.00     0.024 A 
ATOM      6  C   UNL     1     -21.460 -40.890  26.352  1.00  0.00     0.029 A 
ENDROOT
BRANCH   1   7
ATOM      7  N   UNL     1     -20.320 -41.588  24.280  1.00  0.00    -0.276 N 
ATOM      8  N   UNL     1     -19.272 -42.200  24.970  1.00  0.00    -0.297 N 
ATOM      9  C   UNL     1     -18.100 -42.144  24.225  1.00  0.00     0.060 C 
ATOM     10  C   UNL     1     -18.298 -41.425  23.110  1.00  0.00     0.033 C 
ATOM     11  C   UNL     1     -19.745 -40.973  23.035  1.00  0.00     0.165 C 
ATOM     12  H   UNL     1     -19.470 -43.152  25.281  1.00  0.00     0.188 HD
BRANCH   9  13
ATOM     13  C   UNL     1     -16.878 -42.825  24.654  1.00  0.00     0.005 A 
ATOM     14  C   UNL     1     -16.482 -42.789  25.998  1.00  0.00     0.049 A 
ATOM     15  C   UNL     1     -16.091 -43.545  23.746  1.00  0.00     0.049 A 
ATOM     16  C   UNL     1     -15.326 -43.449  26.408  1.00  0.00     0.126 A 
ATOM     17  C   UNL     1     -14.939 -44.199  24.180  1.00  0.00     0.126 A 
ATOM     18  C   UNL     1     -14.546 -44.157  25.508  1.00  0.00     0.078 A 
ATOM     19  F   UNL     1     -14.962 -43.399  27.697  1.00  0.00    -0.207 F 
ATOM     20  F   UNL     1     -14.202 -44.884  23.296  1.00  0.00    -0.207 F 
ENDBRANCH   9  13
BRANCH  11  21
ATOM     21  C   UNL     1     -20.423 -41.414  21.750  1.00  0.00     0.026 A 
ATOM     22  C   UNL     1     -20.915 -42.733  21.677  1.00  0.00     0.056 A 
ATOM     23  C   UNL     1     -20.618 -40.585  20.636  1.00  0.00     0.124 A 
ATOM     24  C   UNL     1     -21.569 -43.217  20.539  1.00  0.00     0.119 A 
ATOM     25  C   UNL     1     -21.294 -41.055  19.505  1.00  0.00     0.050 A 
ATOM     26  C   UNL     1     -21.760 -42.371  19.452  1.00  0.00     0.050 A 
BRANCH  23  27
ATOM     27  O   UNL     1     -20.227 -39.272  20.675  1.00  0.00    -0.496 OA
ATOM     28  C   UNL     1     -20.893 -38.508  19.670  1.00  0.00     0.278 C 
ENDBRANCH  23  27
BRANCH  24  29
ATOM     29  O   UNL     1     -21.974 -44.521  20.627  1.00  0.00    -0.497 OA
ATOM     30  C   UNL     1     -22.762 -45.024  19.555  1.00  0.00     0.278 C 
ENDBRANCH  24  29
ENDBRANCH  11  21
ENDBRANCH   1   7
BRANCH   4  31
ATOM     31  S   UNL     1     -24.835 -38.780  27.070  1.00  0.00     0.238 S 
ATOM     32  O   UNL     1     -24.491 -37.386  27.215  1.00  0.00    -0.207 OA
ATOM     33  O   UNL     1     -25.269 -39.596  28.181  1.00  0.00    -0.207 OA
BRANCH  31  34
ATOM     34  N   UNL     1     -26.063 -38.894  25.920  1.00  0.00    -0.225 NA
ATOM     35  H   UNL     1     -26.399 -39.847  25.787  1.00  0.00     0.137 HD
ATOM     36  H   UNL     1     -26.817 -38.257  26.183  1.00  0.00     0.137 HD
ENDBRANCH  31  34
ENDBRANCH   4  31
TORSDOF 7
ENDMDL
MODEL 3
REMARK VINA RESULT:    -8.992      1.270      2.300
REMARK INTER + INTRA:         -13.709
REMARK INTER:                 -12.408
REMARK INTRA:                  -1.301
REMARK UNBOUND:                -1.301
REMARK SMILES COc1ccc(OC)c([C@@H]2C=C(c3cc(F)cc(F)c3)NN2c2ccc(S(N)(=O)=O)cc2)c1
REMARK SMILES IDX 23 1 24 2 25 3 26 4 31 5 32 6 22 7 21 8 12 9 11 10 10 11
REMARK SMILES IDX 13 13 14 14 20 15 15 16 18 17 17 18 16 19 19 20 9 21 33 22
REMARK SMILES IDX 6 23 3 24 5 25 4 26 7 27 8 28 2 29 1 30 27 31 29 32 30 33
REMARK SMILES IDX 28 34
REMARK H PARENT 21 12 28 35 28 36
ROOT
ATOM      1  C   UNL     1     -18.177 -42.466  25.136  1.00  0.00     0.058 A 
ATOM      2  C   UNL     1     -18.041 -42.384  26.536  1.00  0.00     0.029 A 
ATOM      3  C   UNL     1     -16.850 -42.730  27.185  1.00  0.00     0.024 A 
ATOM      4  C   UNL     1     -15.759 -43.147  26.428  1.00  0.00     0.082 A 
ATOM      5  C   UNL     1     -15.855 -43.235  25.041  1.00  0.00     0.024 A 
ATOM      6  C   UNL     1     -17.054 -42.888  24.407  1.00  0.00     0.029 A 
ENDROOT
BRANCH   1   7
ATOM      7  N   UNL     1     -19.384 -42.089  24.516  1.00  0.00    -0.276 N 
ATOM      8  N   UNL     1     -19.408 -41.287  23.373  1.00  0.00    -0.297 N 
ATOM      9  C   UNL     1     -20.568 -40.524  23.339  1.00  0.00     0.060 C 
ATOM     10  C   UNL     1     -21.272 -40.705  24.467  1.00  0.00     0.033 C 
ATOM     11  C   UNL     1     -20.574 -41.719  25.354  1.00  0.00     0.165 C 
ATOM     12  H   UNL     1     -19.270 -41.795  22.498  1.00  0.00     0.188 HD
BRANCH   9  13
ATOM     13  C   UNL     1     -20.912 -39.692  22.185  1.00  0.00     0.005 A 
ATOM     14  C   UNL     1     -20.009 -39.548  21.122  1.00  0.00     0.049 A 
ATOM     15  C   UNL     1     -22.150 -39.042  22.101  1.00  0.00     0.049 A 
ATOM     16  C   UNL     1     -20.342 -38.766  20.018  1.00  0.00     0.126 A 
ATOM     17  C   UNL     1     -22.462 -38.266  20.986  1.00  0.00     0.126 A 
ATOM     18  C   UNL     1     -21.566 -38.121  19.939  1.00  0.00     0.078 A 
ATOM     19  F   UNL     1     -19.464 -38.638  19.015  1.00  0.00    -0.207 F 
ATOM     20  F   UNL     1     -23.652 -37.655  20.924  1.00  0.00    -0.207 F 
ENDBRANCH   9  13
BRANCH  11  21
ATOM     21  C   UNL     1     -21.473 -42.888  25.714  1.00  0.00     0.026 A 
ATOM     22  C   UNL     1     -21.955 -42.975  27.037  1.00  0.00     0.056 A 
ATOM     23  C   UNL     1     -21.881 -43.878  24.808  1.00  0.00     0.124 A 
ATOM     24  C   UNL     1     -22.802 -44.009  27.450  1.00  0.00     0.119 A 
ATOM     25  C   UNL     1     -22.748 -44.900  25.209  1.00  0.00     0.050 A 
ATOM     26  C   UNL     1     -23.200 -44.972  26.529  1.00  0.00     0.050 A 
BRANCH  23  27
ATOM     27  O   UNL     1     -21.505 -43.808  23.493  1.00  0.00    -0.496 OA
ATOM     28  C   UNL     1     -22.639 -43.647  22.642  1.00  0.00     0.278 C 
ENDBRANCH  23  27
BRANCH  24  29
ATOM     29  O   UNL     1     -23.169 -43.952  28.766  1.00  0.00    -0.497 OA
ATOM     30  C   UNL     1     -24.000 -45.000  29.249  1.00  0.00     0.278 C 
ENDBRANCH  24  29
ENDBRANCH  11  21
ENDBRANCH   1   7
BRANCH   4  31
ATOM     31  S   UNL     1     -14.240 -43.590  27.227  1.00  0.00     0.238 S 
ATOM     32  O   UNL     1     -14.527 -43.940  28.597  1.00  0.00    -0.207 OA
ATOM     33  O   UNL     1     -13.229 -42.625  26.864  1.00  0.00    -0.207 OA
BRANCH  31  34
ATOM     34  N   UNL     1     -13.831 -45.004  26.405  1.00  0.00    -0.225 NA
ATOM     35  H   UNL     1     -12.827 -45.114  26.272  1.00  0.00     0.137 HD
ATOM     36  H   UNL     1     -14.239 -45.800  26.900  1.00  0.00     0.137 HD
ENDBRANCH  31  34
ENDBRANCH   4  31
TORSDOF 7
ENDMDL
MODEL 4
REMARK VINA RESULT:    -8.854      3.083      5.887
REMARK INTER + INTRA:         -13.519
REMARK INTER:                 -12.219
REMARK INTRA:                  -1.300
REMARK UNBOUND:                -1.301
REMARK SMILES COc1ccc(OC)c([C@@H]2C=C(c3cc(F)cc(F)c3)NN2c2ccc(S(N)(=O)=O)cc2)c1
REMARK SMILES IDX 23 1 24 2 25 3 26 4 31 5 32 6 22 7 21 8 12 9 11 10 10 11
REMARK SMILES IDX 13 13 14 14 20 15 15 16 18 17 17 18 16 19 19 20 9 21 33 22
REMARK SMILES IDX 6 23 3 24 5 25 4 26 7 27 8 28 2 29 1 30 27 31 29 32 30 33
REMARK SMILES IDX 28 34
REMARK H PARENT 21 12 28 35 28 36
ROOT
ATOM      1  C   UNL     1     -19.074 -41.984  26.062  1.00  0.00     0.058 A 
ATOM      2  C   UNL     1     -18.517 -42.105  27.351  1.00  0.00     0.029 A 
ATOM      3  C   UNL     1     -17.201 -42.538  27.551  1.00  0.00     0.024 A 
ATOM      4  C   UNL     1     -16.409 -42.841  26.447  1.00  0.00     0.082 A 
ATOM      5  C   UNL     1     -16.924 -42.729  25.157  1.00  0.00     0.024 A 
ATOM      6  C   UNL     1     -18.243 -42.295  24.974  1.00  0.00     0.029 A 
ENDROOT
BRANCH   1   7
ATOM      7  N   UNL     1     -20.395 -41.524  25.899  1.00  0.00    -0.276 N 
ATOM      8  N   UNL     1     -21.101 -40.921  26.941  1.00  0.00    -0.297 N 
ATOM      9  C   UNL     1     -22.462 -41.163  26.811  1.00  0.00     0.060 C 
ATOM     10  C   UNL     1     -22.686 -41.994  25.781  1.00  0.00     0.033 C 
ATOM     11  C   UNL     1     -21.375 -42.331  25.095  1.00  0.00     0.165 C 
ATOM     12  H   UNL     1     -20.909 -39.926  27.061  1.00  0.00     0.188 HD
BRANCH   9  13
ATOM     13  C   UNL     1     -23.447 -40.537  27.694  1.00  0.00     0.005 A 
ATOM     14  C   UNL     1     -24.340 -41.328  28.432  1.00  0.00     0.049 A 
ATOM     15  C   UNL     1     -23.508 -39.146  27.843  1.00  0.00     0.049 A 
ATOM     16  C   UNL     1     -25.268 -40.732  29.283  1.00  0.00     0.126 A 
ATOM     17  C   UNL     1     -24.445 -38.572  28.701  1.00  0.00     0.126 A 
ATOM     18  C   UNL     1     -25.330 -39.354  29.426  1.00  0.00     0.078 A 
ATOM     19  F   UNL     1     -26.115 -41.504  29.976  1.00  0.00    -0.207 F 
ATOM     20  F   UNL     1     -24.486 -37.240  28.832  1.00  0.00    -0.207 F 
ENDBRANCH   9  13
BRANCH  11  21
ATOM     21  C   UNL     1     -21.394 -41.995  23.614  1.00  0.00     0.026 A 
ATOM     22  C   UNL     1     -21.032 -40.689  23.224  1.00  0.00     0.056 A 
ATOM     23  C   UNL     1     -21.722 -42.908  22.602  1.00  0.00     0.124 A 
ATOM     24  C   UNL     1     -21.005 -40.299  21.881  1.00  0.00     0.119 A 
ATOM     25  C   UNL     1     -21.672 -42.531  21.255  1.00  0.00     0.050 A 
ATOM     26  C   UNL     1     -21.324 -41.227  20.895  1.00  0.00     0.050 A 
BRANCH  23  27
ATOM     27  O   UNL     1     -22.011 -44.211  22.914  1.00  0.00    -0.496 OA
ATOM     28  C   UNL     1     -22.545 -44.903  21.785  1.00  0.00     0.278 C 
ENDBRANCH  23  27
BRANCH  24  29
ATOM     29  O   UNL     1     -20.643 -38.996  21.674  1.00  0.00    -0.497 OA
ATOM     30  C   UNL     1     -20.552 -38.559  20.324  1.00  0.00     0.278 C 
ENDBRANCH  24  29
ENDBRANCH  11  21
ENDBRANCH   1   7
BRANCH   4  31
ATOM     31  S   UNL     1     -14.741 -43.392  26.674  1.00  0.00     0.238 S 
ATOM     32  O   UNL     1     -13.875 -42.238  26.707  1.00  0.00    -0.207 OA
ATOM     33  O   UNL     1     -14.504 -44.519  25.802  1.00  0.00    -0.207 OA
BRANCH  31  34
ATOM     34  N   UNL     1     -14.810 -44.034  28.231  1.00  0.00    -0.225 NA
ATOM     35  H   UNL     1     -15.696 -43.850  28.701  1.00  0.00     0.137 HD
ATOM     36  H   UNL     1     -14.604 -45.033  28.183  1.00  0.00     0.137 HD
ENDBRANCH  31  34
ENDBRANCH   4  31
TORSDOF 7
ENDMDL
MODEL 5
REMARK VINA RESULT:    -8.788      1.309      2.189
REMARK INTER + INTRA:         -13.427
REMARK INTER:                 -12.034
REMARK INTRA:                  -1.393
REMARK UNBOUND:                -1.301
REMARK SMILES COc1ccc(OC)c([C@@H]2C=C(c3cc(F)cc(F)c3)NN2c2ccc(S(N)(=O)=O)cc2)c1
REMARK SMILES IDX 23 1 24 2 25 3 26 4 31 5 32 6 22 7 21 8 12 9 11 10 10 11
REMARK SMILES IDX 13 13 14 14 20 15 15 16 18 17 17 18 16 19 19 20 9 21 33 22
REMARK SMILES IDX 6 23 3 24 5 25 4 26 7 27 8 28 2 29 1 30 27 31 29 32 30 33
REMARK SMILES IDX 28 34
REMARK H PARENT 21 12 28 35 28 36
ROOT
ATOM      1  C   UNL     1     -18.569 -42.250  24.062  1.00  0.00     0.058 A 
ATOM      2  C   UNL     1     -18.229 -42.380  25.423  1.00  0.00     0.029 A 
ATOM      3  C   UNL     1     -16.937 -42.728  25.834  1.00  0.00     0.024 A 
ATOM      4  C   UNL     1     -15.950 -42.932  24.874  1.00  0.00     0.082 A 
ATOM      5  C   UNL     1     -16.247 -42.807  23.518  1.00  0.00     0.024 A 
ATOM      6  C   UNL     1     -17.545 -42.460  23.124  1.00  0.00     0.029 A 
ENDROOT
BRANCH   1   7
ATOM      7  N   UNL     1     -19.874 -41.878  23.686  1.00  0.00    -0.276 N 
ATOM      8  N   UNL     1     -20.116 -41.021  22.611  1.00  0.00    -0.297 N 
ATOM      9  C   UNL     1     -21.278 -40.290  22.823  1.00  0.00     0.060 C 
ATOM     10  C   UNL     1     -21.766 -40.546  24.047  1.00  0.00     0.033 C 
ATOM     11  C   UNL     1     -20.902 -41.582  24.741  1.00  0.00     0.165 C 
ATOM     12  H   UNL     1     -20.127 -41.481  21.699  1.00  0.00     0.188 HD
BRANCH   9  13
ATOM     13  C   UNL     1     -21.838 -39.412  21.795  1.00  0.00     0.005 A 
ATOM     14  C   UNL     1     -23.204 -39.098  21.800  1.00  0.00     0.049 A 
ATOM     15  C   UNL     1     -21.028 -38.849  20.800  1.00  0.00     0.049 A 
ATOM     16  C   UNL     1     -23.734 -38.252  20.828  1.00  0.00     0.126 A 
ATOM     17  C   UNL     1     -21.581 -38.005  19.839  1.00  0.00     0.126 A 
ATOM     18  C   UNL     1     -22.932 -37.699  19.843  1.00  0.00     0.078 A 
ATOM     19  F   UNL     1     -25.043 -37.966  20.849  1.00  0.00    -0.207 F 
ATOM     20  F   UNL     1     -20.789 -37.475  18.898  1.00  0.00    -0.207 F 
ENDBRANCH   9  13
BRANCH  11  21
ATOM     21  C   UNL     1     -21.700 -42.793  25.192  1.00  0.00     0.026 A 
ATOM     22  C   UNL     1     -21.771 -43.903  24.325  1.00  0.00     0.056 A 
ATOM     23  C   UNL     1     -22.351 -42.893  26.430  1.00  0.00     0.124 A 
ATOM     24  C   UNL     1     -22.469 -45.065  24.667  1.00  0.00     0.119 A 
ATOM     25  C   UNL     1     -23.029 -44.062  26.789  1.00  0.00     0.050 A 
ATOM     26  C   UNL     1     -23.097 -45.143  25.906  1.00  0.00     0.050 A 
BRANCH  23  27
ATOM     27  O   UNL     1     -22.256 -41.876  27.344  1.00  0.00    -0.496 OA
ATOM     28  C   UNL     1     -23.468 -41.124  27.402  1.00  0.00     0.278 C 
ENDBRANCH  23  27
BRANCH  24  29
ATOM     29  O   UNL     1     -22.450 -46.043  23.711  1.00  0.00    -0.497 OA
ATOM     30  C   UNL     1     -22.258 -47.379  24.159  1.00  0.00     0.278 C 
ENDBRANCH  24  29
ENDBRANCH  11  21
ENDBRANCH   1   7
BRANCH   4  31
ATOM     31  S   UNL     1     -14.307 -43.374  25.369  1.00  0.00     0.238 S 
ATOM     32  O   UNL     1     -13.382 -42.898  24.369  1.00  0.00    -0.207 OA
ATOM     33  O   UNL     1     -14.317 -44.741  25.834  1.00  0.00    -0.207 OA
BRANCH  31  34
ATOM     34  N   UNL     1     -14.109 -42.429  26.751  1.00  0.00    -0.225 NA
ATOM     35  H   UNL     1     -14.612 -42.791  27.559  1.00  0.00     0.137 HD
ATOM     36  H   UNL     1     -13.109 -42.328  26.938  1.00  0.00     0.137 HD
ENDBRANCH  31  34
ENDBRANCH   4  31
TORSDOF 7
ENDMDL
MODEL 6
REMARK VINA RESULT:    -8.690      3.310      5.809
REMARK INTER + INTRA:         -13.293
REMARK INTER:                 -13.499
REMARK INTRA:                   0.206
REMARK UNBOUND:                -1.301
REMARK SMILES COc1ccc(OC)c([C@@H]2C=C(c3cc(F)cc(F)c3)NN2c2ccc(S(N)(=O)=O)cc2)c1
REMARK SMILES IDX 23 1 24 2 25 3 26 4 31 5 32 6 22 7 21 8 12 9 11 10 10 11
REMARK SMILES IDX 13 13 14 14 20 15 15 16 18 17 17 18 16 19 19 20 9 21 33 22
REMARK SMILES IDX 6 23 3 24 5 25 4 26 7 27 8 28 2 29 1 30 27 31 29 32 30 33
REMARK SMILES IDX 28 34
REMARK H PARENT 21 12 28 35 28 36
ROOT
ATOM      1  C   UNL     1     -18.621 -42.018  26.165  1.00  0.00     0.058 A 
ATOM      2  C   UNL     1     -18.077 -42.125  27.460  1.00  0.00     0.029 A 
ATOM      3  C   UNL     1     -16.792 -42.633  27.684  1.00  0.00     0.024 A 
ATOM      4  C   UNL     1     -16.017 -43.026  26.597  1.00  0.00     0.082 A 
ATOM      5  C   UNL     1     -16.520 -42.930  25.300  1.00  0.00     0.024 A 
ATOM      6  C   UNL     1     -17.807 -42.421  25.094  1.00  0.00     0.029 A 
ENDROOT
BRANCH   1   7
ATOM      7  N   UNL     1     -19.910 -41.482  25.977  1.00  0.00    -0.276 N 
ATOM      8  N   UNL     1     -20.812 -41.342  27.033  1.00  0.00    -0.297 N 
ATOM      9  C   UNL     1     -22.119 -41.456  26.574  1.00  0.00     0.060 C 
ATOM     10  C   UNL     1     -22.123 -41.772  25.270  1.00  0.00     0.033 C 
ATOM     11  C   UNL     1     -20.699 -41.842  24.750  1.00  0.00     0.165 C 
ATOM     12  H   UNL     1     -20.685 -40.495  27.588  1.00  0.00     0.188 HD
BRANCH   9  13
ATOM     13  C   UNL     1     -23.268 -41.218  27.448  1.00  0.00     0.005 A 
ATOM     14  C   UNL     1     -23.554 -39.923  27.905  1.00  0.00     0.049 A 
ATOM     15  C   UNL     1     -24.119 -42.263  27.830  1.00  0.00     0.049 A 
ATOM     16  C   UNL     1     -24.656 -39.696  28.727  1.00  0.00     0.126 A 
ATOM     17  C   UNL     1     -25.216 -42.011  28.651  1.00  0.00     0.126 A 
ATOM     18  C   UNL     1     -25.494 -40.732  29.106  1.00  0.00     0.078 A 
ATOM     19  F   UNL     1     -24.910 -38.453  29.156  1.00  0.00    -0.207 F 
ATOM     20  F   UNL     1     -26.020 -43.024  29.003  1.00  0.00    -0.207 F 
ENDBRANCH   9  13
BRANCH  11  21
ATOM     21  C   UNL     1     -20.469 -40.918  23.567  1.00  0.00     0.026 A 
ATOM     22  C   UNL     1     -19.260 -41.041  22.852  1.00  0.00     0.056 A 
ATOM     23  C   UNL     1     -21.396 -39.966  23.117  1.00  0.00     0.124 A 
ATOM     24  C   UNL     1     -18.973 -40.244  21.739  1.00  0.00     0.119 A 
ATOM     25  C   UNL     1     -21.126 -39.183  21.990  1.00  0.00     0.050 A 
ATOM     26  C   UNL     1     -19.914 -39.314  21.307  1.00  0.00     0.050 A 
BRANCH  23  27
ATOM     27  O   UNL     1     -22.618 -39.850  23.726  1.00  0.00    -0.496 OA
ATOM     28  C   UNL     1     -23.481 -38.989  22.984  1.00  0.00     0.278 C 
ENDBRANCH  23  27
BRANCH  24  29
ATOM     29  O   UNL     1     -17.754 -40.481  21.168  1.00  0.00    -0.497 OA
ATOM     30  C   UNL     1     -16.703 -40.887  22.037  1.00  0.00     0.278 C 
ENDBRANCH  24  29
ENDBRANCH  11  21
ENDBRANCH   1   7
BRANCH   4  31
ATOM     31  S   UNL     1     -14.388 -43.673  26.854  1.00  0.00     0.238 S 
ATOM     32  O   UNL     1     -13.452 -42.575  26.856  1.00  0.00    -0.207 OA
ATOM     33  O   UNL     1     -14.218 -44.841  26.021  1.00  0.00    -0.207 OA
BRANCH  31  34
ATOM     34  N   UNL     1     -14.506 -44.257  28.431  1.00  0.00    -0.225 NA
ATOM     35  H   UNL     1     -15.260 -43.825  28.963  1.00  0.00     0.137 HD
ATOM     36  H   UNL     1     -14.598 -45.274  28.397  1.00  0.00     0.137 HD
ENDBRANCH  31  34
ENDBRANCH   4  31
TORSDOF 7
ENDMDL
MODEL 7
REMARK VINA RESULT:    -8.631      1.840      3.092
REMARK INTER + INTRA:         -13.212
REMARK INTER:                 -11.975
REMARK INTRA:                  -1.237
REMARK UNBOUND:                -1.301
REMARK SMILES COc1ccc(OC)c([C@@H]2C=C(c3cc(F)cc(F)c3)NN2c2ccc(S(N)(=O)=O)cc2)c1
REMARK SMILES IDX 23 1 24 2 25 3 26 4 31 5 32 6 22 7 21 8 12 9 11 10 10 11
REMARK SMILES IDX 13 13 14 14 20 15 15 16 18 17 17 18 16 19 19 20 9 21 33 22
REMARK SMILES IDX 6 23 3 24 5 25 4 26 7 27 8 28 2 29 1 30 27 31 29 32 30 33
REMARK SMILES IDX 28 34
REMARK H PARENT 21 12 28 35 28 36
ROOT
ATOM      1  C   UNL     1     -18.803 -42.057  24.787  1.00  0.00     0.058 A 
ATOM      2  C   UNL     1     -17.686 -42.457  24.027  1.00  0.00     0.029 A 
ATOM      3  C   UNL     1     -16.481 -42.838  24.628  1.00  0.00     0.024 A 
ATOM      4  C   UNL     1     -16.384 -42.843  26.016  1.00  0.00     0.082 A 
ATOM      5  C   UNL     1     -17.469 -42.458  26.801  1.00  0.00     0.024 A 
ATOM      6  C   UNL     1     -18.668 -42.078  26.184  1.00  0.00     0.029 A 
ENDROOT
BRANCH   1   7
ATOM      7  N   UNL     1     -20.007 -41.700  24.149  1.00  0.00    -0.276 N 
ATOM      8  N   UNL     1     -20.048 -41.336  22.801  1.00  0.00    -0.297 N 
ATOM      9  C   UNL     1     -21.079 -40.434  22.572  1.00  0.00     0.060 C 
ATOM     10  C   UNL     1     -21.662 -40.098  23.732  1.00  0.00     0.033 C 
ATOM     11  C   UNL     1     -21.021 -40.863  24.875  1.00  0.00     0.165 C 
ATOM     12  H   UNL     1     -20.091 -42.124  22.152  1.00  0.00     0.188 HD
BRANCH   9  13
ATOM     13  C   UNL     1     -21.431 -39.989  21.223  1.00  0.00     0.005 A 
ATOM     14  C   UNL     1     -22.146 -40.835  20.363  1.00  0.00     0.049 A 
ATOM     15  C   UNL     1     -21.088 -38.710  20.767  1.00  0.00     0.049 A 
ATOM     16  C   UNL     1     -22.492 -40.407  19.084  1.00  0.00     0.126 A 
ATOM     17  C   UNL     1     -21.447 -38.303  19.483  1.00  0.00     0.126 A 
ATOM     18  C   UNL     1     -22.148 -39.142  18.633  1.00  0.00     0.078 A 
ATOM     19  F   UNL     1     -23.172 -41.231  18.276  1.00  0.00    -0.207 F 
ATOM     20  F   UNL     1     -21.111 -37.075  19.067  1.00  0.00    -0.207 F 
ENDBRANCH   9  13
BRANCH  11  21
ATOM     21  C   UNL     1     -22.033 -41.663  25.675  1.00  0.00     0.026 A 
ATOM     22  C   UNL     1     -22.598 -41.066  26.821  1.00  0.00     0.056 A 
ATOM     23  C   UNL     1     -22.466 -42.953  25.335  1.00  0.00     0.124 A 
ATOM     24  C   UNL     1     -23.550 -41.724  27.606  1.00  0.00     0.119 A 
ATOM     25  C   UNL     1     -23.437 -43.607  26.102  1.00  0.00     0.050 A 
ATOM     26  C   UNL     1     -23.971 -42.998  27.240  1.00  0.00     0.050 A 
BRANCH  23  27
ATOM     27  O   UNL     1     -22.008 -43.557  24.194  1.00  0.00    -0.496 OA
ATOM     28  C   UNL     1     -23.023 -43.596  23.191  1.00  0.00     0.278 C 
ENDBRANCH  23  27
BRANCH  24  29
ATOM     29  O   UNL     1     -23.989 -41.010  28.687  1.00  0.00    -0.497 OA
ATOM     30  C   UNL     1     -24.316 -39.643  28.466  1.00  0.00     0.278 C 
ENDBRANCH  24  29
ENDBRANCH  11  21
ENDBRANCH   1   7
BRANCH   4  31
ATOM     31  S   UNL     1     -14.868 -43.321  26.800  1.00  0.00     0.238 S 
ATOM     32  O   UNL     1     -15.174 -43.858  28.104  1.00  0.00    -0.207 OA
ATOM     33  O   UNL     1     -13.894 -42.274  26.597  1.00  0.00    -0.207 OA
BRANCH  31  34
ATOM     34  N   UNL     1     -14.372 -44.597  25.817  1.00  0.00    -0.225 NA
ATOM     35  H   UNL     1     -14.853 -45.471  26.022  1.00  0.00     0.137 HD
ATOM     36  H   UNL     1     -14.484 -44.320  24.840  1.00  0.00     0.137 HD
ENDBRANCH  31  34
ENDBRANCH   4  31
TORSDOF 7
ENDMDL
MODEL 8
REMARK VINA RESULT:    -8.451      4.335      7.501
REMARK INTER + INTRA:         -12.963
REMARK INTER:                 -11.592
REMARK INTRA:                  -1.371
REMARK UNBOUND:                -1.301
REMARK SMILES COc1ccc(OC)c([C@@H]2C=C(c3cc(F)cc(F)c3)NN2c2ccc(S(N)(=O)=O)cc2)c1
REMARK SMILES IDX 23 1 24 2 25 3 26 4 31 5 32 6 22 7 21 8 12 9 11 10 10 11
REMARK SMILES IDX 13 13 14 14 20 15 15 16 18 17 17 18 16 19 19 20 9 21 33 22
REMARK SMILES IDX 6 23 3 24 5 25 4 26 7 27 8 28 2 29 1 30 27 31 29 32 30 33
REMARK SMILES IDX 28 34
REMARK H PARENT 21 12 28 35 28 36
ROOT
ATOM      1  C   UNL     1     -22.587 -44.065  26.685  1.00  0.00     0.058 A 
ATOM      2  C   UNL     1     -23.646 -44.540  25.887  1.00  0.00     0.029 A 
ATOM      3  C   UNL     1     -24.553 -45.498  26.353  1.00  0.00     0.024 A 
ATOM      4  C   UNL     1     -24.422 -45.985  27.651  1.00  0.00     0.082 A 
ATOM      5  C   UNL     1     -23.389 -45.536  28.471  1.00  0.00     0.024 A 
ATOM      6  C   UNL     1     -22.489 -44.578  27.989  1.00  0.00     0.029 A 
ENDROOT
BRANCH   1   7
ATOM      7  N   UNL     1     -21.706 -43.084  26.190  1.00  0.00    -0.276 N 
ATOM      8  N   UNL     1     -20.467 -43.416  25.639  1.00  0.00    -0.297 N 
ATOM      9  C   UNL     1     -19.553 -42.390  25.845  1.00  0.00     0.060 C 
ATOM     10  C   UNL     1     -20.102 -41.430  26.604  1.00  0.00     0.033 C 
ATOM     11  C   UNL     1     -21.543 -41.784  26.924  1.00  0.00     0.165 C 
ATOM     12  H   UNL     1     -20.501 -43.693  24.657  1.00  0.00     0.188 HD
BRANCH   9  13
ATOM     13  C   UNL     1     -18.213 -42.419  25.257  1.00  0.00     0.005 A 
ATOM     14  C   UNL     1     -18.027 -42.094  23.905  1.00  0.00     0.049 A 
ATOM     15  C   UNL     1     -17.089 -42.746  26.025  1.00  0.00     0.049 A 
ATOM     16  C   UNL     1     -16.750 -42.109  23.349  1.00  0.00     0.126 A 
ATOM     17  C   UNL     1     -15.821 -42.752  25.447  1.00  0.00     0.126 A 
ATOM     18  C   UNL     1     -15.639 -42.436  24.110  1.00  0.00     0.078 A 
ATOM     19  F   UNL     1     -16.594 -41.800  22.055  1.00  0.00    -0.207 F 
ATOM     20  F   UNL     1     -14.758 -43.065  26.199  1.00  0.00    -0.207 F 
ENDBRANCH   9  13
BRANCH  11  21
ATOM     21  C   UNL     1     -22.514 -40.698  26.495  1.00  0.00     0.026 A 
ATOM     22  C   UNL     1     -23.120 -39.914  27.497  1.00  0.00     0.056 A 
ATOM     23  C   UNL     1     -22.828 -40.404  25.160  1.00  0.00     0.124 A 
ATOM     24  C   UNL     1     -24.013 -38.882  27.191  1.00  0.00     0.119 A 
ATOM     25  C   UNL     1     -23.701 -39.356  24.846  1.00  0.00     0.050 A 
ATOM     26  C   UNL     1     -24.300 -38.603  25.859  1.00  0.00     0.050 A 
BRANCH  23  27
ATOM     27  O   UNL     1     -22.216 -41.082  24.140  1.00  0.00    -0.496 OA
ATOM     28  C   UNL     1     -21.393 -40.211  23.364  1.00  0.00     0.278 C 
ENDBRANCH  23  27
BRANCH  24  29
ATOM     29  O   UNL     1     -24.520 -38.227  28.279  1.00  0.00    -0.497 OA
ATOM     30  C   UNL     1     -23.741 -37.162  28.811  1.00  0.00     0.278 C 
ENDBRANCH  24  29
ENDBRANCH  11  21
ENDBRANCH   1   7
BRANCH   4  31
ATOM     31  S   UNL     1     -25.557 -47.199  28.264  1.00  0.00     0.238 S 
ATOM     32  O   UNL     1     -25.044 -48.510  27.945  1.00  0.00    -0.207 OA
ATOM     33  O   UNL     1     -26.900 -46.785  27.930  1.00  0.00    -0.207 OA
BRANCH  31  34
ATOM     34  N   UNL     1     -25.416 -46.978  29.928  1.00  0.00    -0.225 NA
ATOM     35  H   UNL     1     -25.398 -47.854  30.449  1.00  0.00     0.137 HD
ATOM     36  H   UNL     1     -24.589 -46.407  30.114  1.00  0.00     0.137 HD
ENDBRANCH  31  34
ENDBRANCH   4  31
TORSDOF 7
ENDMDL
MODEL 9
REMARK VINA RESULT:    -8.385      4.557      7.346
REMARK INTER + INTRA:         -12.872
REMARK INTER:                 -11.412
REMARK INTRA:                  -1.459
REMARK UNBOUND:                -1.301
REMARK SMILES COc1ccc(OC)c([C@@H]2C=C(c3cc(F)cc(F)c3)NN2c2ccc(S(N)(=O)=O)cc2)c1
REMARK SMILES IDX 23 1 24 2 25 3 26 4 31 5 32 6 22 7 21 8 12 9 11 10 10 11
REMARK SMILES IDX 13 13 14 14 20 15 15 16 18 17 17 18 16 19 19 20 9 21 33 22
REMARK SMILES IDX 6 23 3 24 5 25 4 26 7 27 8 28 2 29 1 30 27 31 29 32 30 33
REMARK SMILES IDX 28 34
REMARK H PARENT 21 12 28 35 28 36
ROOT
ATOM      1  C   UNL     1     -22.508 -43.922  26.871  1.00  0.00     0.058 A 
ATOM      2  C   UNL     1     -23.692 -44.250  26.182  1.00  0.00     0.029 A 
ATOM      3  C   UNL     1     -24.659 -45.098  26.733  1.00  0.00     0.024 A 
ATOM      4  C   UNL     1     -24.459 -45.620  28.007  1.00  0.00     0.082 A 
ATOM      5  C   UNL     1     -23.302 -45.315  28.721  1.00  0.00     0.024 A 
ATOM      6  C   UNL     1     -22.344 -44.466  28.155  1.00  0.00     0.029 A 
ENDROOT
BRANCH   1   7
ATOM      7  N   UNL     1     -21.567 -43.048  26.294  1.00  0.00    -0.276 N 
ATOM      8  N   UNL     1     -20.264 -43.454  26.002  1.00  0.00    -0.297 N 
ATOM      9  C   UNL     1     -19.386 -42.381  26.096  1.00  0.00     0.060 C 
ATOM     10  C   UNL     1     -20.034 -41.295  26.544  1.00  0.00     0.033 C 
ATOM     11  C   UNL     1     -21.505 -41.614  26.737  1.00  0.00     0.165 C 
ATOM     12  H   UNL     1     -20.163 -43.940  25.109  1.00  0.00     0.188 HD
BRANCH   9  13
ATOM     13  C   UNL     1     -17.979 -42.498  25.714  1.00  0.00     0.005 A 
ATOM     14  C   UNL     1     -17.594 -42.335  24.375  1.00  0.00     0.049 A 
ATOM     15  C   UNL     1     -16.985 -42.749  26.668  1.00  0.00     0.049 A 
ATOM     16  C   UNL     1     -16.252 -42.433  24.013  1.00  0.00     0.126 A 
ATOM     17  C   UNL     1     -15.648 -42.842  26.282  1.00  0.00     0.126 A 
ATOM     18  C   UNL     1     -15.270 -42.686  24.959  1.00  0.00     0.078 A 
ATOM     19  F   UNL     1     -15.905 -42.279  22.729  1.00  0.00    -0.207 F 
ATOM     20  F   UNL     1     -14.713 -43.081  27.211  1.00  0.00    -0.207 F 
ENDBRANCH   9  13
BRANCH  11  21
ATOM     21  C   UNL     1     -22.408 -40.678  25.953  1.00  0.00     0.026 A 
ATOM     22  C   UNL     1     -22.309 -40.683  24.546  1.00  0.00     0.056 A 
ATOM     23  C   UNL     1     -23.357 -39.825  26.534  1.00  0.00     0.124 A 
ATOM     24  C   UNL     1     -23.114 -39.866  23.745  1.00  0.00     0.119 A 
ATOM     25  C   UNL     1     -24.183 -39.025  25.737  1.00  0.00     0.050 A 
ATOM     26  C   UNL     1     -24.056 -39.038  24.346  1.00  0.00     0.050 A 
BRANCH  23  27
ATOM     27  O   UNL     1     -23.550 -39.829  27.891  1.00  0.00    -0.496 OA
ATOM     28  C   UNL     1     -24.025 -38.563  28.346  1.00  0.00     0.278 C 
ENDBRANCH  23  27
BRANCH  24  29
ATOM     29  O   UNL     1     -22.885 -39.984  22.402  1.00  0.00    -0.497 OA
ATOM     30  C   UNL     1     -21.628 -40.519  22.007  1.00  0.00     0.278 C 
ENDBRANCH  24  29
ENDBRANCH  11  21
ENDBRANCH   1   7
BRANCH   4  31
ATOM     31  S   UNL     1     -25.668 -46.698  28.726  1.00  0.00     0.238 S 
ATOM     32  O   UNL     1     -25.113 -48.027  28.801  1.00  0.00    -0.207 OA
ATOM     33  O   UNL     1     -26.950 -46.422  28.121  1.00  0.00    -0.207 OA
BRANCH  31  34
ATOM     34  N   UNL     1     -25.769 -46.088  30.294  1.00  0.00    -0.225 NA
ATOM     35  H   UNL     1     -26.483 -45.369  30.400  1.00  0.00     0.137 HD
ATOM     36  H   UNL     1     -25.915 -46.868  30.939  1.00  0.00     0.137 HD
ENDBRANCH  31  34
ENDBRANCH   4  31
TORSDOF 7
ENDMDL
