MODEL 1
REMARK VINA RESULT:   -11.673      0.000      0.000
REMARK INTER + INTRA:         -16.028
REMARK INTER:                 -15.426
REMARK INTRA:                  -0.602
REMARK UNBOUND:                -0.602
REMARK SMILES Nc1ccc2c(c1)C(=O)N(CC[C@H]1CC[N@@H+](Cc3ccccc3)CC1)C2=O
REMARK SMILES IDX 12 1 13 2 15 3 16 4 14 5 24 6 25 7 17 9 18 10 19 11 23 12
REMARK SMILES IDX 20 13 22 14 21 15 11 16 10 17 8 18 26 19 6 20 5 21 7 22 4 23
REMARK SMILES IDX 2 24 3 25 9 26 27 27 1 28
REMARK H PARENT 16 8 1 29 1 30
ROOT
ATOM      1  C   UNL     1     -13.973 -44.575  27.622  1.00  0.00     0.026 C 
ENDROOT
BRANCH   1   2
ATOM      2  C   UNL     1     -12.646 -45.366  27.651  1.00  0.00     0.002 C 
ATOM      3  C   UNL     1     -12.637 -46.067  30.114  1.00  0.00     0.262 C 
ATOM      4  N   UNL     1     -11.442 -45.167  30.342  1.00  0.00    -0.331 N 
ATOM      5  C   UNL     1     -12.649 -46.528  28.660  1.00  0.00     0.065 C 
ATOM      6  C   UNL     1     -11.434 -43.974  29.420  1.00  0.00     0.262 C 
ATOM      7  C   UNL     1     -11.460 -44.440  27.968  1.00  0.00     0.065 C 
ATOM      8  H   UNL     1     -10.605 -45.727  30.142  1.00  0.00     0.348 HD
BRANCH   4   9
ATOM      9  C   UNL     1     -11.318 -44.739  31.792  1.00  0.00     0.299 C 
BRANCH   9  10
ATOM     10  C   UNL     1      -9.922 -44.320  32.164  1.00  0.00     0.006 A 
ATOM     11  C   UNL     1      -8.814 -45.050  31.705  1.00  0.00     0.009 A 
ATOM     12  C   UNL     1      -9.708 -43.208  32.991  1.00  0.00     0.009 A 
ATOM     13  C   UNL     1      -7.520 -44.676  32.072  1.00  0.00     0.001 A 
ATOM     14  C   UNL     1      -8.413 -42.838  33.357  1.00  0.00     0.001 A 
ATOM     15  C   UNL     1      -7.321 -43.573  32.898  1.00  0.00     0.000 A 
ENDBRANCH   9  10
ENDBRANCH   4   9
ENDBRANCH   1   2
BRANCH   1  16
ATOM     16  C   UNL     1     -13.906 -43.290  26.783  1.00  0.00     0.129 C 
BRANCH  16  17
ATOM     17  N   UNL     1     -15.146 -43.062  26.070  1.00  0.00    -0.274 N 
ATOM     18  C   UNL     1     -15.278 -43.116  24.709  1.00  0.00     0.261 C 
ATOM     19  C   UNL     1     -16.299 -42.644  26.677  1.00  0.00     0.261 C 
ATOM     20  C   UNL     1     -16.674 -42.793  24.418  1.00  0.00     0.055 A 
ATOM     21  C   UNL     1     -17.299 -42.508  25.619  1.00  0.00     0.053 A 
ATOM     22  C   UNL     1     -17.338 -42.718  23.208  1.00  0.00     0.040 A 
ATOM     23  C   UNL     1     -18.621 -42.125  25.676  1.00  0.00     0.017 A 
ATOM     24  C   UNL     1     -18.697 -42.384  23.232  1.00  0.00     0.032 A 
ATOM     25  C   UNL     1     -19.314 -42.050  24.462  1.00  0.00     0.026 A 
ATOM     26  O   UNL     1     -14.430 -43.349  23.871  1.00  0.00    -0.269 OA
ATOM     27  O   UNL     1     -16.472 -42.365  27.851  1.00  0.00    -0.269 OA
BRANCH  24  28
ATOM     28  N   UNL     1     -19.381 -42.163  22.034  1.00  0.00    -0.399 N 
ATOM     29  H   UNL     1     -20.384 -42.320  22.079  1.00  0.00     0.156 HD
ATOM     30  H   UNL     1     -18.965 -42.602  21.217  1.00  0.00     0.156 HD
ENDBRANCH  24  28
ENDBRANCH  16  17
ENDBRANCH   1  16
TORSDOF 6
ENDMDL
MODEL 2
REMARK VINA RESULT:   -11.551      1.382      2.438
REMARK INTER + INTRA:         -15.867
REMARK INTER:                 -15.396
REMARK INTRA:                  -0.472
REMARK UNBOUND:                -0.602
REMARK SMILES Nc1ccc2c(c1)C(=O)N(CC[C@H]1CC[N@@H+](Cc3ccccc3)CC1)C2=O
REMARK SMILES IDX 12 1 13 2 15 3 16 4 14 5 24 6 25 7 17 9 18 10 19 11 23 12
REMARK SMILES IDX 20 13 22 14 21 15 11 16 10 17 8 18 26 19 6 20 5 21 7 22 4 23
REMARK SMILES IDX 2 24 3 25 9 26 27 27 1 28
REMARK H PARENT 16 8 1 29 1 30
ROOT
ATOM      1  C   UNL     1     -14.206 -44.342  27.517  1.00  0.00     0.026 C 
ENDROOT
BRANCH   1   2
ATOM      2  C   UNL     1     -12.831 -45.020  27.330  1.00  0.00     0.002 C 
ATOM      3  C   UNL     1     -12.644 -46.206  29.591  1.00  0.00     0.262 C 
ATOM      4  N   UNL     1     -11.501 -45.285  29.955  1.00  0.00    -0.331 N 
ATOM      5  C   UNL     1     -12.703 -46.360  28.075  1.00  0.00     0.065 C 
ATOM      6  C   UNL     1     -11.619 -43.932  29.301  1.00  0.00     0.262 C 
ATOM      7  C   UNL     1     -11.693 -44.091  27.787  1.00  0.00     0.065 C 
ATOM      8  H   UNL     1     -10.640 -45.727  29.611  1.00  0.00     0.348 HD
BRANCH   4   9
ATOM      9  C   UNL     1     -11.328 -45.154  31.456  1.00  0.00     0.299 C 
BRANCH   9  10
ATOM     10  C   UNL     1      -9.934 -44.750  31.855  1.00  0.00     0.006 A 
ATOM     11  C   UNL     1      -9.717 -43.570  32.583  1.00  0.00     0.009 A 
ATOM     12  C   UNL     1      -8.832 -45.535  31.486  1.00  0.00     0.009 A 
ATOM     13  C   UNL     1      -8.421 -43.182  32.929  1.00  0.00     0.001 A 
ATOM     14  C   UNL     1      -7.538 -45.143  31.833  1.00  0.00     0.001 A 
ATOM     15  C   UNL     1      -7.334 -43.968  32.553  1.00  0.00     0.000 A 
ENDBRANCH   9  10
ENDBRANCH   4   9
ENDBRANCH   1   2
BRANCH   1  16
ATOM     16  C   UNL     1     -14.402 -43.093  26.643  1.00  0.00     0.129 C 
BRANCH  16  17
ATOM     17  N   UNL     1     -15.807 -42.788  26.470  1.00  0.00    -0.274 N 
ATOM     18  C   UNL     1     -16.682 -42.555  27.496  1.00  0.00     0.261 C 
ATOM     19  C   UNL     1     -16.441 -42.822  25.257  1.00  0.00     0.261 C 
ATOM     20  C   UNL     1     -17.987 -42.323  26.879  1.00  0.00     0.055 A 
ATOM     21  C   UNL     1     -17.841 -42.484  25.513  1.00  0.00     0.053 A 
ATOM     22  C   UNL     1     -19.208 -42.034  27.458  1.00  0.00     0.040 A 
ATOM     23  C   UNL     1     -18.909 -42.369  24.650  1.00  0.00     0.017 A 
ATOM     24  C   UNL     1     -20.305 -41.857  26.609  1.00  0.00     0.032 A 
ATOM     25  C   UNL     1     -20.154 -42.069  25.217  1.00  0.00     0.026 A 
ATOM     26  O   UNL     1     -16.469 -42.559  28.691  1.00  0.00    -0.269 OA
ATOM     27  O   UNL     1     -15.977 -43.136  24.175  1.00  0.00    -0.269 OA
BRANCH  24  28
ATOM     28  N   UNL     1     -21.584 -41.697  27.147  1.00  0.00    -0.399 N 
ATOM     29  H   UNL     1     -22.333 -41.642  26.463  1.00  0.00     0.156 HD
ATOM     30  H   UNL     1     -21.663 -40.970  27.853  1.00  0.00     0.156 HD
ENDBRANCH  24  28
ENDBRANCH  16  17
ENDBRANCH   1  16
TORSDOF 6
ENDMDL
MODEL 3
REMARK VINA RESULT:   -11.404      2.661      9.311
REMARK INTER + INTRA:         -15.673
REMARK INTER:                 -15.385
REMARK INTRA:                  -0.288
REMARK UNBOUND:                -0.602
REMARK SMILES Nc1ccc2c(c1)C(=O)N(CC[C@H]1CC[N@@H+](Cc3ccccc3)CC1)C2=O
REMARK SMILES IDX 12 1 13 2 15 3 16 4 14 5 24 6 25 7 17 9 18 10 19 11 23 12
REMARK SMILES IDX 20 13 22 14 21 15 11 16 10 17 8 18 26 19 6 20 5 21 7 22 4 23
REMARK SMILES IDX 2 24 3 25 9 26 27 27 1 28
REMARK H PARENT 16 8 1 29 1 30
ROOT
ATOM      1  C   UNL     1     -13.361 -45.042  29.349  1.00  0.00     0.026 C 
ENDROOT
BRANCH   1   2
ATOM      2  C   UNL     1     -12.433 -45.134  28.117  1.00  0.00     0.002 C 
ATOM      3  C   UNL     1     -12.921 -42.854  27.061  1.00  0.00     0.262 C 
ATOM      4  N   UNL     1     -13.586 -43.558  25.899  1.00  0.00    -0.331 N 
ATOM      5  C   UNL     1     -11.869 -43.774  27.674  1.00  0.00     0.065 C 
ATOM      6  C   UNL     1     -14.214 -44.868  26.302  1.00  0.00     0.262 C 
ATOM      7  C   UNL     1     -13.162 -45.779  26.926  1.00  0.00     0.065 C 
ATOM      8  H   UNL     1     -12.849 -43.760  25.212  1.00  0.00     0.348 HD
BRANCH   4   9
ATOM      9  C   UNL     1     -14.585 -42.668  25.187  1.00  0.00     0.299 C 
BRANCH   9  10
ATOM     10  C   UNL     1     -15.917 -42.604  25.884  1.00  0.00     0.006 A 
ATOM     11  C   UNL     1     -17.107 -42.579  25.140  1.00  0.00     0.009 A 
ATOM     12  C   UNL     1     -15.987 -42.546  27.284  1.00  0.00     0.009 A 
ATOM     13  C   UNL     1     -18.342 -42.492  25.787  1.00  0.00     0.001 A 
ATOM     14  C   UNL     1     -17.224 -42.458  27.926  1.00  0.00     0.001 A 
ATOM     15  C   UNL     1     -18.398 -42.430  27.177  1.00  0.00     0.000 A 
ENDBRANCH   9  10
ENDBRANCH   4   9
ENDBRANCH   1   2
BRANCH   1  16
ATOM     16  C   UNL     1     -12.849 -45.828  30.566  1.00  0.00     0.129 C 
BRANCH  16  17
ATOM     17  N   UNL     1     -11.698 -45.183  31.164  1.00  0.00    -0.274 N 
ATOM     18  C   UNL     1     -10.405 -45.602  31.005  1.00  0.00     0.261 C 
ATOM     19  C   UNL     1     -11.792 -44.151  32.058  1.00  0.00     0.261 C 
ATOM     20  C   UNL     1      -9.578 -44.694  31.798  1.00  0.00     0.055 A 
ATOM     21  C   UNL     1     -10.423 -43.807  32.439  1.00  0.00     0.053 A 
ATOM     22  C   UNL     1      -8.208 -44.665  31.978  1.00  0.00     0.040 A 
ATOM     23  C   UNL     1      -9.946 -42.843  33.301  1.00  0.00     0.017 A 
ATOM     24  C   UNL     1      -7.682 -43.665  32.804  1.00  0.00     0.032 A 
ATOM     25  C   UNL     1      -8.559 -42.792  33.491  1.00  0.00     0.026 A 
ATOM     26  O   UNL     1      -9.986 -46.548  30.369  1.00  0.00    -0.269 OA
ATOM     27  O   UNL     1     -12.802 -43.644  32.518  1.00  0.00    -0.269 OA
BRANCH  24  28
ATOM     28  N   UNL     1      -6.323 -43.672  33.127  1.00  0.00    -0.399 N 
ATOM     29  H   UNL     1      -6.119 -43.618  34.121  1.00  0.00     0.156 HD
ATOM     30  H   UNL     1      -5.752 -43.026  32.588  1.00  0.00     0.156 HD
ENDBRANCH  24  28
ENDBRANCH  16  17
ENDBRANCH   1  16
TORSDOF 6
ENDMDL
MODEL 4
REMARK VINA RESULT:   -10.521      2.025      3.182
REMARK INTER + INTRA:         -14.506
REMARK INTER:                 -14.170
REMARK INTRA:                  -0.336
REMARK UNBOUND:                -0.602
REMARK SMILES Nc1ccc2c(c1)C(=O)N(CC[C@H]1CC[N@@H+](Cc3ccccc3)CC1)C2=O
REMARK SMILES IDX 12 1 13 2 15 3 16 4 14 5 24 6 25 7 17 9 18 10 19 11 23 12
REMARK SMILES IDX 20 13 22 14 21 15 11 16 10 17 8 18 26 19 6 20 5 21 7 22 4 23
REMARK SMILES IDX 2 24 3 25 9 26 27 27 1 28
REMARK H PARENT 16 8 1 29 1 30
ROOT
ATOM      1  C   UNL     1     -14.147 -44.296  27.284  1.00  0.00     0.026 C 
ENDROOT
BRANCH   1   2
ATOM      2  C   UNL     1     -12.720 -44.866  27.134  1.00  0.00     0.002 C 
ATOM      3  C   UNL     1     -12.687 -46.438  29.154  1.00  0.00     0.262 C 
ATOM      4  N   UNL     1     -11.648 -45.549  29.801  1.00  0.00    -0.331 N 
ATOM      5  C   UNL     1     -12.583 -46.313  27.637  1.00  0.00     0.065 C 
ATOM      6  C   UNL     1     -11.786 -44.106  29.389  1.00  0.00     0.262 C 
ATOM      7  C   UNL     1     -11.696 -43.987  27.872  1.00  0.00     0.065 C 
ATOM      8  H   UNL     1     -10.730 -45.882  29.482  1.00  0.00     0.348 HD
BRANCH   4   9
ATOM      9  C   UNL     1     -11.637 -45.689  31.311  1.00  0.00     0.299 C 
BRANCH   9  10
ATOM     10  C   UNL     1     -12.313 -44.542  32.013  1.00  0.00     0.006 A 
ATOM     11  C   UNL     1     -11.556 -43.480  32.531  1.00  0.00     0.009 A 
ATOM     12  C   UNL     1     -13.706 -44.529  32.179  1.00  0.00     0.009 A 
ATOM     13  C   UNL     1     -12.181 -42.430  33.206  1.00  0.00     0.001 A 
ATOM     14  C   UNL     1     -14.327 -43.478  32.855  1.00  0.00     0.001 A 
ATOM     15  C   UNL     1     -13.565 -42.431  33.368  1.00  0.00     0.000 A 
ENDBRANCH   9  10
ENDBRANCH   4   9
ENDBRANCH   1   2
BRANCH   1  16
ATOM     16  C   UNL     1     -14.373 -42.988  26.510  1.00  0.00     0.129 C 
BRANCH  16  17
ATOM     17  N   UNL     1     -15.785 -42.716  26.337  1.00  0.00    -0.274 N 
ATOM     18  C   UNL     1     -16.664 -42.494  27.363  1.00  0.00     0.261 C 
ATOM     19  C   UNL     1     -16.422 -42.776  25.126  1.00  0.00     0.261 C 
ATOM     20  C   UNL     1     -17.975 -42.298  26.747  1.00  0.00     0.055 A 
ATOM     21  C   UNL     1     -17.828 -42.467  25.382  1.00  0.00     0.053 A 
ATOM     22  C   UNL     1     -19.201 -42.032  27.327  1.00  0.00     0.040 A 
ATOM     23  C   UNL     1     -18.900 -42.385  24.521  1.00  0.00     0.017 A 
ATOM     24  C   UNL     1     -20.304 -41.889  26.478  1.00  0.00     0.032 A 
ATOM     25  C   UNL     1     -20.151 -42.109  25.088  1.00  0.00     0.026 A 
ATOM     26  O   UNL     1     -16.449 -42.484  28.558  1.00  0.00    -0.269 OA
ATOM     27  O   UNL     1     -15.953 -43.089  24.046  1.00  0.00    -0.269 OA
BRANCH  24  28
ATOM     28  N   UNL     1     -21.586 -41.754  27.018  1.00  0.00    -0.399 N 
ATOM     29  H   UNL     1     -21.641 -41.171  27.849  1.00  0.00     0.156 HD
ATOM     30  H   UNL     1     -22.095 -42.626  27.133  1.00  0.00     0.156 HD
ENDBRANCH  24  28
ENDBRANCH  16  17
ENDBRANCH   1  16
TORSDOF 6
ENDMDL
MODEL 5
REMARK VINA RESULT:   -10.416      2.215      9.983
REMARK INTER + INTRA:         -14.366
REMARK INTER:                 -14.025
REMARK INTRA:                  -0.341
REMARK UNBOUND:                -0.602
REMARK SMILES Nc1ccc2c(c1)C(=O)N(CC[C@H]1CC[N@@H+](Cc3ccccc3)CC1)C2=O
REMARK SMILES IDX 12 1 13 2 15 3 16 4 14 5 24 6 25 7 17 9 18 10 19 11 23 12
REMARK SMILES IDX 20 13 22 14 21 15 11 16 10 17 8 18 26 19 6 20 5 21 7 22 4 23
REMARK SMILES IDX 2 24 3 25 9 26 27 27 1 28
REMARK H PARENT 16 8 1 29 1 30
ROOT
ATOM      1  C   UNL     1     -13.923 -44.456  26.712  1.00  0.00     0.026 C 
ENDROOT
BRANCH   1   2
ATOM      2  C   UNL     1     -13.942 -43.088  25.995  1.00  0.00     0.002 C 
ATOM      3  C   UNL     1     -16.428 -42.528  26.239  1.00  0.00     0.262 C 
ATOM      4  N   UNL     1     -16.585 -42.672  24.742  1.00  0.00    -0.331 N 
ATOM      5  C   UNL     1     -14.994 -42.117  26.559  1.00  0.00     0.065 C 
ATOM      6  C   UNL     1     -15.618 -43.667  24.153  1.00  0.00     0.262 C 
ATOM      7  C   UNL     1     -14.186 -43.260  24.487  1.00  0.00     0.065 C 
ATOM      8  H   UNL     1     -16.381 -41.752  24.331  1.00  0.00     0.348 HD
BRANCH   4   9
ATOM      9  C   UNL     1     -18.012 -42.995  24.345  1.00  0.00     0.299 C 
BRANCH   9  10
ATOM     10  C   UNL     1     -18.665 -41.897  23.549  1.00  0.00     0.006 A 
ATOM     11  C   UNL     1     -17.994 -41.311  22.464  1.00  0.00     0.009 A 
ATOM     12  C   UNL     1     -19.941 -41.429  23.894  1.00  0.00     0.009 A 
ATOM     13  C   UNL     1     -18.589 -40.274  21.743  1.00  0.00     0.001 A 
ATOM     14  C   UNL     1     -20.532 -40.391  23.171  1.00  0.00     0.001 A 
ATOM     15  C   UNL     1     -19.855 -39.815  22.098  1.00  0.00     0.000 A 
ENDBRANCH   9  10
ENDBRANCH   4   9
ENDBRANCH   1   2
BRANCH   1  16
ATOM     16  C   UNL     1     -14.099 -44.356  28.235  1.00  0.00     0.129 C 
BRANCH  16  17
ATOM     17  N   UNL     1     -12.849 -44.597  28.926  1.00  0.00    -0.274 N 
ATOM     18  C   UNL     1     -11.710 -43.860  28.747  1.00  0.00     0.261 C 
ATOM     19  C   UNL     1     -12.636 -45.672  29.746  1.00  0.00     0.261 C 
ATOM     20  C   UNL     1     -10.691 -44.461  29.606  1.00  0.00     0.055 A 
ATOM     21  C   UNL     1     -11.256 -45.566  30.218  1.00  0.00     0.053 A 
ATOM     22  C   UNL     1      -9.373 -44.102  29.811  1.00  0.00     0.040 A 
ATOM     23  C   UNL     1     -10.532 -46.376  31.066  1.00  0.00     0.017 A 
ATOM     24  C   UNL     1      -8.621 -44.870  30.708  1.00  0.00     0.032 A 
ATOM     25  C   UNL     1      -9.196 -46.024  31.293  1.00  0.00     0.026 A 
ATOM     26  O   UNL     1     -11.527 -42.911  28.012  1.00  0.00    -0.269 OA
ATOM     27  O   UNL     1     -13.399 -46.589  29.997  1.00  0.00    -0.269 OA
BRANCH  24  28
ATOM     28  N   UNL     1      -7.252 -44.633  30.849  1.00  0.00    -0.399 N 
ATOM     29  H   UNL     1      -6.731 -44.602  29.977  1.00  0.00     0.156 HD
ATOM     30  H   UNL     1      -6.788 -45.209  31.546  1.00  0.00     0.156 HD
ENDBRANCH  24  28
ENDBRANCH  16  17
ENDBRANCH   1  16
TORSDOF 6
ENDMDL
MODEL 6
REMARK VINA RESULT:   -10.244      2.788      9.572
REMARK INTER + INTRA:         -14.140
REMARK INTER:                 -13.782
REMARK INTRA:                  -0.358
REMARK UNBOUND:                -0.602
REMARK SMILES Nc1ccc2c(c1)C(=O)N(CC[C@H]1CC[N@@H+](Cc3ccccc3)CC1)C2=O
REMARK SMILES IDX 12 1 13 2 15 3 16 4 14 5 24 6 25 7 17 9 18 10 19 11 23 12
REMARK SMILES IDX 20 13 22 14 21 15 11 16 10 17 8 18 26 19 6 20 5 21 7 22 4 23
REMARK SMILES IDX 2 24 3 25 9 26 27 27 1 28
REMARK H PARENT 16 8 1 29 1 30
ROOT
ATOM      1  C   UNL     1     -11.293 -45.658  29.029  1.00  0.00     0.026 C 
ENDROOT
BRANCH   1   2
ATOM      2  C   UNL     1     -12.647 -46.257  28.589  1.00  0.00     0.002 C 
ATOM      3  C   UNL     1     -13.066 -44.840  26.499  1.00  0.00     0.262 C 
ATOM      4  N   UNL     1     -14.234 -44.185  27.204  1.00  0.00    -0.331 N 
ATOM      5  C   UNL     1     -12.857 -46.240  27.065  1.00  0.00     0.065 C 
ATOM      6  C   UNL     1     -14.041 -44.117  28.697  1.00  0.00     0.262 C 
ATOM      7  C   UNL     1     -13.818 -45.517  29.257  1.00  0.00     0.065 C 
ATOM      8  H   UNL     1     -15.059 -44.768  27.018  1.00  0.00     0.348 HD
BRANCH   4   9
ATOM      9  C   UNL     1     -14.554 -42.819  26.629  1.00  0.00     0.299 C 
BRANCH   9  10
ATOM     10  C   UNL     1     -15.681 -42.850  25.632  1.00  0.00     0.006 A 
ATOM     11  C   UNL     1     -15.413 -42.991  24.262  1.00  0.00     0.009 A 
ATOM     12  C   UNL     1     -17.011 -42.716  26.056  1.00  0.00     0.009 A 
ATOM     13  C   UNL     1     -16.458 -42.992  23.335  1.00  0.00     0.001 A 
ATOM     14  C   UNL     1     -18.052 -42.717  25.126  1.00  0.00     0.001 A 
ATOM     15  C   UNL     1     -17.774 -42.854  23.767  1.00  0.00     0.000 A 
ENDBRANCH   9  10
ENDBRANCH   4   9
ENDBRANCH   1   2
BRANCH   1  16
ATOM     16  C   UNL     1     -10.774 -46.219  30.362  1.00  0.00     0.129 C 
BRANCH  16  17
ATOM     17  N   UNL     1     -10.527 -45.159  31.318  1.00  0.00    -0.274 N 
ATOM     18  C   UNL     1      -9.294 -44.837  31.815  1.00  0.00     0.261 C 
ATOM     19  C   UNL     1     -11.524 -44.443  31.925  1.00  0.00     0.261 C 
ATOM     20  C   UNL     1      -9.505 -43.744  32.763  1.00  0.00     0.055 A 
ATOM     21  C   UNL     1     -10.865 -43.501  32.829  1.00  0.00     0.053 A 
ATOM     22  C   UNL     1      -8.596 -43.043  33.533  1.00  0.00     0.040 A 
ATOM     23  C   UNL     1     -11.393 -42.548  33.672  1.00  0.00     0.017 A 
ATOM     24  C   UNL     1      -9.090 -42.030  34.362  1.00  0.00     0.032 A 
ATOM     25  C   UNL     1     -10.487 -41.821  34.455  1.00  0.00     0.026 A 
ATOM     26  O   UNL     1      -8.219 -45.346  31.572  1.00  0.00    -0.269 OA
ATOM     27  O   UNL     1     -12.729 -44.586  31.808  1.00  0.00    -0.269 OA
BRANCH  24  28
ATOM     28  N   UNL     1      -8.235 -41.384  35.258  1.00  0.00    -0.399 N 
ATOM     29  H   UNL     1      -8.176 -40.376  35.142  1.00  0.00     0.156 HD
ATOM     30  H   UNL     1      -7.316 -41.808  35.353  1.00  0.00     0.156 HD
ENDBRANCH  24  28
ENDBRANCH  16  17
ENDBRANCH   1  16
TORSDOF 6
ENDMDL
MODEL 7
REMARK VINA RESULT:   -10.177      2.767      9.738
REMARK INTER + INTRA:         -14.052
REMARK INTER:                 -13.720
REMARK INTRA:                  -0.332
REMARK UNBOUND:                -0.602
REMARK SMILES Nc1ccc2c(c1)C(=O)N(CC[C@H]1CC[N@@H+](Cc3ccccc3)CC1)C2=O
REMARK SMILES IDX 12 1 13 2 15 3 16 4 14 5 24 6 25 7 17 9 18 10 19 11 23 12
REMARK SMILES IDX 20 13 22 14 21 15 11 16 10 17 8 18 26 19 6 20 5 21 7 22 4 23
REMARK SMILES IDX 2 24 3 25 9 26 27 27 1 28
REMARK H PARENT 16 8 1 29 1 30
ROOT
ATOM      1  C   UNL     1     -11.276 -45.652  28.703  1.00  0.00     0.026 C 
ENDROOT
BRANCH   1   2
ATOM      2  C   UNL     1     -12.673 -46.261  28.456  1.00  0.00     0.002 C 
ATOM      3  C   UNL     1     -13.364 -44.892  26.406  1.00  0.00     0.262 C 
ATOM      4  N   UNL     1     -14.432 -44.221  27.241  1.00  0.00    -0.331 N 
ATOM      5  C   UNL     1     -13.078 -46.279  26.972  1.00  0.00     0.065 C 
ATOM      6  C   UNL     1     -14.048 -44.118  28.695  1.00  0.00     0.262 C 
ATOM      7  C   UNL     1     -13.750 -45.506  29.253  1.00  0.00     0.065 C 
ATOM      8  H   UNL     1     -15.273 -44.808  27.177  1.00  0.00     0.348 HD
BRANCH   4   9
ATOM      9  C   UNL     1     -14.828 -42.868  26.682  1.00  0.00     0.299 C 
BRANCH   9  10
ATOM     10  C   UNL     1     -16.319 -42.685  26.588  1.00  0.00     0.006 A 
ATOM     11  C   UNL     1     -17.086 -42.490  27.748  1.00  0.00     0.009 A 
ATOM     12  C   UNL     1     -16.966 -42.728  25.344  1.00  0.00     0.009 A 
ATOM     13  C   UNL     1     -18.472 -42.346  27.662  1.00  0.00     0.001 A 
ATOM     14  C   UNL     1     -18.352 -42.585  25.263  1.00  0.00     0.001 A 
ATOM     15  C   UNL     1     -19.103 -42.396  26.421  1.00  0.00     0.000 A 
ENDBRANCH   9  10
ENDBRANCH   4   9
ENDBRANCH   1   2
BRANCH   1  16
ATOM     16  C   UNL     1     -10.440 -46.424  29.736  1.00  0.00     0.129 C 
BRANCH  16  17
ATOM     17  N   UNL     1      -9.911 -45.539  30.753  1.00  0.00    -0.274 N 
ATOM     18  C   UNL     1     -10.673 -44.713  31.533  1.00  0.00     0.261 C 
ATOM     19  C   UNL     1      -8.572 -45.342  30.958  1.00  0.00     0.261 C 
ATOM     20  C   UNL     1      -9.742 -43.981  32.390  1.00  0.00     0.055 A 
ATOM     21  C   UNL     1      -8.459 -44.366  32.042  1.00  0.00     0.053 A 
ATOM     22  C   UNL     1      -9.984 -43.033  33.365  1.00  0.00     0.040 A 
ATOM     23  C   UNL     1      -7.348 -43.820  32.646  1.00  0.00     0.017 A 
ATOM     24  C   UNL     1      -8.882 -42.495  34.038  1.00  0.00     0.032 A 
ATOM     25  C   UNL     1      -7.573 -42.862  33.643  1.00  0.00     0.026 A 
ATOM     26  O   UNL     1     -11.878 -44.561  31.529  1.00  0.00    -0.269 OA
ATOM     27  O   UNL     1      -7.638 -45.815  30.334  1.00  0.00    -0.269 OA
BRANCH  24  28
ATOM     28  N   UNL     1      -9.060 -41.439  34.935  1.00  0.00    -0.399 N 
ATOM     29  H   UNL     1      -8.323 -40.740  34.927  1.00  0.00     0.156 HD
ATOM     30  H   UNL     1      -9.305 -41.718  35.882  1.00  0.00     0.156 HD
ENDBRANCH  24  28
ENDBRANCH  16  17
ENDBRANCH   1  16
TORSDOF 6
ENDMDL
MODEL 8
REMARK VINA RESULT:    -9.799      2.719      4.898
REMARK INTER + INTRA:         -13.551
REMARK INTER:                 -13.130
REMARK INTRA:                  -0.421
REMARK UNBOUND:                -0.602
REMARK SMILES Nc1ccc2c(c1)C(=O)N(CC[C@H]1CC[N@@H+](Cc3ccccc3)CC1)C2=O
REMARK SMILES IDX 12 1 13 2 15 3 16 4 14 5 24 6 25 7 17 9 18 10 19 11 23 12
REMARK SMILES IDX 20 13 22 14 21 15 11 16 10 17 8 18 26 19 6 20 5 21 7 22 4 23
REMARK SMILES IDX 2 24 3 25 9 26 27 27 1 28
REMARK H PARENT 16 8 1 29 1 30
ROOT
ATOM      1  C   UNL     1     -16.756 -42.842  25.066  1.00  0.00     0.026 C 
ENDROOT
BRANCH   1   2
ATOM      2  C   UNL     1     -15.304 -42.394  25.341  1.00  0.00     0.002 C 
ATOM      3  C   UNL     1     -14.110 -44.634  25.012  1.00  0.00     0.262 C 
ATOM      4  N   UNL     1     -13.780 -44.650  26.488  1.00  0.00    -0.331 N 
ATOM      5  C   UNL     1     -14.257 -43.190  24.544  1.00  0.00     0.065 C 
ATOM      6  C   UNL     1     -14.817 -43.938  27.319  1.00  0.00     0.262 C 
ATOM      7  C   UNL     1     -14.971 -42.499  26.838  1.00  0.00     0.065 C 
ATOM      8  H   UNL     1     -12.889 -44.150  26.600  1.00  0.00     0.348 HD
BRANCH   4   9
ATOM      9  C   UNL     1     -13.534 -46.054  27.004  1.00  0.00     0.299 C 
BRANCH   9  10
ATOM     10  C   UNL     1     -12.590 -46.094  28.176  1.00  0.00     0.006 A 
ATOM     11  C   UNL     1     -11.213 -46.270  27.973  1.00  0.00     0.009 A 
ATOM     12  C   UNL     1     -13.076 -45.978  29.486  1.00  0.00     0.009 A 
ATOM     13  C   UNL     1     -10.341 -46.333  29.061  1.00  0.00     0.001 A 
ATOM     14  C   UNL     1     -12.201 -46.043  30.572  1.00  0.00     0.001 A 
ATOM     15  C   UNL     1     -10.836 -46.221  30.358  1.00  0.00     0.000 A 
ENDBRANCH   9  10
ENDBRANCH   4   9
ENDBRANCH   1   2
BRANCH   1  16
ATOM     16  C   UNL     1     -17.110 -42.902  23.571  1.00  0.00     0.129 C 
BRANCH  16  17
ATOM     17  N   UNL     1     -18.201 -42.004  23.253  1.00  0.00    -0.274 N 
ATOM     18  C   UNL     1     -19.475 -42.130  23.738  1.00  0.00     0.261 C 
ATOM     19  C   UNL     1     -18.106 -40.999  22.328  1.00  0.00     0.261 C 
ATOM     20  C   UNL     1     -20.252 -41.044  23.142  1.00  0.00     0.055 A 
ATOM     21  C   UNL     1     -19.416 -40.352  22.283  1.00  0.00     0.053 A 
ATOM     22  C   UNL     1     -21.582 -40.707  23.302  1.00  0.00     0.040 A 
ATOM     23  C   UNL     1     -19.866 -39.287  21.533  1.00  0.00     0.017 A 
ATOM     24  C   UNL     1     -22.062 -39.598  22.597  1.00  0.00     0.032 A 
ATOM     25  C   UNL     1     -21.211 -38.925  21.687  1.00  0.00     0.026 A 
ATOM     26  O   UNL     1     -19.923 -42.973  24.489  1.00  0.00    -0.269 OA
ATOM     27  O   UNL     1     -17.155 -40.719  21.618  1.00  0.00    -0.269 OA
BRANCH  24  28
ATOM     28  N   UNL     1     -23.425 -39.295  22.618  1.00  0.00    -0.399 N 
ATOM     29  H   UNL     1     -23.893 -39.366  21.719  1.00  0.00     0.156 HD
ATOM     30  H   UNL     1     -23.665 -38.435  23.103  1.00  0.00     0.156 HD
ENDBRANCH  24  28
ENDBRANCH  16  17
ENDBRANCH   1  16
TORSDOF 6
ENDMDL
MODEL 9
REMARK VINA RESULT:    -9.733      2.653      4.600
REMARK INTER + INTRA:         -13.464
REMARK INTER:                 -13.037
REMARK INTRA:                  -0.427
REMARK UNBOUND:                -0.602
REMARK SMILES Nc1ccc2c(c1)C(=O)N(CC[C@H]1CC[N@@H+](Cc3ccccc3)CC1)C2=O
REMARK SMILES IDX 12 1 13 2 15 3 16 4 14 5 24 6 25 7 17 9 18 10 19 11 23 12
REMARK SMILES IDX 20 13 22 14 21 15 11 16 10 17 8 18 26 19 6 20 5 21 7 22 4 23
REMARK SMILES IDX 2 24 3 25 9 26 27 27 1 28
REMARK H PARENT 16 8 1 29 1 30
ROOT
ATOM      1  C   UNL     1     -16.632 -42.783  25.246  1.00  0.00     0.026 C 
ENDROOT
BRANCH   1   2
ATOM      2  C   UNL     1     -15.131 -42.437  25.359  1.00  0.00     0.002 C 
ATOM      3  C   UNL     1     -14.143 -44.778  25.046  1.00  0.00     0.262 C 
ATOM      4  N   UNL     1     -13.673 -44.748  26.484  1.00  0.00    -0.331 N 
ATOM      5  C   UNL     1     -14.228 -43.351  24.514  1.00  0.00     0.065 C 
ATOM      6  C   UNL     1     -14.569 -43.918  27.366  1.00  0.00     0.262 C 
ATOM      7  C   UNL     1     -14.662 -42.496  26.823  1.00  0.00     0.065 C 
ATOM      8  H   UNL     1     -12.741 -44.315  26.483  1.00  0.00     0.348 HD
BRANCH   4   9
ATOM      9  C   UNL     1     -13.483 -46.141  27.052  1.00  0.00     0.299 C 
BRANCH   9  10
ATOM     10  C   UNL     1     -12.544 -46.173  28.228  1.00  0.00     0.006 A 
ATOM     11  C   UNL     1     -13.043 -46.102  29.538  1.00  0.00     0.009 A 
ATOM     12  C   UNL     1     -11.157 -46.252  28.031  1.00  0.00     0.009 A 
ATOM     13  C   UNL     1     -12.170 -46.105  30.627  1.00  0.00     0.001 A 
ATOM     14  C   UNL     1     -10.288 -46.253  29.123  1.00  0.00     0.001 A 
ATOM     15  C   UNL     1     -10.795 -46.179  30.419  1.00  0.00     0.000 A 
ENDBRANCH   9  10
ENDBRANCH   4   9
ENDBRANCH   1   2
BRANCH   1  16
ATOM     16  C   UNL     1     -17.071 -43.166  23.823  1.00  0.00     0.129 C 
BRANCH  16  17
ATOM     17  N   UNL     1     -18.102 -42.275  23.333  1.00  0.00    -0.274 N 
ATOM     18  C   UNL     1     -17.896 -41.282  22.414  1.00  0.00     0.261 C 
ATOM     19  C   UNL     1     -19.376 -42.249  23.833  1.00  0.00     0.261 C 
ATOM     20  C   UNL     1     -19.184 -40.614  22.234  1.00  0.00     0.055 A 
ATOM     21  C   UNL     1     -20.088 -41.205  23.098  1.00  0.00     0.053 A 
ATOM     22  C   UNL     1     -19.533 -39.557  21.416  1.00  0.00     0.040 A 
ATOM     23  C   UNL     1     -21.391 -40.767  23.196  1.00  0.00     0.017 A 
ATOM     24  C   UNL     1     -20.862 -39.120  21.449  1.00  0.00     0.032 A 
ATOM     25  C   UNL     1     -21.767 -39.701  22.369  1.00  0.00     0.026 A 
ATOM     26  O   UNL     1     -16.865 -40.965  21.857  1.00  0.00    -0.269 OA
ATOM     27  O   UNL     1     -19.836 -42.903  24.754  1.00  0.00    -0.269 OA
BRANCH  24  28
ATOM     28  N   UNL     1     -21.236 -37.972  20.745  1.00  0.00    -0.399 N 
ATOM     29  H   UNL     1     -20.574 -37.672  20.034  1.00  0.00     0.156 HD
ATOM     30  H   UNL     1     -21.546 -37.197  21.324  1.00  0.00     0.156 HD
ENDBRANCH  24  28
ENDBRANCH  16  17
ENDBRANCH   1  16
TORSDOF 6
ENDMDL
