MODEL 1
REMARK VINA RESULT:   -12.115      0.000      0.000
REMARK INTER + INTRA:         -16.390
REMARK INTER:                 -16.011
REMARK INTRA:                  -0.379
REMARK UNBOUND:                -0.379
REMARK SMILES O=C1C(=NCCN=c2c3c([nH]c4cc(Cl)ccc24)CCCC3)CC(=O)c2c(O)cccc21
REMARK SMILES IDX 5 1 6 2 7 3 8 4 11 5 10 6 12 7 9 8 19 9 13 10 18 11 22 12
REMARK SMILES IDX 20 13 14 14 17 15 21 16 16 17 15 19 4 20 3 21 23 22 2 23
REMARK SMILES IDX 24 24 32 25 26 26 31 27 27 28 30 29 29 30 1 31 25 32 28 33
REMARK H PARENT 11 18 28 34
ROOT
ATOM      1  C   UNL     1     -12.029 -44.259  28.252  1.00  0.00     0.166 C 
ENDROOT
BRANCH   1   2
ATOM      2  C   UNL     1     -12.846 -45.486  28.699  1.00  0.00     0.166 C 
BRANCH   2   3
ATOM      3  N   UNL     1     -13.162 -45.367  30.113  1.00  0.00    -0.282 NA
BRANCH   3   4
ATOM      4  C   UNL     1     -12.371 -44.933  31.036  1.00  0.00     0.072 A 
ATOM      5  N   UNL     1     -10.770 -43.206  32.587  1.00  0.00    -0.358 N 
ATOM      6  C   UNL     1     -12.144 -43.143  32.703  1.00  0.00     0.021 A 
ATOM      7  C   UNL     1     -10.157 -44.327  32.004  1.00  0.00     0.049 A 
ATOM      8  C   UNL     1     -12.970 -43.955  32.016  1.00  0.00    -0.003 A 
ATOM      9  C   UNL     1     -12.688 -42.088  33.644  1.00  0.00     0.054 C 
ATOM     10  C   UNL     1      -8.777 -44.525  32.161  1.00  0.00     0.047 A 
ATOM     11  C   UNL     1     -10.916 -45.241  31.244  1.00  0.00     0.024 A 
ATOM     12  C   UNL     1     -14.471 -43.911  32.122  1.00  0.00     0.039 C 
ATOM     13  C   UNL     1     -14.181 -41.810  33.468  1.00  0.00     0.007 C 
ATOM     14  C   UNL     1      -8.173 -45.664  31.638  1.00  0.00     0.043 A 
ATOM     15  C   UNL     1     -10.301 -46.408  30.775  1.00  0.00     0.014 A 
ATOM     16  C   UNL     1     -14.964 -43.109  33.327  1.00  0.00     0.005 C 
ATOM     17  C   UNL     1      -8.931 -46.616  30.963  1.00  0.00     0.021 A 
ATOM     18  H   UNL     1     -10.232 -42.689  33.273  1.00  0.00     0.166 HD
ATOM     19  Cl  UNL     1      -6.484 -45.914  31.855  1.00  0.00    -0.084 Cl
ENDBRANCH   3   4
ENDBRANCH   2   3
ENDBRANCH   1   2
BRANCH   1  20
ATOM     20  N   UNL     1     -12.925 -43.248  27.680  1.00  0.00    -0.283 NA
BRANCH  20  21
ATOM     21  C   UNL     1     -14.013 -43.623  27.099  1.00  0.00     0.091 C 
ATOM     22  C   UNL     1     -13.940 -44.344  25.791  1.00  0.00     0.141 C 
ATOM     23  C   UNL     1     -15.417 -43.377  27.603  1.00  0.00     0.208 C 
ATOM     24  C   UNL     1     -14.925 -43.848  24.772  1.00  0.00     0.173 C 
ATOM     25  C   UNL     1     -16.414 -42.984  26.592  1.00  0.00     0.038 A 
ATOM     26  C   UNL     1     -16.166 -43.178  25.231  1.00  0.00     0.071 A 
ATOM     27  C   UNL     1     -17.617 -42.405  27.022  1.00  0.00     0.013 A 
ATOM     28  C   UNL     1     -17.133 -42.767  24.303  1.00  0.00     0.127 A 
ATOM     29  C   UNL     1     -18.569 -42.002  26.087  1.00  0.00     0.005 A 
ATOM     30  C   UNL     1     -18.324 -42.179  24.726  1.00  0.00     0.047 A 
ATOM     31  O   UNL     1     -15.704 -43.494  28.782  1.00  0.00    -0.287 OA
ATOM     32  O   UNL     1     -14.760 -44.034  23.566  1.00  0.00    -0.294 OA
BRANCH  28  33
ATOM     33  O   UNL     1     -16.987 -42.915  22.949  1.00  0.00    -0.507 OA
ATOM     34  H   UNL     1     -17.190 -43.848  22.710  1.00  0.00     0.293 HD
ENDBRANCH  28  33
ENDBRANCH  20  21
ENDBRANCH   1  20
TORSDOF 6
ENDMDL
MODEL 2
REMARK VINA RESULT:   -12.115      4.213      9.551
REMARK INTER + INTRA:         -16.390
REMARK INTER:                 -15.841
REMARK INTRA:                  -0.549
REMARK UNBOUND:                -0.379
REMARK SMILES O=C1C(=NCCN=c2c3c([nH]c4cc(Cl)ccc24)CCCC3)CC(=O)c2c(O)cccc21
REMARK SMILES IDX 5 1 6 2 7 3 8 4 11 5 10 6 12 7 9 8 19 9 13 10 18 11 22 12
REMARK SMILES IDX 20 13 14 14 17 15 21 16 16 17 15 19 4 20 3 21 23 22 2 23
REMARK SMILES IDX 24 24 32 25 26 26 31 27 27 28 30 29 29 30 1 31 25 32 28 33
REMARK H PARENT 11 18 28 34
ROOT
ATOM      1  C   UNL     1     -15.968 -42.832  30.563  1.00  0.00     0.166 C 
ENDROOT
BRANCH   1   2
ATOM      2  C   UNL     1     -17.123 -42.797  29.545  1.00  0.00     0.166 C 
BRANCH   2   3
ATOM      3  N   UNL     1     -16.668 -42.162  28.319  1.00  0.00    -0.282 NA
BRANCH   3   4
ATOM      4  C   UNL     1     -17.128 -42.378  27.133  1.00  0.00     0.072 A 
ATOM      5  N   UNL     1     -17.507 -42.212  24.344  1.00  0.00    -0.358 N 
ATOM      6  C   UNL     1     -16.405 -42.879  24.839  1.00  0.00     0.021 A 
ATOM      7  C   UNL     1     -18.606 -41.938  25.175  1.00  0.00     0.049 A 
ATOM      8  C   UNL     1     -16.175 -43.023  26.158  1.00  0.00    -0.003 A 
ATOM      9  C   UNL     1     -15.443 -43.438  23.811  1.00  0.00     0.054 C 
ATOM     10  C   UNL     1     -19.825 -41.542  24.608  1.00  0.00     0.047 A 
ATOM     11  C   UNL     1     -18.481 -42.036  26.576  1.00  0.00     0.024 A 
ATOM     12  C   UNL     1     -14.983 -43.745  26.729  1.00  0.00     0.039 C 
ATOM     13  C   UNL     1     -14.082 -43.835  24.386  1.00  0.00     0.007 C 
ATOM     14  C   UNL     1     -20.934 -41.326  25.420  1.00  0.00     0.043 A 
ATOM     15  C   UNL     1     -19.622 -41.869  27.371  1.00  0.00     0.014 A 
ATOM     16  C   UNL     1     -14.246 -44.597  25.695  1.00  0.00     0.005 C 
ATOM     17  C   UNL     1     -20.843 -41.507  26.797  1.00  0.00     0.021 A 
ATOM     18  H   UNL     1     -17.692 -42.315  23.352  1.00  0.00     0.166 HD
ATOM     19  Cl  UNL     1     -22.435 -40.865  24.715  1.00  0.00    -0.084 Cl
ENDBRANCH   3   4
ENDBRANCH   2   3
ENDBRANCH   1   2
BRANCH   1  20
ATOM     20  N   UNL     1     -15.069 -43.951  30.256  1.00  0.00    -0.283 NA
BRANCH  20  21
ATOM     21  C   UNL     1     -14.160 -44.283  31.107  1.00  0.00     0.091 C 
ATOM     22  C   UNL     1     -13.923 -43.422  32.306  1.00  0.00     0.141 C 
ATOM     23  C   UNL     1     -13.249 -45.484  31.007  1.00  0.00     0.208 C 
ATOM     24  C   UNL     1     -12.471 -43.167  32.590  1.00  0.00     0.173 C 
ATOM     25  C   UNL     1     -11.840 -45.268  31.377  1.00  0.00     0.038 A 
ATOM     26  C   UNL     1     -11.458 -44.140  32.108  1.00  0.00     0.071 A 
ATOM     27  C   UNL     1     -10.884 -46.214  30.978  1.00  0.00     0.013 A 
ATOM     28  C   UNL     1     -10.103 -43.961  32.417  1.00  0.00     0.127 A 
ATOM     29  C   UNL     1      -9.540 -46.023  31.293  1.00  0.00     0.005 A 
ATOM     30  C   UNL     1      -9.149 -44.893  32.010  1.00  0.00     0.047 A 
ATOM     31  O   UNL     1     -13.659 -46.571  30.635  1.00  0.00    -0.287 OA
ATOM     32  O   UNL     1     -12.099 -42.205  33.262  1.00  0.00    -0.294 OA
BRANCH  28  33
ATOM     33  O   UNL     1      -9.628 -42.892  33.130  1.00  0.00    -0.507 OA
ATOM     34  H   UNL     1      -9.106 -43.228  33.894  1.00  0.00     0.293 HD
ENDBRANCH  28  33
ENDBRANCH  20  21
ENDBRANCH   1  20
TORSDOF 6
ENDMDL
MODEL 3
REMARK VINA RESULT:   -11.847      1.082      2.039
REMARK INTER + INTRA:         -16.035
REMARK INTER:                 -15.515
REMARK INTRA:                  -0.521
REMARK UNBOUND:                -0.379
REMARK SMILES O=C1C(=NCCN=c2c3c([nH]c4cc(Cl)ccc24)CCCC3)CC(=O)c2c(O)cccc21
REMARK SMILES IDX 5 1 6 2 7 3 8 4 11 5 10 6 12 7 9 8 19 9 13 10 18 11 22 12
REMARK SMILES IDX 20 13 14 14 17 15 21 16 16 17 15 19 4 20 3 21 23 22 2 23
REMARK SMILES IDX 24 24 32 25 26 26 31 27 27 28 30 29 29 30 1 31 25 32 28 33
REMARK H PARENT 11 18 28 34
ROOT
ATOM      1  C   UNL     1     -12.875 -44.709  28.108  1.00  0.00     0.166 C 
ENDROOT
BRANCH   1   2
ATOM      2  C   UNL     1     -12.961 -45.966  28.994  1.00  0.00     0.166 C 
BRANCH   2   3
ATOM      3  N   UNL     1     -13.286 -45.576  30.356  1.00  0.00    -0.282 NA
BRANCH   3   4
ATOM      4  C   UNL     1     -12.473 -45.059  31.215  1.00  0.00     0.072 A 
ATOM      5  N   UNL     1     -10.870 -43.186  32.583  1.00  0.00    -0.358 N 
ATOM      6  C   UNL     1     -12.239 -43.159  32.755  1.00  0.00     0.021 A 
ATOM      7  C   UNL     1     -10.243 -44.322  32.046  1.00  0.00     0.049 A 
ATOM      8  C   UNL     1     -13.064 -44.040  32.157  1.00  0.00    -0.003 A 
ATOM      9  C   UNL     1     -12.779 -42.065  33.651  1.00  0.00     0.054 C 
ATOM     10  C   UNL     1      -8.852 -44.466  32.153  1.00  0.00     0.047 A 
ATOM     11  C   UNL     1     -11.001 -45.306  31.378  1.00  0.00     0.024 A 
ATOM     12  C   UNL     1     -14.560 -44.037  32.326  1.00  0.00     0.039 C 
ATOM     13  C   UNL     1     -14.288 -41.846  33.524  1.00  0.00     0.007 C 
ATOM     14  C   UNL     1      -8.231 -45.616  31.677  1.00  0.00     0.043 A 
ATOM     15  C   UNL     1     -10.365 -46.481  30.955  1.00  0.00     0.014 A 
ATOM     16  C   UNL     1     -15.030 -43.177  33.499  1.00  0.00     0.005 C 
ATOM     17  C   UNL     1      -8.983 -46.632  31.096  1.00  0.00     0.021 A 
ATOM     18  H   UNL     1     -10.322 -42.610  33.211  1.00  0.00     0.166 HD
ATOM     19  Cl  UNL     1      -6.527 -45.797  31.835  1.00  0.00    -0.084 Cl
ENDBRANCH   3   4
ENDBRANCH   2   3
ENDBRANCH   1   2
BRANCH   1  20
ATOM     20  N   UNL     1     -13.794 -44.838  26.971  1.00  0.00    -0.283 NA
BRANCH  20  21
ATOM     21  C   UNL     1     -14.510 -43.826  26.620  1.00  0.00     0.091 C 
ATOM     22  C   UNL     1     -15.258 -43.055  27.660  1.00  0.00     0.141 C 
ATOM     23  C   UNL     1     -14.708 -43.329  25.206  1.00  0.00     0.208 C 
ATOM     24  C   UNL     1     -16.672 -42.731  27.272  1.00  0.00     0.173 C 
ATOM     25  C   UNL     1     -16.075 -42.916  24.845  1.00  0.00     0.038 A 
ATOM     26  C   UNL     1     -17.029 -42.661  25.833  1.00  0.00     0.071 A 
ATOM     27  C   UNL     1     -16.405 -42.788  23.487  1.00  0.00     0.013 A 
ATOM     28  C   UNL     1     -18.325 -42.294  25.443  1.00  0.00     0.127 A 
ATOM     29  C   UNL     1     -17.697 -42.422  23.116  1.00  0.00     0.005 A 
ATOM     30  C   UNL     1     -18.659 -42.179  24.095  1.00  0.00     0.047 A 
ATOM     31  O   UNL     1     -13.787 -43.277  24.409  1.00  0.00    -0.287 OA
ATOM     32  O   UNL     1     -17.531 -42.464  28.112  1.00  0.00    -0.294 OA
BRANCH  28  33
ATOM     33  O   UNL     1     -19.329 -42.021  26.334  1.00  0.00    -0.507 OA
ATOM     34  H   UNL     1     -19.878 -42.830  26.450  1.00  0.00     0.293 HD
ENDBRANCH  28  33
ENDBRANCH  20  21
ENDBRANCH   1  20
TORSDOF 6
ENDMDL
MODEL 4
REMARK VINA RESULT:   -11.740      4.422      9.288
REMARK INTER + INTRA:         -15.894
REMARK INTER:                 -16.270
REMARK INTRA:                   0.376
REMARK UNBOUND:                -0.379
REMARK SMILES O=C1C(=NCCN=c2c3c([nH]c4cc(Cl)ccc24)CCCC3)CC(=O)c2c(O)cccc21
REMARK SMILES IDX 5 1 6 2 7 3 8 4 11 5 10 6 12 7 9 8 19 9 13 10 18 11 22 12
REMARK SMILES IDX 20 13 14 14 17 15 21 16 16 17 15 19 4 20 3 21 23 22 2 23
REMARK SMILES IDX 24 24 32 25 26 26 31 27 27 28 30 29 29 30 1 31 25 32 28 33
REMARK H PARENT 11 18 28 34
ROOT
ATOM      1  C   UNL     1     -13.411 -43.455  26.742  1.00  0.00     0.166 C 
ENDROOT
BRANCH   1   2
ATOM      2  C   UNL     1     -13.928 -42.936  25.387  1.00  0.00     0.166 C 
BRANCH   2   3
ATOM      3  N   UNL     1     -15.272 -43.441  25.157  1.00  0.00    -0.282 NA
BRANCH   3   4
ATOM      4  C   UNL     1     -16.354 -42.738  25.125  1.00  0.00     0.072 A 
ATOM      5  N   UNL     1     -19.084 -42.035  25.182  1.00  0.00    -0.358 N 
ATOM      6  C   UNL     1     -18.439 -42.342  26.363  1.00  0.00     0.021 A 
ATOM      7  C   UNL     1     -18.346 -41.717  24.030  1.00  0.00     0.049 A 
ATOM      8  C   UNL     1     -17.132 -42.659  26.416  1.00  0.00    -0.003 A 
ATOM      9  C   UNL     1     -19.290 -42.321  27.615  1.00  0.00     0.054 C 
ATOM     10  C   UNL     1     -18.987 -41.118  22.937  1.00  0.00     0.047 A 
ATOM     11  C   UNL     1     -16.970 -42.018  23.960  1.00  0.00     0.024 A 
ATOM     12  C   UNL     1     -16.400 -42.997  27.687  1.00  0.00     0.039 C 
ATOM     13  C   UNL     1     -18.643 -43.010  28.818  1.00  0.00     0.007 C 
ATOM     14  C   UNL     1     -18.251 -40.746  21.816  1.00  0.00     0.043 A 
ATOM     15  C   UNL     1     -16.237 -41.585  22.848  1.00  0.00     0.014 A 
ATOM     16  C   UNL     1     -17.177 -42.614  28.947  1.00  0.00     0.005 C 
ATOM     17  C   UNL     1     -16.877 -40.958  21.774  1.00  0.00     0.021 A 
ATOM     18  H   UNL     1     -20.011 -41.633  25.263  1.00  0.00     0.166 HD
ATOM     19  Cl  UNL     1     -19.040 -39.988  20.487  1.00  0.00    -0.084 Cl
ENDBRANCH   3   4
ENDBRANCH   2   3
ENDBRANCH   1   2
BRANCH   1  20
ATOM     20  N   UNL     1     -11.982 -43.148  26.878  1.00  0.00    -0.283 NA
BRANCH  20  21
ATOM     21  C   UNL     1     -11.439 -43.175  28.047  1.00  0.00     0.091 C 
ATOM     22  C   UNL     1     -10.379 -42.178  28.390  1.00  0.00     0.141 C 
ATOM     23  C   UNL     1     -11.750 -44.164  29.146  1.00  0.00     0.208 C 
ATOM     24  C   UNL     1      -9.191 -42.775  29.088  1.00  0.00     0.173 C 
ATOM     25  C   UNL     1     -10.598 -44.682  29.903  1.00  0.00     0.038 A 
ATOM     26  C   UNL     1      -9.360 -44.037  29.850  1.00  0.00     0.071 A 
ATOM     27  C   UNL     1     -10.764 -45.841  30.676  1.00  0.00     0.013 A 
ATOM     28  C   UNL     1      -8.283 -44.579  30.567  1.00  0.00     0.127 A 
ATOM     29  C   UNL     1      -9.685 -46.368  31.383  1.00  0.00     0.005 A 
ATOM     30  C   UNL     1      -8.442 -45.738  31.325  1.00  0.00     0.047 A 
ATOM     31  O   UNL     1     -12.892 -44.515  29.389  1.00  0.00    -0.287 OA
ATOM     32  O   UNL     1      -8.094 -42.217  29.096  1.00  0.00    -0.294 OA
BRANCH  28  33
ATOM     33  O   UNL     1      -7.033 -44.021  30.582  1.00  0.00    -0.507 OA
ATOM     34  H   UNL     1      -6.394 -44.668  30.203  1.00  0.00     0.293 HD
ENDBRANCH  28  33
ENDBRANCH  20  21
ENDBRANCH   1  20
TORSDOF 6
ENDMDL
MODEL 5
REMARK VINA RESULT:   -11.610      4.354      9.281
REMARK INTER + INTRA:         -15.722
REMARK INTER:                 -15.143
REMARK INTRA:                  -0.580
REMARK UNBOUND:                -0.379
REMARK SMILES O=C1C(=NCCN=c2c3c([nH]c4cc(Cl)ccc24)CCCC3)CC(=O)c2c(O)cccc21
REMARK SMILES IDX 5 1 6 2 7 3 8 4 11 5 10 6 12 7 9 8 19 9 13 10 18 11 22 12
REMARK SMILES IDX 20 13 14 14 17 15 21 16 16 17 15 19 4 20 3 21 23 22 2 23
REMARK SMILES IDX 24 24 32 25 26 26 31 27 27 28 30 29 29 30 1 31 25 32 28 33
REMARK H PARENT 11 18 28 34
ROOT
ATOM      1  C   UNL     1     -13.454 -43.238  25.970  1.00  0.00     0.166 C 
ENDROOT
BRANCH   1   2
ATOM      2  C   UNL     1     -14.320 -42.453  24.967  1.00  0.00     0.166 C 
BRANCH   2   3
ATOM      3  N   UNL     1     -15.627 -43.082  24.861  1.00  0.00    -0.282 NA
BRANCH   3   4
ATOM      4  C   UNL     1     -16.764 -42.473  24.815  1.00  0.00     0.072 A 
ATOM      5  N   UNL     1     -19.544 -42.004  24.808  1.00  0.00    -0.358 N 
ATOM      6  C   UNL     1     -18.908 -42.289  25.999  1.00  0.00     0.021 A 
ATOM      7  C   UNL     1     -18.803 -41.591  23.688  1.00  0.00     0.049 A 
ATOM      8  C   UNL     1     -17.580 -42.496  26.083  1.00  0.00    -0.003 A 
ATOM      9  C   UNL     1     -19.793 -42.377  27.225  1.00  0.00     0.054 C 
ATOM     10  C   UNL     1     -19.462 -41.017  22.591  1.00  0.00     0.047 A 
ATOM     11  C   UNL     1     -17.405 -41.773  23.651  1.00  0.00     0.024 A 
ATOM     12  C   UNL     1     -16.858 -42.808  27.367  1.00  0.00     0.039 C 
ATOM     13  C   UNL     1     -19.123 -43.043  28.428  1.00  0.00     0.007 C 
ATOM     14  C   UNL     1     -18.730 -40.552  21.503  1.00  0.00     0.043 A 
ATOM     15  C   UNL     1     -16.681 -41.248  22.573  1.00  0.00     0.014 A 
ATOM     16  C   UNL     1     -17.700 -42.529  28.612  1.00  0.00     0.005 C 
ATOM     17  C   UNL     1     -17.341 -40.646  21.498  1.00  0.00     0.021 A 
ATOM     18  H   UNL     1     -20.503 -41.684  24.871  1.00  0.00     0.166 HD
ATOM     19  Cl  UNL     1     -19.542 -39.825  20.172  1.00  0.00    -0.084 Cl
ENDBRANCH   3   4
ENDBRANCH   2   3
ENDBRANCH   1   2
BRANCH   1  20
ATOM     20  N   UNL     1     -14.213 -44.379  26.495  1.00  0.00    -0.283 NA
BRANCH  20  21
ATOM     21  C   UNL     1     -13.763 -45.020  27.519  1.00  0.00     0.091 C 
ATOM     22  C   UNL     1     -14.332 -44.738  28.873  1.00  0.00     0.141 C 
ATOM     23  C   UNL     1     -12.655 -46.048  27.505  1.00  0.00     0.208 C 
ATOM     24  C   UNL     1     -13.293 -44.596  29.948  1.00  0.00     0.173 C 
ATOM     25  C   UNL     1     -11.685 -45.977  28.611  1.00  0.00     0.038 A 
ATOM     26  C   UNL     1     -11.974 -45.253  29.771  1.00  0.00     0.071 A 
ATOM     27  C   UNL     1     -10.459 -46.647  28.478  1.00  0.00     0.013 A 
ATOM     28  C   UNL     1     -11.012 -45.193  30.788  1.00  0.00     0.127 A 
ATOM     29  C   UNL     1      -9.513 -46.578  29.498  1.00  0.00     0.005 A 
ATOM     30  C   UNL     1      -9.788 -45.846  30.652  1.00  0.00     0.047 A 
ATOM     31  O   UNL     1     -12.569 -46.886  26.624  1.00  0.00    -0.287 OA
ATOM     32  O   UNL     1     -13.523 -43.998  30.999  1.00  0.00    -0.294 OA
BRANCH  28  33
ATOM     33  O   UNL     1     -11.200 -44.513  31.962  1.00  0.00    -0.507 OA
ATOM     34  H   UNL     1     -10.330 -44.417  32.414  1.00  0.00     0.293 HD
ENDBRANCH  28  33
ENDBRANCH  20  21
ENDBRANCH   1  20
TORSDOF 6
ENDMDL
MODEL 6
REMARK VINA RESULT:   -11.091      2.283      4.326
REMARK INTER + INTRA:         -15.036
REMARK INTER:                 -14.588
REMARK INTRA:                  -0.448
REMARK UNBOUND:                -0.379
REMARK SMILES O=C1C(=NCCN=c2c3c([nH]c4cc(Cl)ccc24)CCCC3)CC(=O)c2c(O)cccc21
REMARK SMILES IDX 5 1 6 2 7 3 8 4 11 5 10 6 12 7 9 8 19 9 13 10 18 11 22 12
REMARK SMILES IDX 20 13 14 14 17 15 21 16 16 17 15 19 4 20 3 21 23 22 2 23
REMARK SMILES IDX 24 24 32 25 26 26 31 27 27 28 30 29 29 30 1 31 25 32 28 33
REMARK H PARENT 11 18 28 34
ROOT
ATOM      1  C   UNL     1     -13.667 -45.191  28.415  1.00  0.00     0.166 C 
ENDROOT
BRANCH   1   2
ATOM      2  C   UNL     1     -12.203 -44.978  28.842  1.00  0.00     0.166 C 
BRANCH   2   3
ATOM      3  N   UNL     1     -12.087 -45.162  30.279  1.00  0.00    -0.282 NA
BRANCH   3   4
ATOM      4  C   UNL     1     -11.765 -44.255  31.139  1.00  0.00     0.072 A 
ATOM      5  N   UNL     1     -10.734 -43.013  33.451  1.00  0.00    -0.358 N 
ATOM      6  C   UNL     1      -9.866 -43.434  32.465  1.00  0.00     0.021 A 
ATOM      7  C   UNL     1     -12.104 -42.861  33.176  1.00  0.00     0.049 A 
ATOM      8  C   UNL     1     -10.288 -44.008  31.322  1.00  0.00    -0.003 A 
ATOM      9  C   UNL     1      -8.391 -43.230  32.739  1.00  0.00     0.054 C 
ATOM     10  C   UNL     1     -12.919 -42.155  34.073  1.00  0.00     0.047 A 
ATOM     11  C   UNL     1     -12.666 -43.435  32.018  1.00  0.00     0.024 A 
ATOM     12  C   UNL     1      -9.366 -44.476  30.227  1.00  0.00     0.039 C 
ATOM     13  C   UNL     1      -7.471 -44.024  31.812  1.00  0.00     0.007 C 
ATOM     14  C   UNL     1     -14.263 -41.949  33.778  1.00  0.00     0.043 A 
ATOM     15  C   UNL     1     -14.007 -43.170  31.712  1.00  0.00     0.014 A 
ATOM     16  C   UNL     1      -7.944 -43.933  30.366  1.00  0.00     0.005 C 
ATOM     17  C   UNL     1     -14.806 -42.436  32.593  1.00  0.00     0.021 A 
ATOM     18  H   UNL     1     -10.343 -42.431  34.182  1.00  0.00     0.166 HD
ATOM     19  Cl  UNL     1     -15.252 -41.060  34.870  1.00  0.00    -0.084 Cl
ENDBRANCH   3   4
ENDBRANCH   2   3
ENDBRANCH   1   2
BRANCH   1  20
ATOM     20  N   UNL     1     -13.820 -44.878  26.989  1.00  0.00    -0.283 NA
BRANCH  20  21
ATOM     21  C   UNL     1     -14.513 -43.849  26.640  1.00  0.00     0.091 C 
ATOM     22  C   UNL     1     -15.246 -43.065  27.681  1.00  0.00     0.141 C 
ATOM     23  C   UNL     1     -14.697 -43.342  25.228  1.00  0.00     0.208 C 
ATOM     24  C   UNL     1     -16.652 -42.709  27.291  1.00  0.00     0.173 C 
ATOM     25  C   UNL     1     -16.054 -42.898  24.865  1.00  0.00     0.038 A 
ATOM     26  C   UNL     1     -17.004 -42.626  25.852  1.00  0.00     0.071 A 
ATOM     27  C   UNL     1     -16.378 -42.759  23.507  1.00  0.00     0.013 A 
ATOM     28  C   UNL     1     -18.291 -42.230  25.461  1.00  0.00     0.127 A 
ATOM     29  C   UNL     1     -17.661 -42.363  23.134  1.00  0.00     0.005 A 
ATOM     30  C   UNL     1     -18.620 -42.103  24.112  1.00  0.00     0.047 A 
ATOM     31  O   UNL     1     -13.773 -43.308  24.433  1.00  0.00    -0.287 OA
ATOM     32  O   UNL     1     -17.507 -42.426  28.130  1.00  0.00    -0.294 OA
BRANCH  28  33
ATOM     33  O   UNL     1     -19.291 -41.938  26.350  1.00  0.00    -0.507 OA
ATOM     34  H   UNL     1     -19.085 -42.370  27.211  1.00  0.00     0.293 HD
ENDBRANCH  28  33
ENDBRANCH  20  21
ENDBRANCH   1  20
TORSDOF 6
ENDMDL
MODEL 7
REMARK VINA RESULT:   -10.456      5.775      9.151
REMARK INTER + INTRA:         -14.197
REMARK INTER:                 -12.449
REMARK INTRA:                  -1.748
REMARK UNBOUND:                -0.379
REMARK SMILES O=C1C(=NCCN=c2c3c([nH]c4cc(Cl)ccc24)CCCC3)CC(=O)c2c(O)cccc21
REMARK SMILES IDX 5 1 6 2 7 3 8 4 11 5 10 6 12 7 9 8 19 9 13 10 18 11 22 12
REMARK SMILES IDX 20 13 14 14 17 15 21 16 16 17 15 19 4 20 3 21 23 22 2 23
REMARK SMILES IDX 24 24 32 25 26 26 31 27 27 28 30 29 29 30 1 31 25 32 28 33
REMARK H PARENT 11 18 28 34
ROOT
ATOM      1  C   UNL     1     -18.329 -39.845  21.708  1.00  0.00     0.166 C 
ENDROOT
BRANCH   1   2
ATOM      2  C   UNL     1     -17.282 -40.920  22.050  1.00  0.00     0.166 C 
BRANCH   2   3
ATOM      3  N   UNL     1     -17.934 -42.036  22.715  1.00  0.00    -0.282 NA
BRANCH   3   4
ATOM      4  C   UNL     1     -17.835 -42.340  23.966  1.00  0.00     0.072 A 
ATOM      5  N   UNL     1     -17.669 -42.092  26.769  1.00  0.00    -0.358 N 
ATOM      6  C   UNL     1     -18.888 -41.922  26.146  1.00  0.00     0.021 A 
ATOM      7  C   UNL     1     -16.610 -42.729  26.100  1.00  0.00     0.049 A 
ATOM      8  C   UNL     1     -19.048 -42.053  24.815  1.00  0.00    -0.003 A 
ATOM      9  C   UNL     1     -20.053 -41.558  27.042  1.00  0.00     0.054 C 
ATOM     10  C   UNL     1     -15.493 -43.167  26.825  1.00  0.00     0.047 A 
ATOM     11  C   UNL     1     -16.655 -42.908  24.702  1.00  0.00     0.024 A 
ATOM     12  C   UNL     1     -20.365 -41.875  24.106  1.00  0.00     0.039 C 
ATOM     13  C   UNL     1     -21.274 -41.029  26.289  1.00  0.00     0.007 C 
ATOM     14  C   UNL     1     -14.468 -43.851  26.179  1.00  0.00     0.043 A 
ATOM     15  C   UNL     1     -15.642 -43.647  24.080  1.00  0.00     0.014 A 
ATOM     16  C   UNL     1     -21.563 -41.876  25.056  1.00  0.00     0.005 C 
ATOM     17  C   UNL     1     -14.546 -44.110  24.814  1.00  0.00     0.021 A 
ATOM     18  H   UNL     1     -17.681 -42.156  27.780  1.00  0.00     0.166 HD
ATOM     19  Cl  UNL     1     -13.111 -44.409  27.078  1.00  0.00    -0.084 Cl
ENDBRANCH   3   4
ENDBRANCH   2   3
ENDBRANCH   1   2
BRANCH   1  20
ATOM     20  N   UNL     1     -18.960 -40.157  20.421  1.00  0.00    -0.283 NA
BRANCH  20  21
ATOM     21  C   UNL     1     -20.244 -40.254  20.353  1.00  0.00     0.091 C 
ATOM     22  C   UNL     1     -21.085 -39.025  20.489  1.00  0.00     0.141 C 
ATOM     23  C   UNL     1     -21.027 -41.534  20.173  1.00  0.00     0.208 C 
ATOM     24  C   UNL     1     -22.270 -39.201  21.394  1.00  0.00     0.173 C 
ATOM     25  C   UNL     1     -22.247 -41.673  20.987  1.00  0.00     0.038 A 
ATOM     26  C   UNL     1     -22.826 -40.560  21.602  1.00  0.00     0.071 A 
ATOM     27  C   UNL     1     -22.815 -42.947  21.139  1.00  0.00     0.013 A 
ATOM     28  C   UNL     1     -23.973 -40.743  22.388  1.00  0.00     0.127 A 
ATOM     29  C   UNL     1     -23.955 -43.112  21.923  1.00  0.00     0.005 A 
ATOM     30  C   UNL     1     -24.531 -42.009  22.552  1.00  0.00     0.047 A 
ATOM     31  O   UNL     1     -20.665 -42.404  19.399  1.00  0.00    -0.287 OA
ATOM     32  O   UNL     1     -22.830 -38.241  21.924  1.00  0.00    -0.294 OA
BRANCH  28  33
ATOM     33  O   UNL     1     -24.616 -39.718  23.029  1.00  0.00    -0.507 OA
ATOM     34  H   UNL     1     -24.543 -38.905  22.478  1.00  0.00     0.293 HD
ENDBRANCH  28  33
ENDBRANCH  20  21
ENDBRANCH   1  20
TORSDOF 6
ENDMDL
MODEL 8
REMARK VINA RESULT:    -9.898      7.097     10.371
REMARK INTER + INTRA:         -13.459
REMARK INTER:                 -12.601
REMARK INTRA:                  -0.858
REMARK UNBOUND:                -0.379
REMARK SMILES O=C1C(=NCCN=c2c3c([nH]c4cc(Cl)ccc24)CCCC3)CC(=O)c2c(O)cccc21
REMARK SMILES IDX 5 1 6 2 7 3 8 4 11 5 10 6 12 7 9 8 19 9 13 10 18 11 22 12
REMARK SMILES IDX 20 13 14 14 17 15 21 16 16 17 15 19 4 20 3 21 23 22 2 23
REMARK SMILES IDX 24 24 32 25 26 26 31 27 27 28 30 29 29 30 1 31 25 32 28 33
REMARK H PARENT 11 18 28 34
ROOT
ATOM      1  C   UNL     1     -22.087 -41.791  26.918  1.00  0.00     0.166 C 
ENDROOT
BRANCH   1   2
ATOM      2  C   UNL     1     -21.383 -40.868  25.906  1.00  0.00     0.166 C 
BRANCH   2   3
ATOM      3  N   UNL     1     -20.954 -41.648  24.757  1.00  0.00    -0.282 NA
BRANCH   3   4
ATOM      4  C   UNL     1     -19.875 -41.465  24.072  1.00  0.00     0.072 A 
ATOM      5  N   UNL     1     -17.978 -41.599  21.991  1.00  0.00    -0.358 N 
ATOM      6  C   UNL     1     -19.089 -40.794  21.844  1.00  0.00     0.021 A 
ATOM      7  C   UNL     1     -17.594 -42.057  23.262  1.00  0.00     0.049 A 
ATOM      8  C   UNL     1     -20.021 -40.658  22.806  1.00  0.00    -0.003 A 
ATOM      9  C   UNL     1     -19.220 -40.069  20.520  1.00  0.00     0.054 C 
ATOM     10  C   UNL     1     -16.319 -42.610  23.446  1.00  0.00     0.047 A 
ATOM     11  C   UNL     1     -18.492 -41.985  24.347  1.00  0.00     0.024 A 
ATOM     12  C   UNL     1     -21.242 -39.787  22.677  1.00  0.00     0.039 C 
ATOM     13  C   UNL     1     -20.614 -39.495  20.262  1.00  0.00     0.007 C 
ATOM     14  C   UNL     1     -15.909 -43.010  24.714  1.00  0.00     0.043 A 
ATOM     15  C   UNL     1     -18.042 -42.340  25.624  1.00  0.00     0.014 A 
ATOM     16  C   UNL     1     -21.157 -38.806  21.508  1.00  0.00     0.005 C 
ATOM     17  C   UNL     1     -16.758 -42.860  25.808  1.00  0.00     0.021 A 
ATOM     18  H   UNL     1     -17.247 -41.495  21.297  1.00  0.00     0.166 HD
ATOM     19  Cl  UNL     1     -14.334 -43.664  24.939  1.00  0.00    -0.084 Cl
ENDBRANCH   3   4
ENDBRANCH   2   3
ENDBRANCH   1   2
BRANCH   1  20
ATOM     20  N   UNL     1     -21.181 -42.874  27.316  1.00  0.00    -0.283 NA
BRANCH  20  21
ATOM     21  C   UNL     1     -21.600 -44.092  27.286  1.00  0.00     0.091 C 
ATOM     22  C   UNL     1     -21.307 -44.944  26.092  1.00  0.00     0.141 C 
ATOM     23  C   UNL     1     -22.416 -44.776  28.359  1.00  0.00     0.208 C 
ATOM     24  C   UNL     1     -22.488 -45.737  25.611  1.00  0.00     0.173 C 
ATOM     25  C   UNL     1     -23.518 -45.636  27.893  1.00  0.00     0.038 A 
ATOM     26  C   UNL     1     -23.573 -46.071  26.567  1.00  0.00     0.071 A 
ATOM     27  C   UNL     1     -24.517 -46.006  28.806  1.00  0.00     0.013 A 
ATOM     28  C   UNL     1     -24.653 -46.868  26.161  1.00  0.00     0.127 A 
ATOM     29  C   UNL     1     -25.584 -46.799  28.387  1.00  0.00     0.005 A 
ATOM     30  C   UNL     1     -25.653 -47.226  27.062  1.00  0.00     0.047 A 
ATOM     31  O   UNL     1     -22.177 -44.619  29.544  1.00  0.00    -0.287 OA
ATOM     32  O   UNL     1     -22.554 -46.170  24.461  1.00  0.00    -0.294 OA
BRANCH  28  33
ATOM     33  O   UNL     1     -24.796 -47.347  24.886  1.00  0.00    -0.507 OA
ATOM     34  H   UNL     1     -25.269 -48.209  24.924  1.00  0.00     0.293 HD
ENDBRANCH  28  33
ENDBRANCH  20  21
ENDBRANCH   1  20
TORSDOF 6
ENDMDL
MODEL 9
REMARK VINA RESULT:    -9.781      6.290     10.801
REMARK INTER + INTRA:         -13.305
REMARK INTER:                 -11.946
REMARK INTRA:                  -1.359
REMARK UNBOUND:                -0.379
REMARK SMILES O=C1C(=NCCN=c2c3c([nH]c4cc(Cl)ccc24)CCCC3)CC(=O)c2c(O)cccc21
REMARK SMILES IDX 5 1 6 2 7 3 8 4 11 5 10 6 12 7 9 8 19 9 13 10 18 11 22 12
REMARK SMILES IDX 20 13 14 14 17 15 21 16 16 17 15 19 4 20 3 21 23 22 2 23
REMARK SMILES IDX 24 24 32 25 26 26 31 27 27 28 30 29 29 30 1 31 25 32 28 33
REMARK H PARENT 11 18 28 34
ROOT
ATOM      1  C   UNL     1     -20.569 -44.134  27.394  1.00  0.00     0.166 C 
ENDROOT
BRANCH   1   2
ATOM      2  C   UNL     1     -21.991 -44.277  27.968  1.00  0.00     0.166 C 
BRANCH   2   3
ATOM      3  N   UNL     1     -22.956 -43.787  26.997  1.00  0.00    -0.282 NA
BRANCH   3   4
ATOM      4  C   UNL     1     -23.212 -42.550  26.736  1.00  0.00     0.072 A 
ATOM      5  N   UNL     1     -22.858 -39.812  26.161  1.00  0.00    -0.358 N 
ATOM      6  C   UNL     1     -22.646 -40.746  25.167  1.00  0.00     0.021 A 
ATOM      7  C   UNL     1     -23.580 -40.154  27.316  1.00  0.00     0.049 A 
ATOM      8  C   UNL     1     -22.823 -42.067  25.361  1.00  0.00    -0.003 A 
ATOM      9  C   UNL     1     -22.180 -40.208  23.830  1.00  0.00     0.054 C 
ATOM     10  C   UNL     1     -24.050 -39.144  28.167  1.00  0.00     0.047 A 
ATOM     11  C   UNL     1     -23.814 -41.508  27.636  1.00  0.00     0.024 A 
ATOM     12  C   UNL     1     -22.601 -43.110  24.298  1.00  0.00     0.039 C 
ATOM     13  C   UNL     1     -21.615 -41.276  22.893  1.00  0.00     0.007 C 
ATOM     14  C   UNL     1     -24.817 -39.472  29.280  1.00  0.00     0.043 A 
ATOM     15  C   UNL     1     -24.635 -41.814  28.728  1.00  0.00     0.014 A 
ATOM     16  C   UNL     1     -22.495 -42.519  22.892  1.00  0.00     0.005 C 
ATOM     17  C   UNL     1     -25.128 -40.800  29.554  1.00  0.00     0.021 A 
ATOM     18  H   UNL     1     -22.879 -38.841  25.873  1.00  0.00     0.166 HD
ATOM     19  Cl  UNL     1     -25.412 -38.225  30.307  1.00  0.00    -0.084 Cl
ENDBRANCH   3   4
ENDBRANCH   2   3
ENDBRANCH   1   2
BRANCH   1  20
ATOM     20  N   UNL     1     -20.011 -42.830  27.770  1.00  0.00    -0.283 NA
BRANCH  20  21
ATOM     21  C   UNL     1     -18.969 -42.387  27.154  1.00  0.00     0.091 C 
ATOM     22  C   UNL     1     -19.122 -41.749  25.810  1.00  0.00     0.141 C 
ATOM     23  C   UNL     1     -17.544 -42.472  27.649  1.00  0.00     0.208 C 
ATOM     24  C   UNL     1     -18.105 -42.206  24.804  1.00  0.00     0.173 C 
ATOM     25  C   UNL     1     -16.524 -42.825  26.647  1.00  0.00     0.038 A 
ATOM     26  C   UNL     1     -16.801 -42.731  25.281  1.00  0.00     0.071 A 
ATOM     27  C   UNL     1     -15.267 -43.265  27.089  1.00  0.00     0.013 A 
ATOM     28  C   UNL     1     -15.809 -43.101  24.362  1.00  0.00     0.127 A 
ATOM     29  C   UNL     1     -14.290 -43.628  26.163  1.00  0.00     0.005 A 
ATOM     30  C   UNL     1     -14.564 -43.551  24.798  1.00  0.00     0.047 A 
ATOM     31  O   UNL     1     -17.257 -42.264  28.816  1.00  0.00    -0.287 OA
ATOM     32  O   UNL     1     -18.298 -42.104  23.593  1.00  0.00    -0.294 OA
BRANCH  28  33
ATOM     33  O   UNL     1     -15.982 -43.042  23.004  1.00  0.00    -0.507 OA
ATOM     34  H   UNL     1     -15.159 -42.686  22.597  1.00  0.00     0.293 HD
ENDBRANCH  28  33
ENDBRANCH  20  21
ENDBRANCH   1  20
TORSDOF 6
ENDMDL
