MODEL 1
REMARK VINA RESULT:    -9.072      0.000      0.000
REMARK INTER + INTRA:         -10.345
REMARK INTER:                 -10.133
REMARK INTRA:                  -0.212
REMARK UNBOUND:                -0.212
REMARK SMILES CNC(=O)Oc1ccc2c(c1)[C@]1(C)CC[N@@H+](C)[C@@H]1N2C
REMARK SMILES IDX 5 1 6 2 15 3 16 4 14 5 18 6 12 7 19 8 10 9 9 10 11 11 8 12
REMARK SMILES IDX 7 13 17 14 13 16 20 17 3 18 2 19 4 20 1 21
REMARK H PARENT 16 15 2 22
ROOT
ATOM      1  O   UNL     1     -14.200 -44.396  26.339  1.00  0.00    -0.410 OA
ENDROOT
BRANCH   1   2
ATOM      2  C   UNL     1     -13.075 -44.085  27.111  1.00  0.00     0.133 A 
ATOM      3  C   UNL     1     -11.748 -44.467  31.787  1.00  0.00     0.265 C 
ATOM      4  N   UNL     1     -10.449 -43.739  31.584  1.00  0.00    -0.317 N 
ATOM      5  C   UNL     1     -11.571 -45.772  31.035  1.00  0.00     0.081 C 
ATOM      6  C   UNL     1      -9.779 -44.298  30.373  1.00  0.00     0.296 C 
ATOM      7  C   UNL     1     -10.724 -45.391  29.826  1.00  0.00     0.072 C 
ATOM      8  N   UNL     1      -9.792 -43.123  29.508  1.00  0.00    -0.325 N 
ATOM      9  C   UNL     1     -11.459 -44.620  28.770  1.00  0.00    -0.007 A 
ATOM     10  C   UNL     1     -10.860 -43.366  28.600  1.00  0.00     0.045 A 
ATOM     11  C   UNL     1     -12.557 -45.009  28.019  1.00  0.00     0.054 A 
ATOM     12  C   UNL     1     -11.352 -42.473  27.658  1.00  0.00     0.030 A 
ATOM     13  C   UNL     1     -12.470 -42.839  26.904  1.00  0.00     0.049 A 
ATOM     14  C   UNL     1      -9.584 -43.620  32.781  1.00  0.00     0.334 C 
ATOM     15  H   UNL     1     -10.664 -42.792  31.239  1.00  0.00     0.349 HD
ATOM     16  C   UNL     1      -9.976 -46.577  29.226  1.00  0.00     0.025 C 
ATOM     17  C   UNL     1      -8.541 -42.820  28.806  1.00  0.00     0.150 C 
ENDBRANCH   1   2
BRANCH   1  18
ATOM     18  C   UNL     1     -15.306 -43.591  26.580  1.00  0.00     0.412 C 
ATOM     19  N   UNL     1     -15.927 -43.309  25.398  1.00  0.00    -0.324 N 
ATOM     20  O   UNL     1     -15.680 -43.200  27.679  1.00  0.00    -0.224 OA
ATOM     21  C   UNL     1     -17.159 -42.569  25.329  1.00  0.00     0.146 C 
ATOM     22  H   UNL     1     -15.571 -43.773  24.573  1.00  0.00     0.166 HD
ENDBRANCH   1  18
TORSDOF 2
ENDMDL
MODEL 2
REMARK VINA RESULT:    -8.081      3.400      9.058
REMARK INTER + INTRA:          -9.239
REMARK INTER:                  -9.327
REMARK INTRA:                   0.088
REMARK UNBOUND:                -0.212
REMARK SMILES CNC(=O)Oc1ccc2c(c1)[C@]1(C)CC[N@@H+](C)[C@@H]1N2C
REMARK SMILES IDX 5 1 6 2 15 3 16 4 14 5 18 6 12 7 19 8 10 9 9 10 11 11 8 12
REMARK SMILES IDX 7 13 17 14 13 16 20 17 3 18 2 19 4 20 1 21
REMARK H PARENT 16 15 2 22
ROOT
ATOM      1  O   UNL     1     -15.199 -42.711  27.077  1.00  0.00    -0.410 OA
ENDROOT
BRANCH   1   2
ATOM      2  C   UNL     1     -16.281 -42.596  26.197  1.00  0.00     0.133 A 
ATOM      3  C   UNL     1     -20.604 -44.759  25.562  1.00  0.00     0.265 C 
ATOM      4  N   UNL     1     -20.909 -44.008  24.297  1.00  0.00    -0.317 N 
ATOM      5  C   UNL     1     -20.649 -43.703  26.649  1.00  0.00     0.081 C 
ATOM      6  C   UNL     1     -20.611 -42.563  24.523  1.00  0.00     0.296 C 
ATOM      7  C   UNL     1     -20.093 -42.454  25.975  1.00  0.00     0.072 C 
ATOM      8  N   UNL     1     -19.522 -42.374  23.571  1.00  0.00    -0.325 N 
ATOM      9  C   UNL     1     -18.612 -42.478  25.744  1.00  0.00    -0.007 A 
ATOM     10  C   UNL     1     -18.347 -42.382  24.372  1.00  0.00     0.045 A 
ATOM     11  C   UNL     1     -17.591 -42.564  26.677  1.00  0.00     0.054 A 
ATOM     12  C   UNL     1     -17.039 -42.364  23.908  1.00  0.00     0.030 A 
ATOM     13  C   UNL     1     -15.996 -42.469  24.831  1.00  0.00     0.049 A 
ATOM     14  C   UNL     1     -22.230 -44.288  23.685  1.00  0.00     0.334 C 
ATOM     15  H   UNL     1     -20.175 -44.229  23.609  1.00  0.00     0.349 HD
ATOM     16  C   UNL     1     -20.526 -41.163  26.664  1.00  0.00     0.025 C 
ATOM     17  C   UNL     1     -19.596 -41.176  22.728  1.00  0.00     0.150 C 
ENDBRANCH   1   2
BRANCH   1  18
ATOM     18  C   UNL     1     -14.558 -43.943  27.044  1.00  0.00     0.412 C 
ATOM     19  N   UNL     1     -14.084 -44.240  28.290  1.00  0.00    -0.324 N 
ATOM     20  O   UNL     1     -14.441 -44.663  26.060  1.00  0.00    -0.224 OA
ATOM     21  C   UNL     1     -13.452 -45.494  28.597  1.00  0.00     0.146 C 
ATOM     22  H   UNL     1     -14.332 -43.603  29.036  1.00  0.00     0.166 HD
ENDBRANCH   1  18
TORSDOF 2
ENDMDL
MODEL 3
REMARK VINA RESULT:    -7.997      1.533      2.210
REMARK INTER + INTRA:          -9.144
REMARK INTER:                  -8.954
REMARK INTRA:                  -0.190
REMARK UNBOUND:                -0.212
REMARK SMILES CNC(=O)Oc1ccc2c(c1)[C@]1(C)CC[N@@H+](C)[C@@H]1N2C
REMARK SMILES IDX 5 1 6 2 15 3 16 4 14 5 18 6 12 7 19 8 10 9 9 10 11 11 8 12
REMARK SMILES IDX 7 13 17 14 13 16 20 17 3 18 2 19 4 20 1 21
REMARK H PARENT 16 15 2 22
ROOT
ATOM      1  O   UNL     1     -14.916 -44.324  26.862  1.00  0.00    -0.410 OA
ENDROOT
BRANCH   1   2
ATOM      2  C   UNL     1     -13.869 -44.456  27.781  1.00  0.00     0.133 A 
ATOM      3  C   UNL     1     -12.749 -42.693  32.186  1.00  0.00     0.265 C 
ATOM      4  N   UNL     1     -11.390 -43.336  32.210  1.00  0.00    -0.317 N 
ATOM      5  C   UNL     1     -13.718 -43.857  32.267  1.00  0.00     0.081 C 
ATOM      6  C   UNL     1     -11.533 -44.758  31.781  1.00  0.00     0.296 C 
ATOM      7  C   UNL     1     -13.033 -44.965  31.475  1.00  0.00     0.072 C 
ATOM      8  N   UNL     1     -10.752 -44.733  30.549  1.00  0.00    -0.325 N 
ATOM      9  C   UNL     1     -13.043 -44.765  29.988  1.00  0.00    -0.007 A 
ATOM     10  C   UNL     1     -11.728 -44.688  29.514  1.00  0.00     0.045 A 
ATOM     11  C   UNL     1     -14.131 -44.672  29.134  1.00  0.00     0.054 A 
ATOM     12  C   UNL     1     -11.478 -44.524  28.159  1.00  0.00     0.030 A 
ATOM     13  C   UNL     1     -12.560 -44.410  27.284  1.00  0.00     0.049 A 
ATOM     14  C   UNL     1     -10.603 -43.130  33.449  1.00  0.00     0.334 C 
ATOM     15  H   UNL     1     -10.850 -42.969  31.414  1.00  0.00     0.349 HD
ATOM     16  C   UNL     1     -13.529 -46.358  31.850  1.00  0.00     0.025 C 
ATOM     17  C   UNL     1      -9.808 -45.837  30.356  1.00  0.00     0.150 C 
ENDBRANCH   1   2
BRANCH   1  18
ATOM     18  C   UNL     1     -14.945 -43.108  26.192  1.00  0.00     0.412 C 
ATOM     19  N   UNL     1     -15.278 -43.320  24.885  1.00  0.00    -0.324 N 
ATOM     20  O   UNL     1     -14.720 -42.011  26.689  1.00  0.00    -0.224 OA
ATOM     21  C   UNL     1     -15.479 -42.242  23.954  1.00  0.00     0.146 C 
ATOM     22  H   UNL     1     -15.532 -44.264  24.626  1.00  0.00     0.166 HD
ENDBRANCH   1  18
TORSDOF 2
ENDMDL
MODEL 4
REMARK VINA RESULT:    -7.955      3.526      5.183
REMARK INTER + INTRA:          -9.098
REMARK INTER:                  -8.891
REMARK INTRA:                  -0.207
REMARK UNBOUND:                -0.212
REMARK SMILES CNC(=O)Oc1ccc2c(c1)[C@]1(C)CC[N@@H+](C)[C@@H]1N2C
REMARK SMILES IDX 5 1 6 2 15 3 16 4 14 5 18 6 12 7 19 8 10 9 9 10 11 11 8 12
REMARK SMILES IDX 7 13 17 14 13 16 20 17 3 18 2 19 4 20 1 21
REMARK H PARENT 16 15 2 22
ROOT
ATOM      1  O   UNL     1     -12.545 -41.824  33.921  1.00  0.00    -0.410 OA
ENDROOT
BRANCH   1   2
ATOM      2  C   UNL     1     -11.639 -42.468  33.070  1.00  0.00     0.133 A 
ATOM      3  C   UNL     1     -11.830 -45.866  29.579  1.00  0.00     0.265 C 
ATOM      4  N   UNL     1     -10.337 -45.929  29.416  1.00  0.00    -0.317 N 
ATOM      5  C   UNL     1     -12.210 -44.493  29.060  1.00  0.00     0.081 C 
ATOM      6  C   UNL     1      -9.812 -44.534  29.336  1.00  0.00     0.296 C 
ATOM      7  C   UNL     1     -11.041 -43.606  29.472  1.00  0.00     0.072 C 
ATOM      8  N   UNL     1      -8.999 -44.495  30.546  1.00  0.00    -0.325 N 
ATOM      9  C   UNL     1     -10.987 -43.287  30.936  1.00  0.00    -0.007 A 
ATOM     10  C   UNL     1      -9.791 -43.771  31.480  1.00  0.00     0.045 A 
ATOM     11  C   UNL     1     -11.917 -42.612  31.711  1.00  0.00     0.054 A 
ATOM     12  C   UNL     1      -9.501 -43.579  32.824  1.00  0.00     0.030 A 
ATOM     13  C   UNL     1     -10.434 -42.918  33.626  1.00  0.00     0.049 A 
ATOM     14  C   UNL     1      -9.843 -46.847  28.363  1.00  0.00     0.334 C 
ATOM     15  H   UNL     1      -9.929 -46.214  30.318  1.00  0.00     0.349 HD
ATOM     16  C   UNL     1     -10.926 -42.342  28.625  1.00  0.00     0.025 C 
ATOM     17  C   UNL     1      -7.658 -43.919  30.410  1.00  0.00     0.150 C 
ENDBRANCH   1   2
BRANCH   1  18
ATOM     18  C   UNL     1     -13.863 -42.236  33.777  1.00  0.00     0.412 C 
ATOM     19  N   UNL     1     -14.625 -41.179  33.366  1.00  0.00    -0.324 N 
ATOM     20  O   UNL     1     -14.285 -43.369  33.974  1.00  0.00    -0.224 OA
ATOM     21  C   UNL     1     -16.019 -41.312  33.040  1.00  0.00     0.146 C 
ATOM     22  H   UNL     1     -14.135 -40.321  33.148  1.00  0.00     0.166 HD
ENDBRANCH   1  18
TORSDOF 2
ENDMDL
MODEL 5
REMARK VINA RESULT:    -7.599      1.511      2.789
REMARK INTER + INTRA:          -8.700
REMARK INTER:                  -8.464
REMARK INTRA:                  -0.236
REMARK UNBOUND:                -0.212
REMARK SMILES CNC(=O)Oc1ccc2c(c1)[C@]1(C)CC[N@@H+](C)[C@@H]1N2C
REMARK SMILES IDX 5 1 6 2 15 3 16 4 14 5 18 6 12 7 19 8 10 9 9 10 11 11 8 12
REMARK SMILES IDX 7 13 17 14 13 16 20 17 3 18 2 19 4 20 1 21
REMARK H PARENT 16 15 2 22
ROOT
ATOM      1  O   UNL     1     -13.405 -43.157  25.926  1.00  0.00    -0.410 OA
ENDROOT
BRANCH   1   2
ATOM      2  C   UNL     1     -12.997 -43.830  27.083  1.00  0.00     0.133 A 
ATOM      3  C   UNL     1      -8.821 -44.569  29.488  1.00  0.00     0.265 C 
ATOM      4  N   UNL     1      -9.442 -45.508  30.484  1.00  0.00    -0.317 N 
ATOM      5  C   UNL     1      -9.433 -43.219  29.809  1.00  0.00     0.081 C 
ATOM      6  C   UNL     1     -10.711 -44.899  30.980  1.00  0.00     0.296 C 
ATOM      7  C   UNL     1     -10.858 -43.551  30.237  1.00  0.00     0.072 C 
ATOM      8  N   UNL     1     -11.676 -45.872  30.479  1.00  0.00    -0.325 N 
ATOM      9  C   UNL     1     -11.768 -43.951  29.114  1.00  0.00    -0.007 A 
ATOM     10  C   UNL     1     -12.237 -45.253  29.328  1.00  0.00     0.045 A 
ATOM     11  C   UNL     1     -12.154 -43.212  28.006  1.00  0.00     0.054 A 
ATOM     12  C   UNL     1     -13.116 -45.840  28.429  1.00  0.00     0.030 A 
ATOM     13  C   UNL     1     -13.501 -45.119  27.296  1.00  0.00     0.049 A 
ATOM     14  C   UNL     1      -8.535 -46.016  31.541  1.00  0.00     0.334 C 
ATOM     15  H   UNL     1      -9.828 -46.312  29.968  1.00  0.00     0.349 HD
ATOM     16  C   UNL     1     -11.489 -42.463  31.101  1.00  0.00     0.025 C 
ATOM     17  C   UNL     1     -12.711 -46.304  31.422  1.00  0.00     0.150 C 
ENDBRANCH   1   2
BRANCH   1  18
ATOM     18  C   UNL     1     -14.726 -42.728  25.945  1.00  0.00     0.412 C 
ATOM     19  N   UNL     1     -15.297 -42.965  24.727  1.00  0.00    -0.324 N 
ATOM     20  O   UNL     1     -15.302 -42.226  26.903  1.00  0.00    -0.224 OA
ATOM     21  C   UNL     1     -16.688 -42.713  24.464  1.00  0.00     0.146 C 
ATOM     22  H   UNL     1     -14.739 -43.473  24.053  1.00  0.00     0.166 HD
ENDBRANCH   1  18
TORSDOF 2
ENDMDL
MODEL 6
REMARK VINA RESULT:    -7.305      3.765      6.683
REMARK INTER + INTRA:          -8.372
REMARK INTER:                  -9.265
REMARK INTRA:                   0.893
REMARK UNBOUND:                -0.212
REMARK SMILES CNC(=O)Oc1ccc2c(c1)[C@]1(C)CC[N@@H+](C)[C@@H]1N2C
REMARK SMILES IDX 5 1 6 2 15 3 16 4 14 5 18 6 12 7 19 8 10 9 9 10 11 11 8 12
REMARK SMILES IDX 7 13 17 14 13 16 20 17 3 18 2 19 4 20 1 21
REMARK H PARENT 16 15 2 22
ROOT
ATOM      1  O   UNL     1     -10.126 -41.820  33.718  1.00  0.00    -0.410 OA
ENDROOT
BRANCH   1   2
ATOM      2  C   UNL     1     -10.851 -42.783  33.008  1.00  0.00     0.133 A 
ATOM      3  C   UNL     1     -11.016 -44.460  28.433  1.00  0.00     0.265 C 
ATOM      4  N   UNL     1     -12.195 -45.356  28.695  1.00  0.00    -0.317 N 
ATOM      5  C   UNL     1      -9.885 -45.082  29.228  1.00  0.00     0.081 C 
ATOM      6  C   UNL     1     -11.943 -46.109  29.959  1.00  0.00     0.296 C 
ATOM      7  C   UNL     1     -10.567 -45.631  30.476  1.00  0.00     0.072 C 
ATOM      8  N   UNL     1     -13.019 -45.582  30.791  1.00  0.00    -0.325 N 
ATOM      9  C   UNL     1     -10.991 -44.586  31.464  1.00  0.00    -0.007 A 
ATOM     10  C   UNL     1     -12.379 -44.636  31.638  1.00  0.00     0.045 A 
ATOM     11  C   UNL     1     -10.204 -43.679  32.157  1.00  0.00     0.054 A 
ATOM     12  C   UNL     1     -13.008 -43.773  32.525  1.00  0.00     0.030 A 
ATOM     13  C   UNL     1     -12.235 -42.839  33.218  1.00  0.00     0.049 A 
ATOM     14  C   UNL     1     -12.641 -46.183  27.549  1.00  0.00     0.334 C 
ATOM     15  H   UNL     1     -12.982 -44.766  29.001  1.00  0.00     0.349 HD
ATOM     16  C   UNL     1      -9.768 -46.741  31.151  1.00  0.00     0.025 C 
ATOM     17  C   UNL     1     -13.788 -46.566  31.559  1.00  0.00     0.150 C 
ENDBRANCH   1   2
BRANCH   1  18
ATOM     18  C   UNL     1      -8.903 -42.263  34.206  1.00  0.00     0.412 C 
ATOM     19  N   UNL     1      -8.138 -42.712  33.168  1.00  0.00    -0.324 N 
ATOM     20  O   UNL     1      -8.552 -42.246  35.379  1.00  0.00    -0.224 OA
ATOM     21  C   UNL     1      -6.780 -43.150  33.342  1.00  0.00     0.146 C 
ATOM     22  H   UNL     1      -8.511 -42.581  32.236  1.00  0.00     0.166 HD
ENDBRANCH   1  18
TORSDOF 2
ENDMDL
MODEL 7
REMARK VINA RESULT:    -7.230      4.105      6.726
REMARK INTER + INTRA:          -8.288
REMARK INTER:                  -8.911
REMARK INTRA:                   0.623
REMARK UNBOUND:                -0.212
REMARK SMILES CNC(=O)Oc1ccc2c(c1)[C@]1(C)CC[N@@H+](C)[C@@H]1N2C
REMARK SMILES IDX 5 1 6 2 15 3 16 4 14 5 18 6 12 7 19 8 10 9 9 10 11 11 8 12
REMARK SMILES IDX 7 13 17 14 13 16 20 17 3 18 2 19 4 20 1 21
REMARK H PARENT 16 15 2 22
ROOT
ATOM      1  O   UNL     1      -6.681 -44.455  32.543  1.00  0.00    -0.410 OA
ENDROOT
BRANCH   1   2
ATOM      2  C   UNL     1      -7.760 -44.820  31.730  1.00  0.00     0.133 A 
ATOM      3  C   UNL     1     -12.503 -43.740  31.406  1.00  0.00     0.265 C 
ATOM      4  N   UNL     1     -12.763 -44.746  30.320  1.00  0.00    -0.317 N 
ATOM      5  C   UNL     1     -11.632 -42.688  30.747  1.00  0.00     0.081 C 
ATOM      6  C   UNL     1     -11.699 -44.606  29.283  1.00  0.00     0.296 C 
ATOM      7  C   UNL     1     -10.761 -43.482  29.780  1.00  0.00     0.072 C 
ATOM      8  N   UNL     1     -11.052 -45.908  29.400  1.00  0.00    -0.325 N 
ATOM      9  C   UNL     1      -9.682 -44.291  30.435  1.00  0.00    -0.007 A 
ATOM     10  C   UNL     1      -9.870 -45.648  30.147  1.00  0.00     0.045 A 
ATOM     11  C   UNL     1      -8.618 -43.853  31.208  1.00  0.00     0.054 A 
ATOM     12  C   UNL     1      -8.981 -46.599  30.630  1.00  0.00     0.030 A 
ATOM     13  C   UNL     1      -7.913 -46.179  31.426  1.00  0.00     0.049 A 
ATOM     14  C   UNL     1     -14.149 -44.784  29.797  1.00  0.00     0.334 C 
ATOM     15  H   UNL     1     -12.524 -45.679  30.686  1.00  0.00     0.349 HD
ATOM     16  C   UNL     1     -10.203 -42.630  28.644  1.00  0.00     0.025 C 
ATOM     17  C   UNL     1     -10.759 -46.603  28.144  1.00  0.00     0.150 C 
ENDBRANCH   1   2
BRANCH   1  18
ATOM     18  C   UNL     1      -6.862 -43.269  33.242  1.00  0.00     0.412 C 
ATOM     19  N   UNL     1      -8.147 -43.204  33.697  1.00  0.00    -0.324 N 
ATOM     20  O   UNL     1      -6.005 -42.415  33.437  1.00  0.00    -0.224 OA
ATOM     21  C   UNL     1      -8.617 -42.135  34.537  1.00  0.00     0.146 C 
ATOM     22  H   UNL     1      -8.726 -44.020  33.549  1.00  0.00     0.166 HD
ENDBRANCH   1  18
TORSDOF 2
ENDMDL
MODEL 8
REMARK VINA RESULT:    -7.135      4.690      9.744
REMARK INTER + INTRA:          -8.182
REMARK INTER:                  -7.926
REMARK INTRA:                  -0.255
REMARK UNBOUND:                -0.212
REMARK SMILES CNC(=O)Oc1ccc2c(c1)[C@]1(C)CC[N@@H+](C)[C@@H]1N2C
REMARK SMILES IDX 5 1 6 2 15 3 16 4 14 5 18 6 12 7 19 8 10 9 9 10 11 11 8 12
REMARK SMILES IDX 7 13 17 14 13 16 20 17 3 18 2 19 4 20 1 21
REMARK H PARENT 16 15 2 22
ROOT
ATOM      1  O   UNL     1     -15.556 -42.045  24.177  1.00  0.00    -0.410 OA
ENDROOT
BRANCH   1   2
ATOM      2  C   UNL     1     -16.945 -41.971  24.018  1.00  0.00     0.133 A 
ATOM      3  C   UNL     1     -20.823 -44.647  25.272  1.00  0.00     0.265 C 
ATOM      4  N   UNL     1     -21.792 -43.779  24.520  1.00  0.00    -0.317 N 
ATOM      5  C   UNL     1     -20.340 -43.772  26.413  1.00  0.00     0.081 C 
ATOM      6  C   UNL     1     -21.497 -42.352  24.842  1.00  0.00     0.296 C 
ATOM      7  C   UNL     1     -20.294 -42.372  25.812  1.00  0.00     0.072 C 
ATOM      8  N   UNL     1     -21.092 -41.870  23.527  1.00  0.00    -0.325 N 
ATOM      9  C   UNL     1     -19.163 -42.141  24.856  1.00  0.00    -0.007 A 
ATOM     10  C   UNL     1     -19.672 -41.815  23.593  1.00  0.00     0.045 A 
ATOM     11  C   UNL     1     -17.799 -42.203  25.096  1.00  0.00     0.054 A 
ATOM     12  C   UNL     1     -18.813 -41.536  22.539  1.00  0.00     0.030 A 
ATOM     13  C   UNL     1     -17.435 -41.612  22.755  1.00  0.00     0.049 A 
ATOM     14  C   UNL     1     -23.219 -44.165  24.629  1.00  0.00     0.334 C 
ATOM     15  H   UNL     1     -21.525 -43.789  23.525  1.00  0.00     0.349 HD
ATOM     16  C   UNL     1     -20.363 -41.270  26.865  1.00  0.00     0.025 C 
ATOM     17  C   UNL     1     -21.665 -40.591  23.098  1.00  0.00     0.150 C 
ENDBRANCH   1   2
BRANCH   1  18
ATOM     18  C   UNL     1     -15.071 -43.324  24.418  1.00  0.00     0.412 C 
ATOM     19  N   UNL     1     -14.638 -43.407  25.710  1.00  0.00    -0.324 N 
ATOM     20  O   UNL     1     -15.044 -44.244  23.609  1.00  0.00    -0.224 OA
ATOM     21  C   UNL     1     -14.164 -44.636  26.288  1.00  0.00     0.146 C 
ATOM     22  H   UNL     1     -14.805 -42.603  26.300  1.00  0.00     0.166 HD
ENDBRANCH   1  18
TORSDOF 2
ENDMDL
MODEL 9
REMARK VINA RESULT:    -6.973      3.775      6.542
REMARK INTER + INTRA:          -8.000
REMARK INTER:                  -8.109
REMARK INTRA:                   0.109
REMARK UNBOUND:                -0.212
REMARK SMILES CNC(=O)Oc1ccc2c(c1)[C@]1(C)CC[N@@H+](C)[C@@H]1N2C
REMARK SMILES IDX 5 1 6 2 15 3 16 4 14 5 18 6 12 7 19 8 10 9 9 10 11 11 8 12
REMARK SMILES IDX 7 13 17 14 13 16 20 17 3 18 2 19 4 20 1 21
REMARK H PARENT 16 15 2 22
ROOT
ATOM      1  O   UNL     1      -7.255 -44.232  32.476  1.00  0.00    -0.410 OA
ENDROOT
BRANCH   1   2
ATOM      2  C   UNL     1      -8.172 -44.029  31.439  1.00  0.00     0.133 A 
ATOM      3  C   UNL     1     -11.674 -46.600  29.225  1.00  0.00     0.265 C 
ATOM      4  N   UNL     1     -11.940 -45.540  28.192  1.00  0.00    -0.317 N 
ATOM      5  C   UNL     1     -12.153 -45.987  30.526  1.00  0.00     0.081 C 
ATOM      6  C   UNL     1     -12.043 -44.222  28.884  1.00  0.00     0.296 C 
ATOM      7  C   UNL     1     -11.814 -44.507  30.386  1.00  0.00     0.072 C 
ATOM      8  N   UNL     1     -10.892 -43.538  28.306  1.00  0.00    -0.325 N 
ATOM      9  C   UNL     1     -10.354 -44.188  30.509  1.00  0.00    -0.007 A 
ATOM     10  C   UNL     1      -9.898 -43.600  29.323  1.00  0.00     0.045 A 
ATOM     11  C   UNL     1      -9.510 -44.393  31.589  1.00  0.00     0.054 A 
ATOM     12  C   UNL     1      -8.576 -43.196  29.201  1.00  0.00     0.030 A 
ATOM     13  C   UNL     1      -7.705 -43.410  30.272  1.00  0.00     0.049 A 
ATOM     14  C   UNL     1     -13.033 -45.835  27.236  1.00  0.00     0.334 C 
ATOM     15  H   UNL     1     -11.071 -45.387  27.660  1.00  0.00     0.349 HD
ATOM     16  C   UNL     1     -12.655 -43.615  31.294  1.00  0.00     0.025 C 
ATOM     17  C   UNL     1     -11.115 -42.164  27.848  1.00  0.00     0.150 C 
ENDBRANCH   1   2
BRANCH   1  18
ATOM     18  C   UNL     1      -7.128 -43.161  33.351  1.00  0.00     0.412 C 
ATOM     19  N   UNL     1      -8.348 -42.870  33.890  1.00  0.00    -0.324 N 
ATOM     20  O   UNL     1      -6.087 -42.571  33.614  1.00  0.00    -0.224 OA
ATOM     21  C   UNL     1      -8.525 -41.866  34.904  1.00  0.00     0.146 C 
ATOM     22  H   UNL     1      -9.109 -43.496  33.661  1.00  0.00     0.166 HD
ENDBRANCH   1  18
TORSDOF 2
ENDMDL
