MODEL 1
REMARK VINA RESULT:   -10.415      0.000      0.000
REMARK INTER + INTRA:         -17.264
REMARK INTER:                 -16.199
REMARK INTRA:                  -1.065
REMARK UNBOUND:                -1.065
REMARK SMILES N#Cc1cc(C#N)c(=NCCC[C@H]2CC[N@H+](Cc3ccccc3)CC2)[nH]c1N
REMARK SMILES IDX 10 1 9 2 8 3 26 4 27 5 3 6 5 7 4 8 28 10 2 13 1 14 6 15 7 16
REMARK SMILES IDX 11 17 12 18 13 19 14 20 25 21 15 22 24 23 16 24 17 26 18 27
REMARK SMILES IDX 19 28 23 29 20 30 22 31 21 32
REMARK H PARENT 26 9 28 11 28 12 16 25
ROOT
ATOM      1  C   UNL     1      -9.831 -46.334  31.076  1.00  0.00     0.144 C 
ENDROOT
BRANCH   1   2
ATOM      2  N   UNL     1      -9.749 -45.070  31.790  1.00  0.00    -0.267 NA
BRANCH   2   3
ATOM      3  C   UNL     1     -10.784 -44.359  32.084  1.00  0.00     0.144 A 
ATOM      4  N   UNL     1     -12.074 -44.600  31.651  1.00  0.00    -0.325 N 
ATOM      5  C   UNL     1     -13.189 -43.892  32.061  1.00  0.00     0.120 A 
ATOM      6  C   UNL     1     -13.011 -42.850  32.914  1.00  0.00     0.094 A 
ATOM      7  C   UNL     1     -10.566 -43.167  32.983  1.00  0.00     0.096 A 
ATOM      8  C   UNL     1     -11.665 -42.484  33.353  1.00  0.00     0.046 A 
ATOM      9  H   UNL     1     -12.279 -45.462  31.172  1.00  0.00     0.170 HD
BRANCH   5  10
ATOM     10  N   UNL     1     -14.410 -44.312  31.575  1.00  0.00    -0.384 N 
ATOM     11  H   UNL     1     -14.355 -44.609  30.605  1.00  0.00     0.158 HD
ATOM     12  H   UNL     1     -15.163 -43.630  31.680  1.00  0.00     0.158 HD
ENDBRANCH   5  10
BRANCH   6  13
ATOM     13  C   UNL     1     -14.105 -42.068  33.392  1.00  0.00     0.103 C 
ATOM     14  N   UNL     1     -14.994 -41.416  33.753  1.00  0.00    -0.192 NA
ENDBRANCH   6  13
BRANCH   7  15
ATOM     15  C   UNL     1      -9.265 -42.801  33.421  1.00  0.00     0.103 C 
ATOM     16  N   UNL     1      -8.181 -42.518  33.726  1.00  0.00    -0.192 NA
ENDBRANCH   7  15
ENDBRANCH   2   3
ENDBRANCH   1   2
BRANCH   1  17
ATOM     17  C   UNL     1      -9.887 -46.090  29.568  1.00  0.00     0.024 C 
BRANCH  17  18
ATOM     18  C   UNL     1     -11.207 -46.532  28.927  1.00  0.00     0.006 C 
BRANCH  18  19
ATOM     19  C   UNL     1     -11.776 -45.605  27.836  1.00  0.00     0.000 C 
ATOM     20  C   UNL     1     -11.677 -44.141  28.304  1.00  0.00     0.065 C 
ATOM     21  C   UNL     1     -13.229 -45.949  27.475  1.00  0.00     0.065 C 
ATOM     22  C   UNL     1     -12.275 -43.175  27.290  1.00  0.00     0.262 C 
ATOM     23  C   UNL     1     -13.819 -44.956  26.477  1.00  0.00     0.262 C 
ATOM     24  N   UNL     1     -13.709 -43.561  27.034  1.00  0.00    -0.331 N 
ATOM     25  H   UNL     1     -14.177 -43.569  27.950  1.00  0.00     0.348 HD
BRANCH  24  26
ATOM     26  C   UNL     1     -14.477 -42.526  26.232  1.00  0.00     0.299 C 
BRANCH  26  27
ATOM     27  C   UNL     1     -15.969 -42.521  26.422  1.00  0.00     0.006 A 
ATOM     28  C   UNL     1     -16.526 -42.489  27.711  1.00  0.00     0.009 A 
ATOM     29  C   UNL     1     -16.832 -42.545  25.315  1.00  0.00     0.009 A 
ATOM     30  C   UNL     1     -17.911 -42.464  27.885  1.00  0.00     0.001 A 
ATOM     31  C   UNL     1     -18.216 -42.521  25.493  1.00  0.00     0.001 A 
ATOM     32  C   UNL     1     -18.754 -42.476  26.777  1.00  0.00     0.000 A 
ENDBRANCH  26  27
ENDBRANCH  24  26
ENDBRANCH  18  19
ENDBRANCH  17  18
ENDBRANCH   1  17
TORSDOF 10
ENDMDL
MODEL 2
REMARK VINA RESULT:   -10.202      2.820      8.610
REMARK INTER + INTRA:         -16.932
REMARK INTER:                 -16.053
REMARK INTRA:                  -0.880
REMARK UNBOUND:                -1.065
REMARK SMILES N#Cc1cc(C#N)c(=NCCC[C@H]2CC[N@H+](Cc3ccccc3)CC2)[nH]c1N
REMARK SMILES IDX 10 1 9 2 8 3 26 4 27 5 3 6 5 7 4 8 28 10 2 13 1 14 6 15 7 16
REMARK SMILES IDX 11 17 12 18 13 19 14 20 25 21 15 22 24 23 16 24 17 26 18 27
REMARK SMILES IDX 19 28 23 29 20 30 22 31 21 32
REMARK H PARENT 26 9 28 11 28 12 16 25
ROOT
ATOM      1  C   UNL     1     -14.585 -42.616  25.927  1.00  0.00     0.144 C 
ENDROOT
BRANCH   1   2
ATOM      2  N   UNL     1     -15.851 -43.324  26.029  1.00  0.00    -0.267 NA
BRANCH   2   3
ATOM      3  C   UNL     1     -16.993 -42.755  25.838  1.00  0.00     0.144 A 
ATOM      4  N   UNL     1     -17.551 -42.467  24.607  1.00  0.00    -0.325 N 
ATOM      5  C   UNL     1     -18.822 -41.955  24.418  1.00  0.00     0.120 A 
ATOM      6  C   UNL     1     -19.567 -41.663  25.516  1.00  0.00     0.094 A 
ATOM      7  C   UNL     1     -17.786 -42.378  27.065  1.00  0.00     0.096 A 
ATOM      8  C   UNL     1     -19.012 -41.864  26.853  1.00  0.00     0.046 A 
ATOM      9  H   UNL     1     -17.120 -42.833  23.774  1.00  0.00     0.170 HD
BRANCH   5  10
ATOM     10  N   UNL     1     -19.242 -41.790  23.114  1.00  0.00    -0.384 N 
ATOM     11  H   UNL     1     -19.654 -42.638  22.734  1.00  0.00     0.158 HD
ATOM     12  H   UNL     1     -18.521 -41.447  22.478  1.00  0.00     0.158 HD
ENDBRANCH   5  10
BRANCH   6  13
ATOM     13  C   UNL     1     -20.890 -41.135  25.413  1.00  0.00     0.103 C 
ATOM     14  N   UNL     1     -21.966 -40.718  25.301  1.00  0.00    -0.192 NA
ENDBRANCH   6  13
BRANCH   7  15
ATOM     15  C   UNL     1     -17.261 -42.570  28.370  1.00  0.00     0.103 C 
ATOM     16  N   UNL     1     -16.787 -42.696  29.422  1.00  0.00    -0.192 NA
ENDBRANCH   7  15
ENDBRANCH   2   3
ENDBRANCH   1   2
BRANCH   1  17
ATOM     17  C   UNL     1     -13.445 -43.488  26.454  1.00  0.00     0.024 C 
BRANCH  17  18
ATOM     18  C   UNL     1     -13.807 -44.975  26.550  1.00  0.00     0.006 C 
BRANCH  18  19
ATOM     19  C   UNL     1     -13.205 -45.744  27.741  1.00  0.00     0.000 C 
ATOM     20  C   UNL     1     -13.623 -45.063  29.057  1.00  0.00     0.065 C 
ATOM     21  C   UNL     1     -11.675 -45.846  27.660  1.00  0.00     0.065 C 
ATOM     22  C   UNL     1     -13.014 -45.747  30.274  1.00  0.00     0.262 C 
ATOM     23  C   UNL     1     -11.080 -46.511  28.898  1.00  0.00     0.262 C 
ATOM     24  N   UNL     1     -11.513 -45.757  30.128  1.00  0.00    -0.331 N 
ATOM     25  H   UNL     1     -11.226 -44.779  29.994  1.00  0.00     0.348 HD
BRANCH  24  26
ATOM     26  C   UNL     1     -10.789 -46.190  31.390  1.00  0.00     0.299 C 
BRANCH  26  27
ATOM     27  C   UNL     1      -9.557 -45.401  31.743  1.00  0.00     0.006 A 
ATOM     28  C   UNL     1      -8.278 -45.937  31.527  1.00  0.00     0.009 A 
ATOM     29  C   UNL     1      -9.665 -44.114  32.295  1.00  0.00     0.009 A 
ATOM     30  C   UNL     1      -7.137 -45.196  31.837  1.00  0.00     0.001 A 
ATOM     31  C   UNL     1      -8.522 -43.377  32.604  1.00  0.00     0.001 A 
ATOM     32  C   UNL     1      -7.259 -43.916  32.371  1.00  0.00     0.000 A 
ENDBRANCH  26  27
ENDBRANCH  24  26
ENDBRANCH  18  19
ENDBRANCH  17  18
ENDBRANCH   1  17
TORSDOF 10
ENDMDL
MODEL 3
REMARK VINA RESULT:    -9.919      2.469      8.472
REMARK INTER + INTRA:         -16.492
REMARK INTER:                 -15.622
REMARK INTRA:                  -0.870
REMARK UNBOUND:                -1.065
REMARK SMILES N#Cc1cc(C#N)c(=NCCC[C@H]2CC[N@H+](Cc3ccccc3)CC2)[nH]c1N
REMARK SMILES IDX 10 1 9 2 8 3 26 4 27 5 3 6 5 7 4 8 28 10 2 13 1 14 6 15 7 16
REMARK SMILES IDX 11 17 12 18 13 19 14 20 25 21 15 22 24 23 16 24 17 26 18 27
REMARK SMILES IDX 19 28 23 29 20 30 22 31 21 32
REMARK H PARENT 26 9 28 11 28 12 16 25
ROOT
ATOM      1  C   UNL     1     -14.247 -44.272  26.141  1.00  0.00     0.144 C 
ENDROOT
BRANCH   1   2
ATOM      2  N   UNL     1     -14.954 -43.004  26.226  1.00  0.00    -0.267 NA
BRANCH   2   3
ATOM      3  C   UNL     1     -16.137 -42.824  25.745  1.00  0.00     0.144 A 
ATOM      4  N   UNL     1     -16.471 -42.841  24.404  1.00  0.00    -0.325 N 
ATOM      5  C   UNL     1     -17.760 -42.754  23.911  1.00  0.00     0.120 A 
ATOM      6  C   UNL     1     -18.778 -42.590  24.797  1.00  0.00     0.094 A 
ATOM      7  C   UNL     1     -17.251 -42.582  26.734  1.00  0.00     0.096 A 
ATOM      8  C   UNL     1     -18.494 -42.482  26.227  1.00  0.00     0.046 A 
ATOM      9  H   UNL     1     -15.786 -43.141  23.730  1.00  0.00     0.170 HD
BRANCH   5  10
ATOM     10  N   UNL     1     -17.915 -42.852  22.543  1.00  0.00    -0.384 N 
ATOM     11  H   UNL     1     -18.700 -42.303  22.206  1.00  0.00     0.158 HD
ATOM     12  H   UNL     1     -17.993 -43.810  22.196  1.00  0.00     0.158 HD
ENDBRANCH   5  10
BRANCH   6  13
ATOM     13  C   UNL     1     -20.138 -42.495  24.376  1.00  0.00     0.103 C 
ATOM     14  N   UNL     1     -21.240 -42.445  24.018  1.00  0.00    -0.192 NA
ENDBRANCH   6  13
BRANCH   7  15
ATOM     15  C   UNL     1     -16.991 -42.478  28.126  1.00  0.00     0.103 C 
ATOM     16  N   UNL     1     -16.734 -42.428  29.257  1.00  0.00    -0.192 NA
ENDBRANCH   7  15
ENDBRANCH   2   3
ENDBRANCH   1   2
BRANCH   1  17
ATOM     17  C   UNL     1     -13.751 -44.696  27.524  1.00  0.00     0.024 C 
BRANCH  17  18
ATOM     18  C   UNL     1     -12.840 -45.929  27.494  1.00  0.00     0.006 C 
BRANCH  18  19
ATOM     19  C   UNL     1     -11.549 -45.839  28.329  1.00  0.00     0.000 C 
ATOM     20  C   UNL     1     -11.855 -46.218  29.790  1.00  0.00     0.065 C 
ATOM     21  C   UNL     1     -10.906 -44.445  28.267  1.00  0.00     0.065 C 
ATOM     22  C   UNL     1     -10.627 -46.097  30.682  1.00  0.00     0.262 C 
ATOM     23  C   UNL     1      -9.692 -44.335  29.186  1.00  0.00     0.262 C 
ATOM     24  N   UNL     1     -10.096 -44.689  30.593  1.00  0.00    -0.331 N 
ATOM     25  H   UNL     1     -10.875 -44.067  30.845  1.00  0.00     0.348 HD
BRANCH  24  26
ATOM     26  C   UNL     1      -9.026 -44.384  31.626  1.00  0.00     0.299 C 
BRANCH  26  27
ATOM     27  C   UNL     1      -9.428 -43.446  32.731  1.00  0.00     0.006 A 
ATOM     28  C   UNL     1     -10.771 -43.074  32.902  1.00  0.00     0.009 A 
ATOM     29  C   UNL     1      -8.467 -42.927  33.614  1.00  0.00     0.009 A 
ATOM     30  C   UNL     1     -11.144 -42.220  33.941  1.00  0.00     0.001 A 
ATOM     31  C   UNL     1      -8.844 -42.073  34.651  1.00  0.00     0.001 A 
ATOM     32  C   UNL     1     -10.182 -41.724  34.816  1.00  0.00     0.000 A 
ENDBRANCH  26  27
ENDBRANCH  24  26
ENDBRANCH  18  19
ENDBRANCH  17  18
ENDBRANCH   1  17
TORSDOF 10
ENDMDL
MODEL 4
REMARK VINA RESULT:    -9.917      3.231      9.565
REMARK INTER + INTRA:         -16.490
REMARK INTER:                 -15.892
REMARK INTRA:                  -0.597
REMARK UNBOUND:                -1.065
REMARK SMILES N#Cc1cc(C#N)c(=NCCC[C@H]2CC[N@H+](Cc3ccccc3)CC2)[nH]c1N
REMARK SMILES IDX 10 1 9 2 8 3 26 4 27 5 3 6 5 7 4 8 28 10 2 13 1 14 6 15 7 16
REMARK SMILES IDX 11 17 12 18 13 19 14 20 25 21 15 22 24 23 16 24 17 26 18 27
REMARK SMILES IDX 19 28 23 29 20 30 22 31 21 32
REMARK H PARENT 26 9 28 11 28 12 16 25
ROOT
ATOM      1  C   UNL     1     -15.339 -42.515  26.333  1.00  0.00     0.144 C 
ENDROOT
BRANCH   1   2
ATOM      2  N   UNL     1     -16.382 -43.057  25.478  1.00  0.00    -0.267 NA
BRANCH   2   3
ATOM      3  C   UNL     1     -16.950 -42.376  24.541  1.00  0.00     0.144 A 
ATOM      4  N   UNL     1     -16.309 -41.813  23.455  1.00  0.00    -0.325 N 
ATOM      5  C   UNL     1     -16.946 -41.178  22.405  1.00  0.00     0.120 A 
ATOM      6  C   UNL     1     -18.298 -41.048  22.457  1.00  0.00     0.094 A 
ATOM      7  C   UNL     1     -18.444 -42.185  24.641  1.00  0.00     0.096 A 
ATOM      8  C   UNL     1     -19.038 -41.547  23.615  1.00  0.00     0.046 A 
ATOM      9  H   UNL     1     -15.344 -42.042  23.280  1.00  0.00     0.170 HD
BRANCH   5  10
ATOM     10  N   UNL     1     -16.152 -40.731  21.369  1.00  0.00    -0.384 N 
ATOM     11  H   UNL     1     -16.028 -39.723  21.389  1.00  0.00     0.158 HD
ATOM     12  H   UNL     1     -16.469 -41.018  20.441  1.00  0.00     0.158 HD
ENDBRANCH   5  10
BRANCH   6  13
ATOM     13  C   UNL     1     -19.038 -40.410  21.416  1.00  0.00     0.103 C 
ATOM     14  N   UNL     1     -19.626 -39.913  20.549  1.00  0.00    -0.192 NA
ENDBRANCH   6  13
BRANCH   7  15
ATOM     15  C   UNL     1     -19.176 -42.667  25.758  1.00  0.00     0.103 C 
ATOM     16  N   UNL     1     -19.813 -43.085  26.635  1.00  0.00    -0.192 NA
ENDBRANCH   7  15
ENDBRANCH   2   3
ENDBRANCH   1   2
BRANCH   1  17
ATOM     17  C   UNL     1     -13.994 -43.167  26.012  1.00  0.00     0.024 C 
BRANCH  17  18
ATOM     18  C   UNL     1     -13.894 -44.622  26.482  1.00  0.00     0.006 C 
BRANCH  18  19
ATOM     19  C   UNL     1     -12.994 -44.880  27.705  1.00  0.00     0.000 C 
ATOM     20  C   UNL     1     -13.872 -45.101  28.951  1.00  0.00     0.065 C 
ATOM     21  C   UNL     1     -12.001 -43.735  27.954  1.00  0.00     0.065 C 
ATOM     22  C   UNL     1     -13.038 -45.308  30.209  1.00  0.00     0.262 C 
ATOM     23  C   UNL     1     -11.192 -43.948  29.231  1.00  0.00     0.262 C 
ATOM     24  N   UNL     1     -12.132 -44.118  30.396  1.00  0.00    -0.331 N 
ATOM     25  H   UNL     1     -12.739 -43.289  30.412  1.00  0.00     0.348 HD
BRANCH  24  26
ATOM     26  C   UNL     1     -11.435 -44.098  31.744  1.00  0.00     0.299 C 
BRANCH  26  27
ATOM     27  C   UNL     1     -10.016 -44.598  31.758  1.00  0.00     0.006 A 
ATOM     28  C   UNL     1      -9.720 -45.923  31.400  1.00  0.00     0.009 A 
ATOM     29  C   UNL     1      -8.961 -43.747  32.126  1.00  0.00     0.009 A 
ATOM     30  C   UNL     1      -8.401 -46.379  31.394  1.00  0.00     0.001 A 
ATOM     31  C   UNL     1      -7.644 -44.206  32.119  1.00  0.00     0.001 A 
ATOM     32  C   UNL     1      -7.364 -45.520  31.750  1.00  0.00     0.000 A 
ENDBRANCH  26  27
ENDBRANCH  24  26
ENDBRANCH  18  19
ENDBRANCH  17  18
ENDBRANCH   1  17
TORSDOF 10
ENDMDL
MODEL 5
REMARK VINA RESULT:    -9.872      3.332      9.676
REMARK INTER + INTRA:         -16.420
REMARK INTER:                 -15.921
REMARK INTRA:                  -0.500
REMARK UNBOUND:                -1.065
REMARK SMILES N#Cc1cc(C#N)c(=NCCC[C@H]2CC[N@H+](Cc3ccccc3)CC2)[nH]c1N
REMARK SMILES IDX 10 1 9 2 8 3 26 4 27 5 3 6 5 7 4 8 28 10 2 13 1 14 6 15 7 16
REMARK SMILES IDX 11 17 12 18 13 19 14 20 25 21 15 22 24 23 16 24 17 26 18 27
REMARK SMILES IDX 19 28 23 29 20 30 22 31 21 32
REMARK H PARENT 26 9 28 11 28 12 16 25
ROOT
ATOM      1  C   UNL     1     -15.558 -42.708  26.199  1.00  0.00     0.144 C 
ENDROOT
BRANCH   1   2
ATOM      2  N   UNL     1     -16.505 -43.208  25.214  1.00  0.00    -0.267 NA
BRANCH   2   3
ATOM      3  C   UNL     1     -17.055 -42.456  24.322  1.00  0.00     0.144 A 
ATOM      4  N   UNL     1     -16.394 -41.823  23.287  1.00  0.00    -0.325 N 
ATOM      5  C   UNL     1     -17.012 -41.109  22.277  1.00  0.00     0.120 A 
ATOM      6  C   UNL     1     -18.364 -40.970  22.320  1.00  0.00     0.094 A 
ATOM      7  C   UNL     1     -18.548 -42.259  24.415  1.00  0.00     0.096 A 
ATOM      8  C   UNL     1     -19.123 -41.544  23.430  1.00  0.00     0.046 A 
ATOM      9  H   UNL     1     -15.429 -42.047  23.109  1.00  0.00     0.170 HD
BRANCH   5  10
ATOM     10  N   UNL     1     -16.200 -40.597  21.285  1.00  0.00    -0.384 N 
ATOM     11  H   UNL     1     -16.630 -39.810  20.807  1.00  0.00     0.158 HD
ATOM     12  H   UNL     1     -15.887 -41.285  20.598  1.00  0.00     0.158 HD
ENDBRANCH   5  10
BRANCH   6  13
ATOM     13  C   UNL     1     -19.083 -40.253  21.317  1.00  0.00     0.103 C 
ATOM     14  N   UNL     1     -19.679 -39.652  20.525  1.00  0.00    -0.192 NA
ENDBRANCH   6  13
BRANCH   7  15
ATOM     15  C   UNL     1     -19.300 -42.813  25.485  1.00  0.00     0.103 C 
ATOM     16  N   UNL     1     -19.926 -43.211  26.378  1.00  0.00    -0.192 NA
ENDBRANCH   7  15
ENDBRANCH   2   3
ENDBRANCH   1   2
BRANCH   1  17
ATOM     17  C   UNL     1     -14.175 -43.313  25.960  1.00  0.00     0.024 C 
BRANCH  17  18
ATOM     18  C   UNL     1     -13.979 -44.676  26.633  1.00  0.00     0.006 C 
BRANCH  18  19
ATOM     19  C   UNL     1     -12.968 -44.721  27.794  1.00  0.00     0.000 C 
ATOM     20  C   UNL     1     -12.093 -45.981  27.663  1.00  0.00     0.065 C 
ATOM     21  C   UNL     1     -13.653 -44.692  29.168  1.00  0.00     0.065 C 
ATOM     22  C   UNL     1     -11.105 -46.113  28.815  1.00  0.00     0.262 C 
ATOM     23  C   UNL     1     -12.651 -44.850  30.309  1.00  0.00     0.262 C 
ATOM     24  N   UNL     1     -11.868 -46.123  30.115  1.00  0.00    -0.331 N 
ATOM     25  H   UNL     1     -12.554 -46.885  30.045  1.00  0.00     0.348 HD
BRANCH  24  26
ATOM     26  C   UNL     1     -11.013 -46.497  31.312  1.00  0.00     0.299 C 
BRANCH  26  27
ATOM     27  C   UNL     1      -9.789 -45.651  31.535  1.00  0.00     0.006 A 
ATOM     28  C   UNL     1      -8.511 -46.150  31.239  1.00  0.00     0.009 A 
ATOM     29  C   UNL     1      -9.903 -44.345  32.040  1.00  0.00     0.009 A 
ATOM     30  C   UNL     1      -7.378 -45.357  31.428  1.00  0.00     0.001 A 
ATOM     31  C   UNL     1      -8.769 -43.555  32.227  1.00  0.00     0.001 A 
ATOM     32  C   UNL     1      -7.508 -44.060  31.918  1.00  0.00     0.000 A 
ENDBRANCH  26  27
ENDBRANCH  24  26
ENDBRANCH  18  19
ENDBRANCH  17  18
ENDBRANCH   1  17
TORSDOF 10
ENDMDL
MODEL 6
REMARK VINA RESULT:    -9.786      1.854      3.977
REMARK INTER + INTRA:         -16.286
REMARK INTER:                 -15.874
REMARK INTRA:                  -0.412
REMARK UNBOUND:                -1.065
REMARK SMILES N#Cc1cc(C#N)c(=NCCC[C@H]2CC[N@H+](Cc3ccccc3)CC2)[nH]c1N
REMARK SMILES IDX 10 1 9 2 8 3 26 4 27 5 3 6 5 7 4 8 28 10 2 13 1 14 6 15 7 16
REMARK SMILES IDX 11 17 12 18 13 19 14 20 25 21 15 22 24 23 16 24 17 26 18 27
REMARK SMILES IDX 19 28 23 29 20 30 22 31 21 32
REMARK H PARENT 26 9 28 11 28 12 16 25
ROOT
ATOM      1  C   UNL     1     -11.062 -46.361  28.119  1.00  0.00     0.144 C 
ENDROOT
BRANCH   1   2
ATOM      2  N   UNL     1     -11.104 -46.520  29.564  1.00  0.00    -0.267 NA
BRANCH   2   3
ATOM      3  C   UNL     1     -10.321 -45.881  30.365  1.00  0.00     0.144 A 
ATOM      4  N   UNL     1      -8.940 -45.892  30.320  1.00  0.00    -0.325 N 
ATOM      5  C   UNL     1      -8.118 -45.118  31.117  1.00  0.00     0.120 A 
ATOM      6  C   UNL     1      -8.696 -44.319  32.053  1.00  0.00     0.094 A 
ATOM      7  C   UNL     1     -10.972 -45.045  31.440  1.00  0.00     0.096 A 
ATOM      8  C   UNL     1     -10.149 -44.314  32.215  1.00  0.00     0.046 A 
ATOM      9  H   UNL     1      -8.478 -46.319  29.533  1.00  0.00     0.170 HD
BRANCH   5  10
ATOM     10  N   UNL     1      -6.760 -45.209  30.891  1.00  0.00    -0.384 N 
ATOM     11  H   UNL     1      -6.441 -44.537  30.198  1.00  0.00     0.158 HD
ATOM     12  H   UNL     1      -6.436 -46.143  30.634  1.00  0.00     0.158 HD
ENDBRANCH   5  10
BRANCH   6  13
ATOM     13  C   UNL     1      -7.924 -43.484  32.915  1.00  0.00     0.103 C 
ATOM     14  N   UNL     1      -7.323 -42.798  33.631  1.00  0.00    -0.192 NA
ENDBRANCH   6  13
BRANCH   7  15
ATOM     15  C   UNL     1     -12.382 -45.027  31.608  1.00  0.00     0.103 C 
ATOM     16  N   UNL     1     -13.535 -45.071  31.739  1.00  0.00    -0.192 NA
ENDBRANCH   7  15
ENDBRANCH   2   3
ENDBRANCH   1   2
BRANCH   1  17
ATOM     17  C   UNL     1     -12.473 -46.435  27.536  1.00  0.00     0.024 C 
BRANCH  17  18
ATOM     18  C   UNL     1     -13.392 -45.306  28.014  1.00  0.00     0.006 C 
BRANCH  18  19
ATOM     19  C   UNL     1     -13.839 -44.294  26.943  1.00  0.00     0.000 C 
ATOM     20  C   UNL     1     -15.041 -43.487  27.469  1.00  0.00     0.065 C 
ATOM     21  C   UNL     1     -14.197 -44.969  25.611  1.00  0.00     0.065 C 
ATOM     22  C   UNL     1     -15.567 -42.502  26.432  1.00  0.00     0.262 C 
ATOM     23  C   UNL     1     -14.745 -43.972  24.594  1.00  0.00     0.262 C 
ATOM     24  N   UNL     1     -15.934 -43.260  25.182  1.00  0.00    -0.331 N 
ATOM     25  H   UNL     1     -16.605 -43.985  25.467  1.00  0.00     0.348 HD
BRANCH  24  26
ATOM     26  C   UNL     1     -16.698 -42.420  24.173  1.00  0.00     0.299 C 
BRANCH  26  27
ATOM     27  C   UNL     1     -18.093 -42.023  24.571  1.00  0.00     0.006 A 
ATOM     28  C   UNL     1     -18.502 -42.091  25.912  1.00  0.00     0.009 A 
ATOM     29  C   UNL     1     -19.012 -41.574  23.607  1.00  0.00     0.009 A 
ATOM     30  C   UNL     1     -19.790 -41.702  26.282  1.00  0.00     0.001 A 
ATOM     31  C   UNL     1     -20.299 -41.187  23.981  1.00  0.00     0.001 A 
ATOM     32  C   UNL     1     -20.686 -41.247  25.317  1.00  0.00     0.000 A 
ENDBRANCH  26  27
ENDBRANCH  24  26
ENDBRANCH  18  19
ENDBRANCH  17  18
ENDBRANCH   1  17
TORSDOF 10
ENDMDL
MODEL 7
REMARK VINA RESULT:    -9.694      1.825      2.999
REMARK INTER + INTRA:         -16.143
REMARK INTER:                 -15.616
REMARK INTRA:                  -0.527
REMARK UNBOUND:                -1.065
REMARK SMILES N#Cc1cc(C#N)c(=NCCC[C@H]2CC[N@H+](Cc3ccccc3)CC2)[nH]c1N
REMARK SMILES IDX 10 1 9 2 8 3 26 4 27 5 3 6 5 7 4 8 28 10 2 13 1 14 6 15 7 16
REMARK SMILES IDX 11 17 12 18 13 19 14 20 25 21 15 22 24 23 16 24 17 26 18 27
REMARK SMILES IDX 19 28 23 29 20 30 22 31 21 32
REMARK H PARENT 26 9 28 11 28 12 16 25
ROOT
ATOM      1  C   UNL     1     -11.114 -45.870  28.647  1.00  0.00     0.144 C 
ENDROOT
BRANCH   1   2
ATOM      2  N   UNL     1     -11.566 -45.946  30.027  1.00  0.00    -0.267 NA
BRANCH   2   3
ATOM      3  C   UNL     1     -11.432 -44.977  30.867  1.00  0.00     0.144 A 
ATOM      4  N   UNL     1     -12.380 -44.008  31.135  1.00  0.00    -0.325 N 
ATOM      5  C   UNL     1     -12.263 -43.039  32.114  1.00  0.00     0.120 A 
ATOM      6  C   UNL     1     -11.115 -42.994  32.841  1.00  0.00     0.094 A 
ATOM      7  C   UNL     1     -10.129 -44.900  31.625  1.00  0.00     0.096 A 
ATOM      8  C   UNL     1     -10.033 -43.936  32.560  1.00  0.00     0.046 A 
ATOM      9  H   UNL     1     -13.308 -44.111  30.758  1.00  0.00     0.170 HD
BRANCH   5  10
ATOM     10  N   UNL     1     -13.338 -42.191  32.287  1.00  0.00    -0.384 N 
ATOM     11  H   UNL     1     -14.224 -42.687  32.266  1.00  0.00     0.158 HD
ATOM     12  H   UNL     1     -13.368 -41.409  31.631  1.00  0.00     0.158 HD
ENDBRANCH   5  10
BRANCH   6  13
ATOM     13  C   UNL     1     -10.912 -42.031  33.874  1.00  0.00     0.103 C 
ATOM     14  N   UNL     1     -10.763 -41.227  34.697  1.00  0.00    -0.192 NA
ENDBRANCH   6  13
BRANCH   7  15
ATOM     15  C   UNL     1      -9.070 -45.809  31.365  1.00  0.00     0.103 C 
ATOM     16  N   UNL     1      -8.237 -46.596  31.172  1.00  0.00    -0.192 NA
ENDBRANCH   7  15
ENDBRANCH   2   3
ENDBRANCH   1   2
BRANCH   1  17
ATOM     17  C   UNL     1     -12.259 -46.207  27.693  1.00  0.00     0.024 C 
BRANCH  17  18
ATOM     18  C   UNL     1     -13.451 -45.250  27.806  1.00  0.00     0.006 C 
BRANCH  18  19
ATOM     19  C   UNL     1     -13.731 -44.366  26.576  1.00  0.00     0.000 C 
ATOM     20  C   UNL     1     -14.767 -43.287  26.943  1.00  0.00     0.065 C 
ATOM     21  C   UNL     1     -14.220 -45.180  25.369  1.00  0.00     0.065 C 
ATOM     22  C   UNL     1     -15.129 -42.412  25.751  1.00  0.00     0.262 C 
ATOM     23  C   UNL     1     -14.601 -44.285  24.192  1.00  0.00     0.262 C 
ATOM     24  N   UNL     1     -15.640 -43.290  24.637  1.00  0.00    -0.331 N 
ATOM     25  H   UNL     1     -16.422 -43.831  25.028  1.00  0.00     0.348 HD
BRANCH  24  26
ATOM     26  C   UNL     1     -16.261 -42.509  23.493  1.00  0.00     0.299 C 
BRANCH  26  27
ATOM     27  C   UNL     1     -17.684 -42.066  23.695  1.00  0.00     0.006 A 
ATOM     28  C   UNL     1     -18.362 -42.361  24.889  1.00  0.00     0.009 A 
ATOM     29  C   UNL     1     -18.360 -41.348  22.694  1.00  0.00     0.009 A 
ATOM     30  C   UNL     1     -19.676 -41.931  25.082  1.00  0.00     0.001 A 
ATOM     31  C   UNL     1     -19.673 -40.921  22.892  1.00  0.00     0.001 A 
ATOM     32  C   UNL     1     -20.329 -41.209  24.086  1.00  0.00     0.000 A 
ENDBRANCH  26  27
ENDBRANCH  24  26
ENDBRANCH  18  19
ENDBRANCH  17  18
ENDBRANCH   1  17
TORSDOF 10
ENDMDL
MODEL 8
REMARK VINA RESULT:    -9.330      3.003      8.936
REMARK INTER + INTRA:         -15.576
REMARK INTER:                 -15.020
REMARK INTRA:                  -0.556
REMARK UNBOUND:                -1.065
REMARK SMILES N#Cc1cc(C#N)c(=NCCC[C@H]2CC[N@H+](Cc3ccccc3)CC2)[nH]c1N
REMARK SMILES IDX 10 1 9 2 8 3 26 4 27 5 3 6 5 7 4 8 28 10 2 13 1 14 6 15 7 16
REMARK SMILES IDX 11 17 12 18 13 19 14 20 25 21 15 22 24 23 16 24 17 26 18 27
REMARK SMILES IDX 19 28 23 29 20 30 22 31 21 32
REMARK H PARENT 26 9 28 11 28 12 16 25
ROOT
ATOM      1  C   UNL     1     -15.104 -42.039  24.753  1.00  0.00     0.144 C 
ENDROOT
BRANCH   1   2
ATOM      2  N   UNL     1     -16.336 -42.751  24.450  1.00  0.00    -0.267 NA
BRANCH   2   3
ATOM      3  C   UNL     1     -17.461 -42.485  25.022  1.00  0.00     0.144 A 
ATOM      4  N   UNL     1     -17.806 -42.826  26.316  1.00  0.00    -0.325 N 
ATOM      5  C   UNL     1     -18.973 -42.442  26.949  1.00  0.00     0.120 A 
ATOM      6  C   UNL     1     -19.879 -41.716  26.241  1.00  0.00     0.094 A 
ATOM      7  C   UNL     1     -18.484 -41.733  24.207  1.00  0.00     0.096 A 
ATOM      8  C   UNL     1     -19.620 -41.385  24.841  1.00  0.00     0.046 A 
ATOM      9  H   UNL     1     -17.100 -43.198  26.931  1.00  0.00     0.170 HD
BRANCH   5  10
ATOM     10  N   UNL     1     -19.124 -42.819  28.268  1.00  0.00    -0.384 N 
ATOM     11  H   UNL     1     -20.021 -43.263  28.438  1.00  0.00     0.158 HD
ATOM     12  H   UNL     1     -18.983 -42.064  28.941  1.00  0.00     0.158 HD
ENDBRANCH   5  10
BRANCH   6  13
ATOM     13  C   UNL     1     -21.108 -41.273  26.817  1.00  0.00     0.103 C 
ATOM     14  N   UNL     1     -22.109 -40.892  27.262  1.00  0.00    -0.192 NA
ENDBRANCH   6  13
BRANCH   7  15
ATOM     15  C   UNL     1     -18.246 -41.402  22.847  1.00  0.00     0.103 C 
ATOM     16  N   UNL     1     -18.108 -41.141  21.724  1.00  0.00    -0.192 NA
ENDBRANCH   7  15
ENDBRANCH   2   3
ENDBRANCH   1   2
BRANCH   1  17
ATOM     17  C   UNL     1     -14.528 -42.516  26.086  1.00  0.00     0.024 C 
BRANCH  17  18
ATOM     18  C   UNL     1     -14.146 -44.000  26.091  1.00  0.00     0.006 C 
BRANCH  18  19
ATOM     19  C   UNL     1     -13.367 -44.496  27.323  1.00  0.00     0.000 C 
ATOM     20  C   UNL     1     -14.332 -44.653  28.513  1.00  0.00     0.065 C 
ATOM     21  C   UNL     1     -12.209 -43.561  27.700  1.00  0.00     0.065 C 
ATOM     22  C   UNL     1     -13.612 -45.090  29.781  1.00  0.00     0.262 C 
ATOM     23  C   UNL     1     -11.514 -44.001  28.986  1.00  0.00     0.262 C 
ATOM     24  N   UNL     1     -12.528 -44.091  30.097  1.00  0.00    -0.331 N 
ATOM     25  H   UNL     1     -12.986 -43.173  30.156  1.00  0.00     0.348 HD
BRANCH  24  26
ATOM     26  C   UNL     1     -11.908 -44.289  31.468  1.00  0.00     0.299 C 
BRANCH  26  27
ATOM     27  C   UNL     1     -10.544 -44.925  31.487  1.00  0.00     0.006 A 
ATOM     28  C   UNL     1     -10.377 -46.270  31.122  1.00  0.00     0.009 A 
ATOM     29  C   UNL     1      -9.414 -44.182  31.868  1.00  0.00     0.009 A 
ATOM     30  C   UNL     1      -9.108 -46.851  31.121  1.00  0.00     0.001 A 
ATOM     31  C   UNL     1      -8.148 -44.767  31.866  1.00  0.00     0.001 A 
ATOM     32  C   UNL     1      -7.995 -46.099  31.489  1.00  0.00     0.000 A 
ENDBRANCH  26  27
ENDBRANCH  24  26
ENDBRANCH  18  19
ENDBRANCH  17  18
ENDBRANCH   1  17
TORSDOF 10
ENDMDL
MODEL 9
REMARK VINA RESULT:    -9.262      3.499      9.330
REMARK INTER + INTRA:         -15.471
REMARK INTER:                 -14.814
REMARK INTRA:                  -0.657
REMARK UNBOUND:                -1.065
REMARK SMILES N#Cc1cc(C#N)c(=NCCC[C@H]2CC[N@H+](Cc3ccccc3)CC2)[nH]c1N
REMARK SMILES IDX 10 1 9 2 8 3 26 4 27 5 3 6 5 7 4 8 28 10 2 13 1 14 6 15 7 16
REMARK SMILES IDX 11 17 12 18 13 19 14 20 25 21 15 22 24 23 16 24 17 26 18 27
REMARK SMILES IDX 19 28 23 29 20 30 22 31 21 32
REMARK H PARENT 26 9 28 11 28 12 16 25
ROOT
ATOM      1  C   UNL     1     -15.501 -43.230  23.795  1.00  0.00     0.144 C 
ENDROOT
BRANCH   1   2
ATOM      2  N   UNL     1     -16.402 -42.107  23.999  1.00  0.00    -0.267 NA
BRANCH   2   3
ATOM      3  C   UNL     1     -17.678 -42.188  23.830  1.00  0.00     0.144 A 
ATOM      4  N   UNL     1     -18.333 -42.121  22.615  1.00  0.00    -0.325 N 
ATOM      5  C   UNL     1     -19.691 -42.316  22.440  1.00  0.00     0.120 A 
ATOM      6  C   UNL     1     -20.456 -42.543  23.541  1.00  0.00     0.094 A 
ATOM      7  C   UNL     1     -18.523 -42.378  25.065  1.00  0.00     0.096 A 
ATOM      8  C   UNL     1     -19.845 -42.548  24.869  1.00  0.00     0.046 A 
ATOM      9  H   UNL     1     -17.795 -42.140  21.764  1.00  0.00     0.170 HD
BRANCH   5  10
ATOM     10  N   UNL     1     -20.167 -42.277  21.145  1.00  0.00    -0.384 N 
ATOM     11  H   UNL     1     -19.856 -43.076  20.599  1.00  0.00     0.158 HD
ATOM     12  H   UNL     1     -19.952 -41.415  20.643  1.00  0.00     0.158 HD
ENDBRANCH   5  10
BRANCH   6  13
ATOM     13  C   UNL     1     -21.864 -42.759  23.452  1.00  0.00     0.103 C 
ATOM     14  N   UNL     1     -23.003 -42.947  23.351  1.00  0.00    -0.192 NA
ENDBRANCH   6  13
BRANCH   7  15
ATOM     15  C   UNL     1     -17.944 -42.388  26.362  1.00  0.00     0.103 C 
ATOM     16  N   UNL     1     -17.432 -42.435  27.402  1.00  0.00    -0.192 NA
ENDBRANCH   7  15
ENDBRANCH   2   3
ENDBRANCH   1   2
BRANCH   1  17
ATOM     17  C   UNL     1     -14.465 -43.292  24.916  1.00  0.00     0.024 C 
BRANCH  17  18
ATOM     18  C   UNL     1     -14.373 -44.666  25.590  1.00  0.00     0.006 C 
BRANCH  18  19
ATOM     19  C   UNL     1     -13.648 -44.710  26.948  1.00  0.00     0.000 C 
ATOM     20  C   UNL     1     -12.988 -46.089  27.134  1.00  0.00     0.065 C 
ATOM     21  C   UNL     1     -14.589 -44.410  28.124  1.00  0.00     0.065 C 
ATOM     22  C   UNL     1     -12.299 -46.216  28.485  1.00  0.00     0.262 C 
ATOM     23  C   UNL     1     -13.888 -44.566  29.471  1.00  0.00     0.262 C 
ATOM     24  N   UNL     1     -13.307 -45.952  29.575  1.00  0.00    -0.331 N 
ATOM     25  H   UNL     1     -14.080 -46.611  29.422  1.00  0.00     0.348 HD
BRANCH  24  26
ATOM     26  C   UNL     1     -12.795 -46.292  30.963  1.00  0.00     0.299 C 
BRANCH  26  27
ATOM     27  C   UNL     1     -11.457 -45.710  31.330  1.00  0.00     0.006 A 
ATOM     28  C   UNL     1     -10.277 -46.443  31.124  1.00  0.00     0.009 A 
ATOM     29  C   UNL     1     -11.364 -44.423  31.884  1.00  0.00     0.009 A 
ATOM     30  C   UNL     1      -9.035 -45.893  31.447  1.00  0.00     0.001 A 
ATOM     31  C   UNL     1     -10.121 -43.877  32.206  1.00  0.00     0.001 A 
ATOM     32  C   UNL     1      -8.958 -44.611  31.984  1.00  0.00     0.000 A 
ENDBRANCH  26  27
ENDBRANCH  24  26
ENDBRANCH  18  19
ENDBRANCH  17  18
ENDBRANCH   1  17
TORSDOF 10
ENDMDL
