MODEL 1
REMARK VINA RESULT:   -12.628      0.000      0.000
REMARK INTER + INTRA:         -18.677
REMARK INTER:                 -17.796
REMARK INTRA:                  -0.881
REMARK UNBOUND:                -0.881
REMARK SMILES O=C1CCc2cc(C(O)=CC[C@H]3CC[N@H+](Cc4ccccc4O)CC3)cc3ccn1c23
REMARK SMILES IDX 12 1 25 2 24 3 15 4 14 5 13 6 11 8 10 9 8 10 9 11 7 13 6 14
REMARK SMILES IDX 26 15 5 16 27 17 31 18 4 19 28 20 30 21 3 22 29 23 2 24 1 25
REMARK SMILES IDX 16 26 17 27 18 28 22 29 19 30 21 31 20 32 23 33
REMARK H PARENT 15 7 9 12 23 34
ROOT
ATOM      1  C   UNL     1     -13.189 -45.936  27.680  1.00  0.00     0.004 C 
ATOM      2  C   UNL     1     -11.659 -46.081  27.696  1.00  0.00     0.065 C 
ATOM      3  C   UNL     1     -11.145 -46.574  29.041  1.00  0.00     0.262 C 
ATOM      4  N   UNL     1     -11.616 -45.653  30.126  1.00  0.00    -0.331 N 
ATOM      5  C   UNL     1     -13.115 -45.548  30.187  1.00  0.00     0.262 C 
ATOM      6  C   UNL     1     -13.644 -45.048  28.852  1.00  0.00     0.065 C 
ATOM      7  H   UNL     1     -11.249 -44.706  29.920  1.00  0.00     0.348 HD
ENDROOT
BRANCH   1   8
ATOM      8  C   UNL     1     -13.647 -45.376  26.321  1.00  0.00     0.035 C 
BRANCH   8   9
ATOM      9  C   UNL     1     -13.958 -43.906  26.368  1.00  0.00     0.020 C 
BRANCH   9  10
ATOM     10  C   UNL     1     -14.497 -43.209  25.359  1.00  0.00     0.118 C 
BRANCH  10  11
ATOM     11  O   UNL     1     -13.737 -42.811  24.279  1.00  0.00    -0.508 OA
ATOM     12  H   UNL     1     -13.298 -41.974  24.524  1.00  0.00     0.293 HD
ENDBRANCH  10  11
BRANCH  10  13
ATOM     13  C   UNL     1     -15.907 -42.786  25.355  1.00  0.00     0.017 A 
ATOM     14  C   UNL     1     -16.557 -42.478  24.147  1.00  0.00     0.017 A 
ATOM     15  C   UNL     1     -16.599 -42.698  26.583  1.00  0.00     0.022 A 
ATOM     16  C   UNL     1     -17.889 -42.058  24.135  1.00  0.00    -0.022 A 
ATOM     17  C   UNL     1     -17.948 -42.298  26.584  1.00  0.00     0.001 A 
ATOM     18  C   UNL     1     -18.527 -41.980  25.370  1.00  0.00     0.059 A 
ATOM     19  C   UNL     1     -18.711 -41.789  22.914  1.00  0.00     0.047 C 
ATOM     20  C   UNL     1     -18.966 -42.138  27.563  1.00  0.00     0.029 A 
ATOM     21  N   UNL     1     -19.833 -41.597  25.572  1.00  0.00    -0.287 N 
ATOM     22  C   UNL     1     -19.896 -40.861  23.237  1.00  0.00     0.106 C 
ATOM     23  C   UNL     1     -20.119 -41.737  26.914  1.00  0.00     0.095 A 
ATOM     24  C   UNL     1     -20.654 -41.153  24.529  1.00  0.00     0.231 C 
ATOM     25  O   UNL     1     -21.837 -40.927  24.737  1.00  0.00    -0.274 OA
ENDBRANCH  10  13
ENDBRANCH   9  10
ENDBRANCH   8   9
ENDBRANCH   1   8
BRANCH   4  26
ATOM     26  C   UNL     1     -10.995 -45.976  31.465  1.00  0.00     0.302 C 
BRANCH  26  27
ATOM     27  C   UNL     1      -9.714 -45.233  31.738  1.00  0.00     0.048 A 
ATOM     28  C   UNL     1      -9.754 -43.931  32.260  1.00  0.00     0.013 A 
ATOM     29  C   UNL     1      -8.463 -45.832  31.536  1.00  0.00     0.124 A 
ATOM     30  C   UNL     1      -8.570 -43.249  32.549  1.00  0.00     0.001 A 
ATOM     31  C   UNL     1      -7.279 -45.157  31.823  1.00  0.00     0.046 A 
ATOM     32  C   UNL     1      -7.337 -43.860  32.330  1.00  0.00     0.004 A 
BRANCH  29  33
ATOM     33  O   UNL     1      -8.425 -47.104  31.024  1.00  0.00    -0.507 OA
ATOM     34  H   UNL     1      -8.228 -47.031  30.068  1.00  0.00     0.293 HD
ENDBRANCH  29  33
ENDBRANCH  26  27
ENDBRANCH   4  26
TORSDOF 8
ENDMDL
MODEL 2
REMARK VINA RESULT:   -12.550      1.226      1.538
REMARK INTER + INTRA:         -18.566
REMARK INTER:                 -17.655
REMARK INTRA:                  -0.911
REMARK UNBOUND:                -0.881
REMARK SMILES O=C1CCc2cc(C(O)=CC[C@H]3CC[N@H+](Cc4ccccc4O)CC3)cc3ccn1c23
REMARK SMILES IDX 12 1 25 2 24 3 15 4 14 5 13 6 11 8 10 9 8 10 9 11 7 13 6 14
REMARK SMILES IDX 26 15 5 16 27 17 31 18 4 19 28 20 30 21 3 22 29 23 2 24 1 25
REMARK SMILES IDX 16 26 17 27 18 28 22 29 19 30 21 31 20 32 23 33
REMARK H PARENT 15 7 9 12 23 34
ROOT
ATOM      1  C   UNL     1     -12.854 -44.430  27.506  1.00  0.00     0.004 C 
ATOM      2  C   UNL     1     -11.567 -43.800  28.059  1.00  0.00     0.065 C 
ATOM      3  C   UNL     1     -10.805 -44.757  28.966  1.00  0.00     0.262 C 
ATOM      4  N   UNL     1     -11.705 -45.220  30.073  1.00  0.00    -0.331 N 
ATOM      5  C   UNL     1     -12.941 -45.910  29.565  1.00  0.00     0.262 C 
ATOM      6  C   UNL     1     -13.717 -44.963  28.663  1.00  0.00     0.065 C 
ATOM      7  H   UNL     1     -12.014 -44.384  30.601  1.00  0.00     0.348 HD
ENDROOT
BRANCH   1   8
ATOM      8  C   UNL     1     -13.613 -43.400  26.648  1.00  0.00     0.035 C 
BRANCH   8   9
ATOM      9  C   UNL     1     -14.765 -44.003  25.894  1.00  0.00     0.020 C 
BRANCH   9  10
ATOM     10  C   UNL     1     -15.351 -43.446  24.825  1.00  0.00     0.118 C 
BRANCH  10  11
ATOM     11  O   UNL     1     -14.700 -43.367  23.613  1.00  0.00    -0.508 OA
ATOM     12  H   UNL     1     -14.757 -42.441  23.311  1.00  0.00     0.293 HD
ENDBRANCH  10  11
BRANCH  10  13
ATOM     13  C   UNL     1     -16.695 -42.848  24.885  1.00  0.00     0.017 A 
ATOM     14  C   UNL     1     -17.348 -42.440  23.708  1.00  0.00     0.017 A 
ATOM     15  C   UNL     1     -17.320 -42.690  26.141  1.00  0.00     0.022 A 
ATOM     16  C   UNL     1     -18.615 -41.854  23.755  1.00  0.00    -0.022 A 
ATOM     17  C   UNL     1     -18.606 -42.122  26.202  1.00  0.00     0.001 A 
ATOM     18  C   UNL     1     -19.187 -41.715  25.017  1.00  0.00     0.059 A 
ATOM     19  C   UNL     1     -19.444 -41.465  22.572  1.00  0.00     0.047 C 
ATOM     20  C   UNL     1     -19.556 -41.848  27.224  1.00  0.00     0.029 A 
ATOM     21  N   UNL     1     -20.425 -41.171  25.277  1.00  0.00    -0.287 N 
ATOM     22  C   UNL     1     -20.487 -40.398  22.953  1.00  0.00     0.106 C 
ATOM     23  C   UNL     1     -20.673 -41.295  26.627  1.00  0.00     0.095 A 
ATOM     24  C   UNL     1     -21.223 -40.611  24.272  1.00  0.00     0.231 C 
ATOM     25  O   UNL     1     -22.359 -40.239  24.532  1.00  0.00    -0.274 OA
ENDBRANCH  10  13
ENDBRANCH   9  10
ENDBRANCH   8   9
ENDBRANCH   1   8
BRANCH   4  26
ATOM     26  C   UNL     1     -10.967 -46.028  31.115  1.00  0.00     0.302 C 
BRANCH  26  27
ATOM     27  C   UNL     1      -9.692 -45.386  31.594  1.00  0.00     0.048 A 
ATOM     28  C   UNL     1      -8.457 -46.004  31.345  1.00  0.00     0.013 A 
ATOM     29  C   UNL     1      -9.697 -44.144  32.243  1.00  0.00     0.124 A 
ATOM     30  C   UNL     1      -7.268 -45.397  31.755  1.00  0.00     0.001 A 
ATOM     31  C   UNL     1      -8.514 -43.534  32.654  1.00  0.00     0.046 A 
ATOM     32  C   UNL     1      -7.297 -44.167  32.408  1.00  0.00     0.004 A 
BRANCH  29  33
ATOM     33  O   UNL     1     -10.904 -43.542  32.487  1.00  0.00    -0.507 OA
ATOM     34  H   UNL     1     -11.324 -43.361  31.621  1.00  0.00     0.293 HD
ENDBRANCH  29  33
ENDBRANCH  26  27
ENDBRANCH   4  26
TORSDOF 8
ENDMDL
MODEL 3
REMARK VINA RESULT:   -12.415      0.964      2.056
REMARK INTER + INTRA:         -18.376
REMARK INTER:                 -17.642
REMARK INTRA:                  -0.734
REMARK UNBOUND:                -0.881
REMARK SMILES O=C1CCc2cc(C(O)=CC[C@H]3CC[N@H+](Cc4ccccc4O)CC3)cc3ccn1c23
REMARK SMILES IDX 12 1 25 2 24 3 15 4 14 5 13 6 11 8 10 9 8 10 9 11 7 13 6 14
REMARK SMILES IDX 26 15 5 16 27 17 31 18 4 19 28 20 30 21 3 22 29 23 2 24 1 25
REMARK SMILES IDX 16 26 17 27 18 28 22 29 19 30 21 31 20 32 23 33
REMARK H PARENT 15 7 9 12 23 34
ROOT
ATOM      1  C   UNL     1     -12.902 -44.336  27.468  1.00  0.00     0.004 C 
ATOM      2  C   UNL     1     -11.592 -43.727  27.991  1.00  0.00     0.065 C 
ATOM      3  C   UNL     1     -10.853 -44.675  28.926  1.00  0.00     0.262 C 
ATOM      4  N   UNL     1     -11.758 -45.072  30.054  1.00  0.00    -0.331 N 
ATOM      5  C   UNL     1     -13.018 -45.741  29.578  1.00  0.00     0.262 C 
ATOM      6  C   UNL     1     -13.772 -44.803  28.648  1.00  0.00     0.065 C 
ATOM      7  H   UNL     1     -12.038 -44.210  30.555  1.00  0.00     0.348 HD
ENDROOT
BRANCH   1   8
ATOM      8  C   UNL     1     -13.636 -43.313  26.581  1.00  0.00     0.035 C 
BRANCH   8   9
ATOM      9  C   UNL     1     -14.814 -43.904  25.860  1.00  0.00     0.020 C 
BRANCH   9  10
ATOM     10  C   UNL     1     -15.364 -43.391  24.751  1.00  0.00     0.118 C 
BRANCH  10  11
ATOM     11  O   UNL     1     -14.681 -43.381  23.553  1.00  0.00    -0.508 OA
ATOM     12  H   UNL     1     -13.931 -43.999  23.640  1.00  0.00     0.293 HD
ENDBRANCH  10  11
BRANCH  10  13
ATOM     13  C   UNL     1     -16.700 -42.772  24.746  1.00  0.00     0.017 A 
ATOM     14  C   UNL     1     -17.418 -42.614  25.944  1.00  0.00     0.017 A 
ATOM     15  C   UNL     1     -17.249 -42.335  23.520  1.00  0.00     0.022 A 
ATOM     16  C   UNL     1     -18.694 -42.044  25.948  1.00  0.00    -0.022 A 
ATOM     17  C   UNL     1     -18.523 -41.739  23.511  1.00  0.00     0.001 A 
ATOM     18  C   UNL     1     -19.194 -41.636  24.714  1.00  0.00     0.059 A 
ATOM     19  C   UNL     1     -19.515 -41.743  27.162  1.00  0.00     0.047 C 
ATOM     20  C   UNL     1     -19.369 -41.149  22.533  1.00  0.00     0.029 A 
ATOM     21  N   UNL     1     -20.421 -41.049  24.505  1.00  0.00    -0.287 N 
ATOM     22  C   UNL     1     -21.010 -41.640  26.809  1.00  0.00     0.106 C 
ATOM     23  C   UNL     1     -20.512 -40.706  23.173  1.00  0.00     0.095 A 
ATOM     24  C   UNL     1     -21.353 -40.873  25.535  1.00  0.00     0.231 C 
ATOM     25  O   UNL     1     -22.384 -40.250  25.325  1.00  0.00    -0.274 OA
ENDBRANCH  10  13
ENDBRANCH   9  10
ENDBRANCH   8   9
ENDBRANCH   1   8
BRANCH   4  26
ATOM     26  C   UNL     1     -11.037 -45.867  31.117  1.00  0.00     0.302 C 
BRANCH  26  27
ATOM     27  C   UNL     1      -9.737 -45.251  31.563  1.00  0.00     0.048 A 
ATOM     28  C   UNL     1      -9.739 -44.034  32.260  1.00  0.00     0.013 A 
ATOM     29  C   UNL     1      -8.511 -45.895  31.348  1.00  0.00     0.124 A 
ATOM     30  C   UNL     1      -8.540 -43.474  32.708  1.00  0.00     0.001 A 
ATOM     31  C   UNL     1      -7.312 -45.341  31.792  1.00  0.00     0.046 A 
ATOM     32  C   UNL     1      -7.332 -44.125  32.473  1.00  0.00     0.004 A 
BRANCH  29  33
ATOM     33  O   UNL     1      -8.510 -47.084  30.665  1.00  0.00    -0.507 OA
ATOM     34  H   UNL     1      -8.070 -47.749  31.233  1.00  0.00     0.293 HD
ENDBRANCH  29  33
ENDBRANCH  26  27
ENDBRANCH   4  26
TORSDOF 8
ENDMDL
MODEL 4
REMARK VINA RESULT:   -11.588      1.343      2.634
REMARK INTER + INTRA:         -17.211
REMARK INTER:                 -16.762
REMARK INTRA:                  -0.449
REMARK UNBOUND:                -0.881
REMARK SMILES O=C1CCc2cc(C(O)=CC[C@H]3CC[N@H+](Cc4ccccc4O)CC3)cc3ccn1c23
REMARK SMILES IDX 12 1 25 2 24 3 15 4 14 5 13 6 11 8 10 9 8 10 9 11 7 13 6 14
REMARK SMILES IDX 26 15 5 16 27 17 31 18 4 19 28 20 30 21 3 22 29 23 2 24 1 25
REMARK SMILES IDX 16 26 17 27 18 28 22 29 19 30 21 31 20 32 23 33
REMARK H PARENT 15 7 9 12 23 34
ROOT
ATOM      1  C   UNL     1     -13.670 -44.533  26.974  1.00  0.00     0.004 C 
ATOM      2  C   UNL     1     -14.649 -44.307  28.137  1.00  0.00     0.065 C 
ATOM      3  C   UNL     1     -13.990 -44.531  29.491  1.00  0.00     0.262 C 
ATOM      4  N   UNL     1     -13.396 -45.907  29.537  1.00  0.00    -0.331 N 
ATOM      5  C   UNL     1     -12.376 -46.135  28.456  1.00  0.00     0.262 C 
ATOM      6  C   UNL     1     -13.022 -45.922  27.096  1.00  0.00     0.065 C 
ATOM      7  H   UNL     1     -14.161 -46.588  29.388  1.00  0.00     0.348 HD
ENDROOT
BRANCH   1   8
ATOM      8  C   UNL     1     -14.404 -44.355  25.632  1.00  0.00     0.035 C 
BRANCH   8   9
ATOM      9  C   UNL     1     -14.152 -43.015  25.001  1.00  0.00     0.020 C 
BRANCH   9  10
ATOM     10  C   UNL     1     -15.046 -42.337  24.268  1.00  0.00     0.118 C 
BRANCH  10  11
ATOM     11  O   UNL     1     -14.647 -41.502  23.246  1.00  0.00    -0.508 OA
ATOM     12  H   UNL     1     -14.699 -42.012  22.416  1.00  0.00     0.293 HD
ENDBRANCH  10  11
BRANCH  10  13
ATOM     13  C   UNL     1     -16.493 -42.401  24.532  1.00  0.00     0.017 A 
ATOM     14  C   UNL     1     -16.976 -42.478  25.850  1.00  0.00     0.017 A 
ATOM     15  C   UNL     1     -17.390 -42.383  23.441  1.00  0.00     0.022 A 
ATOM     16  C   UNL     1     -18.347 -42.559  26.109  1.00  0.00    -0.022 A 
ATOM     17  C   UNL     1     -18.774 -42.441  23.688  1.00  0.00     0.001 A 
ATOM     18  C   UNL     1     -19.190 -42.544  25.002  1.00  0.00     0.059 A 
ATOM     19  C   UNL     1     -18.983 -42.554  27.464  1.00  0.00     0.047 C 
ATOM     20  C   UNL     1     -19.956 -42.399  22.900  1.00  0.00     0.029 A 
ATOM     21  N   UNL     1     -20.564 -42.607  25.043  1.00  0.00    -0.287 N 
ATOM     22  C   UNL     1     -20.389 -43.182  27.418  1.00  0.00     0.106 C 
ATOM     23  C   UNL     1     -21.039 -42.471  23.755  1.00  0.00     0.095 A 
ATOM     24  C   UNL     1     -21.270 -42.781  26.239  1.00  0.00     0.231 C 
ATOM     25  O   UNL     1     -22.492 -42.723  26.240  1.00  0.00    -0.274 OA
ENDBRANCH  10  13
ENDBRANCH   9  10
ENDBRANCH   8   9
ENDBRANCH   1   8
BRANCH   4  26
ATOM     26  C   UNL     1     -12.883 -46.266  30.913  1.00  0.00     0.302 C 
BRANCH  26  27
ATOM     27  C   UNL     1     -11.884 -45.286  31.467  1.00  0.00     0.048 A 
ATOM     28  C   UNL     1     -12.321 -44.071  32.016  1.00  0.00     0.013 A 
ATOM     29  C   UNL     1     -10.513 -45.579  31.502  1.00  0.00     0.124 A 
ATOM     30  C   UNL     1     -11.403 -43.172  32.563  1.00  0.00     0.001 A 
ATOM     31  C   UNL     1      -9.593 -44.686  32.048  1.00  0.00     0.046 A 
ATOM     32  C   UNL     1     -10.044 -43.479  32.578  1.00  0.00     0.004 A 
BRANCH  29  33
ATOM     33  O   UNL     1     -10.087 -46.766  30.964  1.00  0.00    -0.507 OA
ATOM     34  H   UNL     1      -9.204 -46.610  30.570  1.00  0.00     0.293 HD
ENDBRANCH  29  33
ENDBRANCH  26  27
ENDBRANCH   4  26
TORSDOF 8
ENDMDL
MODEL 5
REMARK VINA RESULT:   -11.476      1.652      2.603
REMARK INTER + INTRA:         -17.053
REMARK INTER:                 -16.817
REMARK INTRA:                  -0.236
REMARK UNBOUND:                -0.881
REMARK SMILES O=C1CCc2cc(C(O)=CC[C@H]3CC[N@H+](Cc4ccccc4O)CC3)cc3ccn1c23
REMARK SMILES IDX 12 1 25 2 24 3 15 4 14 5 13 6 11 8 10 9 8 10 9 11 7 13 6 14
REMARK SMILES IDX 26 15 5 16 27 17 31 18 4 19 28 20 30 21 3 22 29 23 2 24 1 25
REMARK SMILES IDX 16 26 17 27 18 28 22 29 19 30 21 31 20 32 23 33
REMARK H PARENT 15 7 9 12 23 34
ROOT
ATOM      1  C   UNL     1     -13.157 -44.871  27.962  1.00  0.00     0.004 C 
ATOM      2  C   UNL     1     -12.172 -43.701  28.100  1.00  0.00     0.065 C 
ATOM      3  C   UNL     1     -11.268 -43.854  29.315  1.00  0.00     0.262 C 
ATOM      4  N   UNL     1     -12.108 -44.009  30.548  1.00  0.00    -0.331 N 
ATOM      5  C   UNL     1     -13.031 -45.194  30.475  1.00  0.00     0.262 C 
ATOM      6  C   UNL     1     -13.947 -45.051  29.269  1.00  0.00     0.065 C 
ATOM      7  H   UNL     1     -12.699 -43.163  30.638  1.00  0.00     0.348 HD
ENDROOT
BRANCH   1   8
ATOM      8  C   UNL     1     -14.086 -44.634  26.756  1.00  0.00     0.035 C 
BRANCH   8   9
ATOM      9  C   UNL     1     -14.669 -43.249  26.730  1.00  0.00     0.020 C 
BRANCH   9  10
ATOM     10  C   UNL     1     -15.878 -42.923  27.207  1.00  0.00     0.118 C 
BRANCH  10  11
ATOM     11  O   UNL     1     -16.146 -42.954  28.558  1.00  0.00    -0.508 OA
ATOM     12  H   UNL     1     -16.578 -43.808  28.750  1.00  0.00     0.293 HD
ENDBRANCH  10  11
BRANCH  10  13
ATOM     13  C   UNL     1     -17.000 -42.557  26.327  1.00  0.00     0.017 A 
ATOM     14  C   UNL     1     -18.232 -42.152  26.871  1.00  0.00     0.017 A 
ATOM     15  C   UNL     1     -16.822 -42.617  24.927  1.00  0.00     0.022 A 
ATOM     16  C   UNL     1     -19.309 -41.820  26.045  1.00  0.00    -0.022 A 
ATOM     17  C   UNL     1     -17.891 -42.265  24.082  1.00  0.00     0.001 A 
ATOM     18  C   UNL     1     -19.086 -41.901  24.673  1.00  0.00     0.059 A 
ATOM     19  C   UNL     1     -20.632 -41.292  26.502  1.00  0.00     0.047 C 
ATOM     20  C   UNL     1     -18.091 -42.151  22.680  1.00  0.00     0.029 A 
ATOM     21  N   UNL     1     -20.011 -41.613  23.695  1.00  0.00    -0.287 N 
ATOM     22  C   UNL     1     -21.724 -41.544  25.445  1.00  0.00     0.106 C 
ATOM     23  C   UNL     1     -19.388 -41.721  22.470  1.00  0.00     0.095 A 
ATOM     24  C   UNL     1     -21.336 -41.276  23.994  1.00  0.00     0.231 C 
ATOM     25  O   UNL     1     -22.092 -40.923  23.100  1.00  0.00    -0.274 OA
ENDBRANCH  10  13
ENDBRANCH   9  10
ENDBRANCH   8   9
ENDBRANCH   1   8
BRANCH   4  26
ATOM     26  C   UNL     1     -11.282 -43.985  31.814  1.00  0.00     0.302 C 
BRANCH  26  27
ATOM     27  C   UNL     1      -9.993 -44.756  31.715  1.00  0.00     0.048 A 
ATOM     28  C   UNL     1     -10.000 -46.082  31.258  1.00  0.00     0.013 A 
ATOM     29  C   UNL     1      -8.760 -44.161  32.019  1.00  0.00     0.124 A 
ATOM     30  C   UNL     1      -8.804 -46.792  31.131  1.00  0.00     0.001 A 
ATOM     31  C   UNL     1      -7.564 -44.865  31.893  1.00  0.00     0.046 A 
ATOM     32  C   UNL     1      -7.591 -46.185  31.448  1.00  0.00     0.004 A 
BRANCH  29  33
ATOM     33  O   UNL     1      -8.754 -42.866  32.467  1.00  0.00    -0.507 OA
ATOM     34  H   UNL     1      -9.539 -42.419  32.087  1.00  0.00     0.293 HD
ENDBRANCH  29  33
ENDBRANCH  26  27
ENDBRANCH   4  26
TORSDOF 8
ENDMDL
MODEL 6
REMARK VINA RESULT:   -11.011      2.036      2.551
REMARK INTER + INTRA:         -16.398
REMARK INTER:                 -17.310
REMARK INTRA:                   0.912
REMARK UNBOUND:                -0.881
REMARK SMILES O=C1CCc2cc(C(O)=CC[C@H]3CC[N@H+](Cc4ccccc4O)CC3)cc3ccn1c23
REMARK SMILES IDX 12 1 25 2 24 3 15 4 14 5 13 6 11 8 10 9 8 10 9 11 7 13 6 14
REMARK SMILES IDX 26 15 5 16 27 17 31 18 4 19 28 20 30 21 3 22 29 23 2 24 1 25
REMARK SMILES IDX 16 26 17 27 18 28 22 29 19 30 21 31 20 32 23 33
REMARK H PARENT 15 7 9 12 23 34
ROOT
ATOM      1  C   UNL     1     -11.932 -45.276  28.982  1.00  0.00     0.004 C 
ATOM      2  C   UNL     1     -11.499 -43.803  28.938  1.00  0.00     0.065 C 
ATOM      3  C   UNL     1     -11.204 -43.251  30.325  1.00  0.00     0.262 C 
ATOM      4  N   UNL     1     -12.403 -43.441  31.205  1.00  0.00    -0.331 N 
ATOM      5  C   UNL     1     -12.807 -44.884  31.331  1.00  0.00     0.262 C 
ATOM      6  C   UNL     1     -13.113 -45.448  29.953  1.00  0.00     0.065 C 
ATOM      7  H   UNL     1     -13.197 -42.935  30.773  1.00  0.00     0.348 HD
ENDROOT
BRANCH   1   8
ATOM      8  C   UNL     1     -12.277 -45.763  27.562  1.00  0.00     0.035 C 
BRANCH   8   9
ATOM      9  C   UNL     1     -13.585 -45.222  27.060  1.00  0.00     0.020 C 
BRANCH   9  10
ATOM     10  C   UNL     1     -13.751 -44.004  26.527  1.00  0.00     0.118 C 
BRANCH  10  11
ATOM     11  O   UNL     1     -12.680 -43.161  26.322  1.00  0.00    -0.508 OA
ATOM     12  H   UNL     1     -12.670 -42.519  27.057  1.00  0.00     0.293 HD
ENDBRANCH  10  11
BRANCH  10  13
ATOM     13  C   UNL     1     -15.077 -43.473  26.170  1.00  0.00     0.017 A 
ATOM     14  C   UNL     1     -15.452 -43.336  24.821  1.00  0.00     0.017 A 
ATOM     15  C   UNL     1     -15.969 -43.105  27.201  1.00  0.00     0.022 A 
ATOM     16  C   UNL     1     -16.701 -42.816  24.472  1.00  0.00    -0.022 A 
ATOM     17  C   UNL     1     -17.239 -42.601  26.864  1.00  0.00     0.001 A 
ATOM     18  C   UNL     1     -17.542 -42.462  25.524  1.00  0.00     0.059 A 
ATOM     19  C   UNL     1     -17.246 -42.706  23.082  1.00  0.00     0.047 C 
ATOM     20  C   UNL     1     -18.394 -42.181  27.578  1.00  0.00     0.029 A 
ATOM     21  N   UNL     1     -18.809 -41.940  25.392  1.00  0.00    -0.287 N 
ATOM     22  C   UNL     1     -18.353 -41.638  23.004  1.00  0.00     0.106 C 
ATOM     23  C   UNL     1     -19.352 -41.810  26.653  1.00  0.00     0.095 A 
ATOM     24  C   UNL     1     -19.364 -41.627  24.146  1.00  0.00     0.231 C 
ATOM     25  O   UNL     1     -20.531 -41.268  24.071  1.00  0.00    -0.274 OA
ENDBRANCH  10  13
ENDBRANCH   9  10
ENDBRANCH   8   9
ENDBRANCH   1   8
BRANCH   4  26
ATOM     26  C   UNL     1     -12.249 -42.755  32.543  1.00  0.00     0.302 C 
BRANCH  26  27
ATOM     27  C   UNL     1     -10.840 -42.763  33.074  1.00  0.00     0.048 A 
ATOM     28  C   UNL     1      -9.850 -43.520  32.430  1.00  0.00     0.013 A 
ATOM     29  C   UNL     1     -10.470 -41.980  34.176  1.00  0.00     0.124 A 
ATOM     30  C   UNL     1      -8.534 -43.504  32.895  1.00  0.00     0.001 A 
ATOM     31  C   UNL     1      -9.157 -41.959  34.644  1.00  0.00     0.046 A 
ATOM     32  C   UNL     1      -8.190 -42.727  33.999  1.00  0.00     0.004 A 
BRANCH  29  33
ATOM     33  O   UNL     1     -11.438 -41.241  34.806  1.00  0.00    -0.507 OA
ATOM     34  H   UNL     1     -11.903 -40.720  34.120  1.00  0.00     0.293 HD
ENDBRANCH  29  33
ENDBRANCH  26  27
ENDBRANCH   4  26
TORSDOF 8
ENDMDL
MODEL 7
REMARK VINA RESULT:   -10.965      2.290     11.348
REMARK INTER + INTRA:         -16.333
REMARK INTER:                 -15.522
REMARK INTRA:                  -0.811
REMARK UNBOUND:                -0.881
REMARK SMILES O=C1CCc2cc(C(O)=CC[C@H]3CC[N@H+](Cc4ccccc4O)CC3)cc3ccn1c23
REMARK SMILES IDX 12 1 25 2 24 3 15 4 14 5 13 6 11 8 10 9 8 10 9 11 7 13 6 14
REMARK SMILES IDX 26 15 5 16 27 17 31 18 4 19 28 20 30 21 3 22 29 23 2 24 1 25
REMARK SMILES IDX 16 26 17 27 18 28 22 29 19 30 21 31 20 32 23 33
REMARK H PARENT 15 7 9 12 23 34
ROOT
ATOM      1  C   UNL     1     -16.098 -42.842  24.857  1.00  0.00     0.004 C 
ATOM      2  C   UNL     1     -17.486 -42.654  25.488  1.00  0.00     0.065 C 
ATOM      3  C   UNL     1     -18.608 -42.979  24.513  1.00  0.00     0.262 C 
ATOM      4  N   UNL     1     -18.454 -42.144  23.277  1.00  0.00    -0.331 N 
ATOM      5  C   UNL     1     -17.134 -42.361  22.591  1.00  0.00     0.262 C 
ATOM      6  C   UNL     1     -16.002 -42.033  23.551  1.00  0.00     0.065 C 
ATOM      7  H   UNL     1     -18.494 -41.148  23.560  1.00  0.00     0.348 HD
ENDROOT
BRANCH   1   8
ATOM      8  C   UNL     1     -15.006 -42.441  25.865  1.00  0.00     0.035 C 
BRANCH   8   9
ATOM      9  C   UNL     1     -14.813 -43.458  26.954  1.00  0.00     0.020 C 
BRANCH   9  10
ATOM     10  C   UNL     1     -13.881 -44.421  26.941  1.00  0.00     0.118 C 
BRANCH  10  11
ATOM     11  O   UNL     1     -13.943 -45.462  26.039  1.00  0.00    -0.508 OA
ATOM     12  H   UNL     1     -14.760 -45.961  26.226  1.00  0.00     0.293 HD
ENDBRANCH  10  11
BRANCH  10  13
ATOM     13  C   UNL     1     -12.769 -44.457  27.905  1.00  0.00     0.017 A 
ATOM     14  C   UNL     1     -11.736 -43.505  27.839  1.00  0.00     0.017 A 
ATOM     15  C   UNL     1     -12.756 -45.459  28.899  1.00  0.00     0.022 A 
ATOM     16  C   UNL     1     -10.667 -43.542  28.737  1.00  0.00    -0.022 A 
ATOM     17  C   UNL     1     -11.697 -45.495  29.825  1.00  0.00     0.001 A 
ATOM     18  C   UNL     1     -10.695 -44.552  29.695  1.00  0.00     0.059 A 
ATOM     19  C   UNL     1      -9.561 -42.537  28.824  1.00  0.00     0.047 C 
ATOM     20  C   UNL     1     -11.356 -46.282  30.959  1.00  0.00     0.029 A 
ATOM     21  N   UNL     1      -9.745 -44.756  30.669  1.00  0.00    -0.287 N 
ATOM     22  C   UNL     1      -8.319 -43.137  29.508  1.00  0.00     0.106 C 
ATOM     23  C   UNL     1     -10.172 -45.790  31.476  1.00  0.00     0.095 A 
ATOM     24  C   UNL     1      -8.575 -43.992  30.746  1.00  0.00     0.231 C 
ATOM     25  O   UNL     1      -7.813 -44.136  31.691  1.00  0.00    -0.274 OA
ENDBRANCH  10  13
ENDBRANCH   9  10
ENDBRANCH   8   9
ENDBRANCH   1   8
BRANCH   4  26
ATOM     26  C   UNL     1     -19.632 -42.279  22.340  1.00  0.00     0.302 C 
BRANCH  26  27
ATOM     27  C   UNL     1     -20.356 -40.985  22.079  1.00  0.00     0.048 A 
ATOM     28  C   UNL     1     -21.438 -40.609  22.891  1.00  0.00     0.013 A 
ATOM     29  C   UNL     1     -19.941 -40.105  21.070  1.00  0.00     0.124 A 
ATOM     30  C   UNL     1     -22.092 -39.394  22.677  1.00  0.00     0.001 A 
ATOM     31  C   UNL     1     -20.590 -38.891  20.854  1.00  0.00     0.046 A 
ATOM     32  C   UNL     1     -21.669 -38.539  21.662  1.00  0.00     0.004 A 
BRANCH  29  33
ATOM     33  O   UNL     1     -18.886 -40.474  20.277  1.00  0.00    -0.507 OA
ATOM     34  H   UNL     1     -18.716 -41.425  20.437  1.00  0.00     0.293 HD
ENDBRANCH  29  33
ENDBRANCH  26  27
ENDBRANCH   4  26
TORSDOF 8
ENDMDL
MODEL 8
REMARK VINA RESULT:   -10.835      2.497     11.429
REMARK INTER + INTRA:         -16.150
REMARK INTER:                 -15.868
REMARK INTRA:                  -0.282
REMARK UNBOUND:                -0.881
REMARK SMILES O=C1CCc2cc(C(O)=CC[C@H]3CC[N@H+](Cc4ccccc4O)CC3)cc3ccn1c23
REMARK SMILES IDX 12 1 25 2 24 3 15 4 14 5 13 6 11 8 10 9 8 10 9 11 7 13 6 14
REMARK SMILES IDX 26 15 5 16 27 17 31 18 4 19 28 20 30 21 3 22 29 23 2 24 1 25
REMARK SMILES IDX 16 26 17 27 18 28 22 29 19 30 21 31 20 32 23 33
REMARK H PARENT 15 7 9 12 23 34
ROOT
ATOM      1  C   UNL     1     -16.171 -42.228  24.054  1.00  0.00     0.004 C 
ATOM      2  C   UNL     1     -16.405 -41.639  22.655  1.00  0.00     0.065 C 
ATOM      3  C   UNL     1     -17.864 -41.273  22.424  1.00  0.00     0.262 C 
ATOM      4  N   UNL     1     -18.725 -42.478  22.658  1.00  0.00    -0.331 N 
ATOM      5  C   UNL     1     -18.577 -43.035  24.047  1.00  0.00     0.262 C 
ATOM      6  C   UNL     1     -17.124 -43.413  24.291  1.00  0.00     0.065 C 
ATOM      7  H   UNL     1     -18.425 -43.217  21.997  1.00  0.00     0.348 HD
ENDROOT
BRANCH   1   8
ATOM      8  C   UNL     1     -14.695 -42.637  24.211  1.00  0.00     0.035 C 
BRANCH   8   9
ATOM      9  C   UNL     1     -14.489 -43.705  25.247  1.00  0.00     0.020 C 
BRANCH   9  10
ATOM     10  C   UNL     1     -14.380 -43.478  26.563  1.00  0.00     0.118 C 
BRANCH  10  11
ATOM     11  O   UNL     1     -15.432 -42.963  27.290  1.00  0.00    -0.508 OA
ATOM     12  H   UNL     1     -16.141 -42.740  26.658  1.00  0.00     0.293 HD
ENDBRANCH  10  11
BRANCH  10  13
ATOM     13  C   UNL     1     -13.131 -43.718  27.304  1.00  0.00     0.017 A 
ATOM     14  C   UNL     1     -12.964 -44.891  28.063  1.00  0.00     0.017 A 
ATOM     15  C   UNL     1     -12.100 -42.755  27.241  1.00  0.00     0.022 A 
ATOM     16  C   UNL     1     -11.790 -45.119  28.784  1.00  0.00    -0.022 A 
ATOM     17  C   UNL     1     -10.903 -42.982  27.944  1.00  0.00     0.001 A 
ATOM     18  C   UNL     1     -10.806 -44.138  28.695  1.00  0.00     0.059 A 
ATOM     19  C   UNL     1     -11.461 -46.362  29.551  1.00  0.00     0.047 C 
ATOM     20  C   UNL     1      -9.660 -42.308  28.091  1.00  0.00     0.029 A 
ATOM     21  N   UNL     1      -9.581 -44.176  29.322  1.00  0.00    -0.287 N 
ATOM     22  C   UNL     1     -10.395 -46.083  30.626  1.00  0.00     0.106 C 
ATOM     23  C   UNL     1      -8.857 -43.075  28.915  1.00  0.00     0.095 A 
ATOM     24  C   UNL     1      -9.223 -45.201  30.205  1.00  0.00     0.231 C 
ATOM     25  O   UNL     1      -8.086 -45.251  30.653  1.00  0.00    -0.274 OA
ENDBRANCH  10  13
ENDBRANCH   9  10
ENDBRANCH   8   9
ENDBRANCH   1   8
BRANCH   4  26
ATOM     26  C   UNL     1     -20.167 -42.239  22.272  1.00  0.00     0.302 C 
BRANCH  26  27
ATOM     27  C   UNL     1     -20.399 -40.933  21.560  1.00  0.00     0.048 A 
ATOM     28  C   UNL     1     -20.509 -39.742  22.294  1.00  0.00     0.013 A 
ATOM     29  C   UNL     1     -20.453 -40.862  20.161  1.00  0.00     0.124 A 
ATOM     30  C   UNL     1     -20.689 -38.523  21.639  1.00  0.00     0.001 A 
ATOM     31  C   UNL     1     -20.632 -39.647  19.502  1.00  0.00     0.046 A 
ATOM     32  C   UNL     1     -20.752 -38.476  20.248  1.00  0.00     0.004 A 
BRANCH  29  33
ATOM     33  O   UNL     1     -20.347 -42.026  19.445  1.00  0.00    -0.507 OA
ATOM     34  H   UNL     1     -21.247 -42.404  19.362  1.00  0.00     0.293 HD
ENDBRANCH  29  33
ENDBRANCH  26  27
ENDBRANCH   4  26
TORSDOF 8
ENDMDL
MODEL 9
REMARK VINA RESULT:   -10.594      2.646      4.581
REMARK INTER + INTRA:         -15.810
REMARK INTER:                 -14.564
REMARK INTRA:                  -1.246
REMARK UNBOUND:                -0.881
REMARK SMILES O=C1CCc2cc(C(O)=CC[C@H]3CC[N@H+](Cc4ccccc4O)CC3)cc3ccn1c23
REMARK SMILES IDX 12 1 25 2 24 3 15 4 14 5 13 6 11 8 10 9 8 10 9 11 7 13 6 14
REMARK SMILES IDX 26 15 5 16 27 17 31 18 4 19 28 20 30 21 3 22 29 23 2 24 1 25
REMARK SMILES IDX 16 26 17 27 18 28 22 29 19 30 21 31 20 32 23 33
REMARK H PARENT 15 7 9 12 23 34
ROOT
ATOM      1  C   UNL     1     -15.674 -43.004  24.826  1.00  0.00     0.004 C 
ATOM      2  C   UNL     1     -14.344 -43.771  24.781  1.00  0.00     0.065 C 
ATOM      3  C   UNL     1     -14.168 -44.682  25.988  1.00  0.00     0.262 C 
ATOM      4  N   UNL     1     -14.289 -43.875  27.246  1.00  0.00    -0.331 N 
ATOM      5  C   UNL     1     -15.613 -43.170  27.357  1.00  0.00     0.262 C 
ATOM      6  C   UNL     1     -15.801 -42.250  26.161  1.00  0.00     0.065 C 
ATOM      7  H   UNL     1     -13.553 -43.147  27.228  1.00  0.00     0.348 HD
ENDROOT
BRANCH   1   8
ATOM      8  C   UNL     1     -15.771 -42.055  23.617  1.00  0.00     0.035 C 
BRANCH   8   9
ATOM      9  C   UNL     1     -16.979 -42.318  22.762  1.00  0.00     0.020 C 
BRANCH   9  10
ATOM     10  C   UNL     1     -17.866 -41.386  22.388  1.00  0.00     0.118 C 
BRANCH  10  11
ATOM     11  O   UNL     1     -17.639 -40.583  21.291  1.00  0.00    -0.508 OA
ATOM     12  H   UNL     1     -17.838 -39.665  21.556  1.00  0.00     0.293 HD
ENDBRANCH  10  11
BRANCH  10  13
ATOM     13  C   UNL     1     -19.105 -41.129  23.141  1.00  0.00     0.017 A 
ATOM     14  C   UNL     1     -19.211 -41.504  24.492  1.00  0.00     0.017 A 
ATOM     15  C   UNL     1     -20.186 -40.499  22.486  1.00  0.00     0.022 A 
ATOM     16  C   UNL     1     -20.389 -41.282  25.209  1.00  0.00    -0.022 A 
ATOM     17  C   UNL     1     -21.371 -40.248  23.202  1.00  0.00     0.001 A 
ATOM     18  C   UNL     1     -21.428 -40.663  24.519  1.00  0.00     0.059 A 
ATOM     19  C   UNL     1     -20.591 -41.552  26.667  1.00  0.00     0.047 C 
ATOM     20  C   UNL     1     -22.616 -39.619  22.930  1.00  0.00     0.029 A 
ATOM     21  N   UNL     1     -22.662 -40.352  25.044  1.00  0.00    -0.287 N 
ATOM     22  C   UNL     1     -22.086 -41.711  26.999  1.00  0.00     0.106 C 
ATOM     23  C   UNL     1     -23.377 -39.668  24.084  1.00  0.00     0.095 A 
ATOM     24  C   UNL     1     -23.035 -40.711  26.344  1.00  0.00     0.231 C 
ATOM     25  O   UNL     1     -24.098 -40.319  26.805  1.00  0.00    -0.274 OA
ENDBRANCH  10  13
ENDBRANCH   9  10
ENDBRANCH   8   9
ENDBRANCH   1   8
BRANCH   4  26
ATOM     26  C   UNL     1     -13.946 -44.677  28.480  1.00  0.00     0.302 C 
BRANCH  26  27
ATOM     27  C   UNL     1     -12.475 -44.964  28.631  1.00  0.00     0.048 A 
ATOM     28  C   UNL     1     -12.040 -46.264  28.933  1.00  0.00     0.013 A 
ATOM     29  C   UNL     1     -11.510 -43.969  28.420  1.00  0.00     0.124 A 
ATOM     30  C   UNL     1     -10.677 -46.545  29.039  1.00  0.00     0.001 A 
ATOM     31  C   UNL     1     -10.148 -44.245  28.525  1.00  0.00     0.046 A 
ATOM     32  C   UNL     1      -9.735 -45.539  28.837  1.00  0.00     0.004 A 
BRANCH  29  33
ATOM     33  O   UNL     1     -11.937 -42.700  28.127  1.00  0.00    -0.507 OA
ATOM     34  H   UNL     1     -12.916 -42.710  28.129  1.00  0.00     0.293 HD
ENDBRANCH  29  33
ENDBRANCH  26  27
ENDBRANCH   4  26
TORSDOF 8
ENDMDL
