MODEL 1
REMARK VINA RESULT:    -9.732      0.000      0.000
REMARK INTER + INTRA:         -10.016
REMARK INTER:                 -10.016
REMARK INTRA:                   0.000
REMARK UNBOUND:                 0.000
REMARK SMILES CC1=C[C@@H]2Cc3nc4cc(Cl)ccc4c(N)c3[C@H](C1)C2
REMARK SMILES IDX 15 1 17 2 6 3 7 4 8 5 9 6 10 7 11 8 12 9 13 10 14 11 5 12
REMARK SMILES IDX 4 13 3 14 2 15 1 16 19 17 18 18 20 19 16 20
REMARK H PARENT 16 21 16 22
ROOT
ATOM      1  C   UNL     1     -14.920 -43.918  28.742  1.00  0.00     0.046 A 
ATOM      2  C   UNL     1     -13.843 -44.794  28.963  1.00  0.00     0.001 A 
ATOM      3  C   UNL     1     -13.129 -45.247  27.849  1.00  0.00     0.047 A 
ATOM      4  N   UNL     1     -13.469 -44.929  26.578  1.00  0.00    -0.252 NA
ATOM      5  C   UNL     1     -14.531 -44.144  26.366  1.00  0.00     0.074 A 
ATOM      6  C   UNL     1     -14.867 -43.863  25.050  1.00  0.00     0.049 A 
ATOM      7  C   UNL     1     -15.970 -43.074  24.737  1.00  0.00     0.043 A 
ATOM      8  Cl  UNL     1     -16.355 -42.750  23.091  1.00  0.00    -0.084 Cl
ATOM      9  C   UNL     1     -16.766 -42.551  25.746  1.00  0.00     0.021 A 
ATOM     10  C   UNL     1     -16.443 -42.821  27.075  1.00  0.00     0.014 A 
ATOM     11  C   UNL     1     -15.317 -43.615  27.413  1.00  0.00     0.024 A 
ATOM     12  C   UNL     1     -11.945 -46.180  27.983  1.00  0.00     0.064 C 
ATOM     13  C   UNL     1     -11.425 -46.323  29.421  1.00  0.00     0.018 C 
ATOM     14  C   UNL     1     -10.597 -45.119  29.817  1.00  0.00    -0.024 C 
ATOM     15  C   UNL     1     -11.084 -44.103  30.552  1.00  0.00    -0.076 C 
ATOM     16  C   UNL     1     -10.245 -42.927  30.953  1.00  0.00     0.039 C 
ATOM     17  C   UNL     1     -12.530 -44.077  31.009  1.00  0.00     0.039 C 
ATOM     18  C   UNL     1     -13.408 -45.182  30.373  1.00  0.00     0.028 C 
ATOM     19  C   UNL     1     -12.623 -46.500  30.357  1.00  0.00     0.017 C 
ENDROOT
BRANCH   1  20
ATOM     20  N   UNL     1     -15.710 -43.528  29.856  1.00  0.00    -0.398 N 
ATOM     21  H   UNL     1     -16.683 -43.795  29.763  1.00  0.00     0.156 HD
ATOM     22  H   UNL     1     -15.325 -43.925  30.712  1.00  0.00     0.156 HD
ENDBRANCH   1  20
TORSDOF 1
ENDMDL
MODEL 2
REMARK VINA RESULT:    -9.571      2.071      3.212
REMARK INTER + INTRA:          -9.850
REMARK INTER:                  -9.850
REMARK INTRA:                   0.000
REMARK UNBOUND:                 0.000
REMARK SMILES CC1=C[C@@H]2Cc3nc4cc(Cl)ccc4c(N)c3[C@H](C1)C2
REMARK SMILES IDX 15 1 17 2 6 3 7 4 8 5 9 6 10 7 11 8 12 9 13 10 14 11 5 12
REMARK SMILES IDX 4 13 3 14 2 15 1 16 19 17 18 18 20 19 16 20
REMARK H PARENT 16 21 16 22
ROOT
ATOM      1  C   UNL     1     -12.196 -45.093  29.404  1.00  0.00     0.046 A 
ATOM      2  C   UNL     1     -10.848 -44.813  29.686  1.00  0.00     0.001 A 
ATOM      3  C   UNL     1     -10.220 -43.807  28.946  1.00  0.00     0.047 A 
ATOM      4  N   UNL     1     -10.833 -43.144  27.937  1.00  0.00    -0.252 NA
ATOM      5  C   UNL     1     -12.097 -43.453  27.629  1.00  0.00     0.074 A 
ATOM      6  C   UNL     1     -12.683 -42.773  26.573  1.00  0.00     0.049 A 
ATOM      7  C   UNL     1     -13.986 -43.047  26.169  1.00  0.00     0.043 A 
ATOM      8  Cl  UNL     1     -14.677 -42.183  24.851  1.00  0.00    -0.084 Cl
ATOM      9  C   UNL     1     -14.731 -44.019  26.820  1.00  0.00     0.021 A 
ATOM     10  C   UNL     1     -14.160 -44.712  27.887  1.00  0.00     0.014 A 
ATOM     11  C   UNL     1     -12.837 -44.439  28.318  1.00  0.00     0.024 A 
ATOM     12  C   UNL     1      -8.775 -43.422  29.183  1.00  0.00     0.064 C 
ATOM     13  C   UNL     1      -8.184 -43.996  30.479  1.00  0.00     0.018 C 
ATOM     14  C   UNL     1      -8.654 -43.209  31.683  1.00  0.00    -0.024 C 
ATOM     15  C   UNL     1      -9.666 -43.612  32.473  1.00  0.00    -0.076 C 
ATOM     16  C   UNL     1     -10.107 -42.830  33.675  1.00  0.00     0.039 C 
ATOM     17  C   UNL     1     -10.438 -44.885  32.186  1.00  0.00     0.039 C 
ATOM     18  C   UNL     1     -10.107 -45.523  30.815  1.00  0.00     0.028 C 
ATOM     19  C   UNL     1      -8.590 -45.469  30.589  1.00  0.00     0.017 C 
ENDROOT
BRANCH   1  20
ATOM     20  N   UNL     1     -12.816 -46.175  30.083  1.00  0.00    -0.398 N 
ATOM     21  H   UNL     1     -13.652 -46.508  29.616  1.00  0.00     0.156 HD
ATOM     22  H   UNL     1     -12.154 -46.943  30.191  1.00  0.00     0.156 HD
ENDBRANCH   1  20
TORSDOF 1
ENDMDL
MODEL 3
REMARK VINA RESULT:    -8.907      4.126      7.181
REMARK INTER + INTRA:          -9.167
REMARK INTER:                  -9.167
REMARK INTRA:                   0.000
REMARK UNBOUND:                 0.000
REMARK SMILES CC1=C[C@@H]2Cc3nc4cc(Cl)ccc4c(N)c3[C@H](C1)C2
REMARK SMILES IDX 15 1 17 2 6 3 7 4 8 5 9 6 10 7 11 8 12 9 13 10 14 11 5 12
REMARK SMILES IDX 4 13 3 14 2 15 1 16 19 17 18 18 20 19 16 20
REMARK H PARENT 16 21 16 22
ROOT
ATOM      1  C   UNL     1      -9.856 -44.802  30.811  1.00  0.00     0.046 A 
ATOM      2  C   UNL     1     -11.213 -45.053  30.542  1.00  0.00     0.001 A 
ATOM      3  C   UNL     1     -12.167 -44.411  31.339  1.00  0.00     0.047 A 
ATOM      4  N   UNL     1     -11.838 -43.620  32.387  1.00  0.00    -0.252 NA
ATOM      5  C   UNL     1     -10.547 -43.431  32.680  1.00  0.00     0.074 A 
ATOM      6  C   UNL     1     -10.248 -42.637  33.776  1.00  0.00     0.049 A 
ATOM      7  C   UNL     1      -8.933 -42.406  34.166  1.00  0.00     0.043 A 
ATOM      8  Cl  UNL     1      -8.604 -41.417  35.535  1.00  0.00    -0.084 Cl
ATOM      9  C   UNL     1      -7.883 -42.975  33.461  1.00  0.00     0.021 A 
ATOM     10  C   UNL     1      -8.163 -43.775  32.353  1.00  0.00     0.014 A 
ATOM     11  C   UNL     1      -9.497 -44.013  31.935  1.00  0.00     0.024 A 
ATOM     12  C   UNL     1     -13.652 -44.604  31.120  1.00  0.00     0.064 C 
ATOM     13  C   UNL     1     -14.001 -45.290  29.791  1.00  0.00     0.018 C 
ATOM     14  C   UNL     1     -13.897 -44.316  28.637  1.00  0.00    -0.024 C 
ATOM     15  C   UNL     1     -12.824 -44.250  27.827  1.00  0.00    -0.076 C 
ATOM     16  C   UNL     1     -12.745 -43.293  26.675  1.00  0.00     0.039 C 
ATOM     17  C   UNL     1     -11.614 -45.138  28.041  1.00  0.00     0.039 C 
ATOM     18  C   UNL     1     -11.644 -45.930  29.371  1.00  0.00     0.028 C 
ATOM     19  C   UNL     1     -13.059 -46.481  29.595  1.00  0.00     0.017 C 
ENDROOT
BRANCH   1  20
ATOM     20  N   UNL     1      -8.880 -45.520  30.071  1.00  0.00    -0.398 N 
ATOM     21  H   UNL     1      -8.796 -46.488  30.361  1.00  0.00     0.156 HD
ATOM     22  H   UNL     1      -9.096 -45.477  29.076  1.00  0.00     0.156 HD
ENDBRANCH   1  20
TORSDOF 1
ENDMDL
MODEL 4
REMARK VINA RESULT:    -8.903      1.812      2.791
REMARK INTER + INTRA:          -9.163
REMARK INTER:                  -9.163
REMARK INTRA:                   0.000
REMARK UNBOUND:                 0.000
REMARK SMILES CC1=C[C@@H]2Cc3nc4cc(Cl)ccc4c(N)c3[C@H](C1)C2
REMARK SMILES IDX 15 1 17 2 6 3 7 4 8 5 9 6 10 7 11 8 12 9 13 10 14 11 5 12
REMARK SMILES IDX 4 13 3 14 2 15 1 16 19 17 18 18 20 19 16 20
REMARK H PARENT 16 21 16 22
ROOT
ATOM      1  C   UNL     1     -13.007 -45.535  26.921  1.00  0.00     0.046 A 
ATOM      2  C   UNL     1     -12.151 -45.039  27.920  1.00  0.00     0.001 A 
ATOM      3  C   UNL     1     -12.050 -43.651  28.065  1.00  0.00     0.047 A 
ATOM      4  N   UNL     1     -12.686 -42.778  27.249  1.00  0.00    -0.252 NA
ATOM      5  C   UNL     1     -13.453 -43.251  26.261  1.00  0.00     0.074 A 
ATOM      6  C   UNL     1     -14.067 -42.328  25.429  1.00  0.00     0.049 A 
ATOM      7  C   UNL     1     -14.863 -42.732  24.362  1.00  0.00     0.043 A 
ATOM      8  Cl  UNL     1     -15.606 -41.555  23.350  1.00  0.00    -0.084 Cl
ATOM      9  C   UNL     1     -15.057 -44.081  24.104  1.00  0.00     0.021 A 
ATOM     10  C   UNL     1     -14.450 -45.025  24.932  1.00  0.00     0.014 A 
ATOM     11  C   UNL     1     -13.643 -44.631  26.030  1.00  0.00     0.024 A 
ATOM     12  C   UNL     1     -11.166 -43.020  29.119  1.00  0.00     0.064 C 
ATOM     13  C   UNL     1     -10.661 -44.008  30.180  1.00  0.00     0.018 C 
ATOM     14  C   UNL     1     -11.744 -44.319  31.189  1.00  0.00    -0.024 C 
ATOM     15  C   UNL     1     -12.501 -45.430  31.135  1.00  0.00    -0.076 C 
ATOM     16  C   UNL     1     -13.558 -45.733  32.154  1.00  0.00     0.039 C 
ATOM     17  C   UNL     1     -12.339 -46.445  30.019  1.00  0.00     0.039 C 
ATOM     18  C   UNL     1     -11.413 -45.974  28.873  1.00  0.00     0.028 C 
ATOM     19  C   UNL     1     -10.183 -45.280  29.473  1.00  0.00     0.017 C 
ENDROOT
BRANCH   1  20
ATOM     20  N   UNL     1     -13.045 -46.937  26.703  1.00  0.00    -0.398 N 
ATOM     21  H   UNL     1     -13.826 -47.227  26.125  1.00  0.00     0.156 HD
ATOM     22  H   UNL     1     -12.171 -47.248  26.280  1.00  0.00     0.156 HD
ENDBRANCH   1  20
TORSDOF 1
ENDMDL
MODEL 5
REMARK VINA RESULT:    -8.577      4.165      8.635
REMARK INTER + INTRA:          -8.828
REMARK INTER:                  -8.828
REMARK INTRA:                   0.000
REMARK UNBOUND:                 0.000
REMARK SMILES CC1=C[C@@H]2Cc3nc4cc(Cl)ccc4c(N)c3[C@H](C1)C2
REMARK SMILES IDX 15 1 17 2 6 3 7 4 8 5 9 6 10 7 11 8 12 9 13 10 14 11 5 12
REMARK SMILES IDX 4 13 3 14 2 15 1 16 19 17 18 18 20 19 16 20
REMARK H PARENT 16 21 16 22
ROOT
ATOM      1  C   UNL     1     -19.065 -41.899  26.192  1.00  0.00     0.046 A 
ATOM      2  C   UNL     1     -19.570 -41.601  24.914  1.00  0.00     0.001 A 
ATOM      3  C   UNL     1     -18.748 -41.853  23.811  1.00  0.00     0.047 A 
ATOM      4  N   UNL     1     -17.478 -42.307  23.928  1.00  0.00    -0.252 NA
ATOM      5  C   UNL     1     -16.977 -42.533  25.147  1.00  0.00     0.074 A 
ATOM      6  C   UNL     1     -15.665 -42.971  25.230  1.00  0.00     0.049 A 
ATOM      7  C   UNL     1     -15.056 -43.209  26.458  1.00  0.00     0.043 A 
ATOM      8  Cl  UNL     1     -13.423 -43.749  26.518  1.00  0.00    -0.084 Cl
ATOM      9  C   UNL     1     -15.757 -43.007  27.638  1.00  0.00     0.021 A 
ATOM     10  C   UNL     1     -17.080 -42.569  27.575  1.00  0.00     0.014 A 
ATOM     11  C   UNL     1     -17.719 -42.331  26.332  1.00  0.00     0.024 A 
ATOM     12  C   UNL     1     -19.205 -41.579  22.395  1.00  0.00     0.064 C 
ATOM     13  C   UNL     1     -20.711 -41.311  22.268  1.00  0.00     0.018 C 
ATOM     14  C   UNL     1     -21.498 -42.602  22.335  1.00  0.00    -0.024 C 
ATOM     15  C   UNL     1     -22.105 -43.034  23.456  1.00  0.00    -0.076 C 
ATOM     16  C   UNL     1     -22.898 -44.306  23.501  1.00  0.00     0.039 C 
ATOM     17  C   UNL     1     -22.011 -42.260  24.757  1.00  0.00     0.039 C 
ATOM     18  C   UNL     1     -20.995 -41.093  24.720  1.00  0.00     0.028 C 
ATOM     19  C   UNL     1     -21.131 -40.350  23.385  1.00  0.00     0.017 C 
ENDROOT
BRANCH   1  20
ATOM     20  N   UNL     1     -19.852 -41.560  27.323  1.00  0.00    -0.398 N 
ATOM     21  H   UNL     1     -20.831 -41.422  27.097  1.00  0.00     0.156 HD
ATOM     22  H   UNL     1     -19.763 -42.280  28.039  1.00  0.00     0.156 HD
ENDBRANCH   1  20
TORSDOF 1
ENDMDL
MODEL 6
REMARK VINA RESULT:    -8.429      4.847      5.793
REMARK INTER + INTRA:          -8.675
REMARK INTER:                  -8.675
REMARK INTRA:                   0.000
REMARK UNBOUND:                 0.000
REMARK SMILES CC1=C[C@@H]2Cc3nc4cc(Cl)ccc4c(N)c3[C@H](C1)C2
REMARK SMILES IDX 15 1 17 2 6 3 7 4 8 5 9 6 10 7 11 8 12 9 13 10 14 11 5 12
REMARK SMILES IDX 4 13 3 14 2 15 1 16 19 17 18 18 20 19 16 20
REMARK H PARENT 16 21 16 22
ROOT
ATOM      1  C   UNL     1     -12.390 -45.142  31.509  1.00  0.00     0.046 A 
ATOM      2  C   UNL     1     -11.418 -44.638  30.626  1.00  0.00     0.001 A 
ATOM      3  C   UNL     1     -11.168 -43.262  30.645  1.00  0.00     0.047 A 
ATOM      4  N   UNL     1     -11.861 -42.399  31.423  1.00  0.00    -0.252 NA
ATOM      5  C   UNL     1     -12.827 -42.871  32.219  1.00  0.00     0.074 A 
ATOM      6  C   UNL     1     -13.534 -41.955  32.982  1.00  0.00     0.049 A 
ATOM      7  C   UNL     1     -14.571 -42.356  33.819  1.00  0.00     0.043 A 
ATOM      8  Cl  UNL     1     -15.427 -41.187  34.747  1.00  0.00    -0.084 Cl
ATOM      9  C   UNL     1     -14.923 -43.695  33.905  1.00  0.00     0.021 A 
ATOM     10  C   UNL     1     -14.221 -44.632  33.147  1.00  0.00     0.014 A 
ATOM     11  C   UNL     1     -13.156 -44.242  32.296  1.00  0.00     0.024 A 
ATOM     12  C   UNL     1     -10.133 -42.625  29.743  1.00  0.00     0.064 C 
ATOM     13  C   UNL     1      -9.195 -43.634  29.064  1.00  0.00     0.018 C 
ATOM     14  C   UNL     1      -8.139 -44.126  30.030  1.00  0.00    -0.024 C 
ATOM     15  C   UNL     1      -8.229 -45.300  30.680  1.00  0.00    -0.076 C 
ATOM     16  C   UNL     1      -7.164 -45.782  31.619  1.00  0.00     0.039 C 
ATOM     17  C   UNL     1      -9.433 -46.208  30.513  1.00  0.00     0.039 C 
ATOM     18  C   UNL     1     -10.601 -45.563  29.730  1.00  0.00     0.028 C 
ATOM     19  C   UNL     1     -10.036 -44.796  28.527  1.00  0.00     0.017 C 
ENDROOT
BRANCH   1  20
ATOM     20  N   UNL     1     -12.719 -46.521  31.432  1.00  0.00    -0.398 N 
ATOM     21  H   UNL     1     -13.279 -46.749  30.619  1.00  0.00     0.156 HD
ATOM     22  H   UNL     1     -11.868 -47.082  31.433  1.00  0.00     0.156 HD
ENDBRANCH   1  20
TORSDOF 1
ENDMDL
MODEL 7
REMARK VINA RESULT:    -8.394      4.842      9.476
REMARK INTER + INTRA:          -8.639
REMARK INTER:                  -8.639
REMARK INTRA:                   0.000
REMARK UNBOUND:                 0.000
REMARK SMILES CC1=C[C@@H]2Cc3nc4cc(Cl)ccc4c(N)c3[C@H](C1)C2
REMARK SMILES IDX 15 1 17 2 6 3 7 4 8 5 9 6 10 7 11 8 12 9 13 10 14 11 5 12
REMARK SMILES IDX 4 13 3 14 2 15 1 16 19 17 18 18 20 19 16 20
REMARK H PARENT 16 21 16 22
ROOT
ATOM      1  C   UNL     1     -18.343 -42.518  23.838  1.00  0.00     0.046 A 
ATOM      2  C   UNL     1     -19.701 -42.303  23.546  1.00  0.00     0.001 A 
ATOM      3  C   UNL     1     -20.557 -41.995  24.608  1.00  0.00     0.047 A 
ATOM      4  N   UNL     1     -20.147 -41.958  25.898  1.00  0.00    -0.252 NA
ATOM      5  C   UNL     1     -18.867 -42.221  26.181  1.00  0.00     0.074 A 
ATOM      6  C   UNL     1     -18.488 -42.201  27.514  1.00  0.00     0.049 A 
ATOM      7  C   UNL     1     -17.183 -42.487  27.901  1.00  0.00     0.043 A 
ATOM      8  Cl  UNL     1     -16.754 -42.455  29.568  1.00  0.00    -0.084 Cl
ATOM      9  C   UNL     1     -16.224 -42.804  26.950  1.00  0.00     0.021 A 
ATOM     10  C   UNL     1     -16.585 -42.826  25.603  1.00  0.00     0.014 A 
ATOM     11  C   UNL     1     -17.908 -42.529  25.191  1.00  0.00     0.024 A 
ATOM     12  C   UNL     1     -22.033 -41.733  24.396  1.00  0.00     0.064 C 
ATOM     13  C   UNL     1     -22.423 -41.531  22.924  1.00  0.00     0.018 C 
ATOM     14  C   UNL     1     -22.047 -40.143  22.451  1.00  0.00    -0.024 C 
ATOM     15  C   UNL     1     -20.932 -39.885  21.744  1.00  0.00    -0.076 C 
ATOM     16  C   UNL     1     -20.584 -38.507  21.266  1.00  0.00     0.039 C 
ATOM     17  C   UNL     1     -19.942 -40.981  21.399  1.00  0.00     0.039 C 
ATOM     18  C   UNL     1     -20.220 -42.325  22.113  1.00  0.00     0.028 C 
ATOM     19  C   UNL     1     -21.728 -42.606  22.084  1.00  0.00     0.017 C 
ENDROOT
BRANCH   1  20
ATOM     20  N   UNL     1     -17.484 -42.925  22.784  1.00  0.00    -0.398 N 
ATOM     21  H   UNL     1     -16.644 -42.360  22.717  1.00  0.00     0.156 HD
ATOM     22  H   UNL     1     -17.230 -43.905  22.899  1.00  0.00     0.156 HD
ENDBRANCH   1  20
TORSDOF 1
ENDMDL
MODEL 8
REMARK VINA RESULT:    -8.226      7.372      9.425
REMARK INTER + INTRA:          -8.467
REMARK INTER:                  -8.467
REMARK INTRA:                   0.000
REMARK UNBOUND:                 0.000
REMARK SMILES CC1=C[C@@H]2Cc3nc4cc(Cl)ccc4c(N)c3[C@H](C1)C2
REMARK SMILES IDX 15 1 17 2 6 3 7 4 8 5 9 6 10 7 11 8 12 9 13 10 14 11 5 12
REMARK SMILES IDX 4 13 3 14 2 15 1 16 19 17 18 18 20 19 16 20
REMARK H PARENT 16 21 16 22
ROOT
ATOM      1  C   UNL     1     -19.227 -41.175  22.810  1.00  0.00     0.046 A 
ATOM      2  C   UNL     1     -19.750 -41.278  24.111  1.00  0.00     0.001 A 
ATOM      3  C   UNL     1     -20.970 -40.649  24.377  1.00  0.00     0.047 A 
ATOM      4  N   UNL     1     -21.627 -39.900  23.460  1.00  0.00    -0.252 NA
ATOM      5  C   UNL     1     -21.098 -39.752  22.240  1.00  0.00     0.074 A 
ATOM      6  C   UNL     1     -21.785 -38.957  21.336  1.00  0.00     0.049 A 
ATOM      7  C   UNL     1     -21.295 -38.730  20.054  1.00  0.00     0.043 A 
ATOM      8  Cl  UNL     1     -22.176 -37.733  18.962  1.00  0.00    -0.084 Cl
ATOM      9  C   UNL     1     -20.096 -39.299  19.651  1.00  0.00     0.021 A 
ATOM     10  C   UNL     1     -19.392 -40.105  20.546  1.00  0.00     0.014 A 
ATOM     11  C   UNL     1     -19.881 -40.354  21.853  1.00  0.00     0.024 A 
ATOM     12  C   UNL     1     -21.623 -40.713  25.740  1.00  0.00     0.064 C 
ATOM     13  C   UNL     1     -21.003 -41.759  26.678  1.00  0.00     0.018 C 
ATOM     14  C   UNL     1     -21.476 -43.152  26.320  1.00  0.00    -0.024 C 
ATOM     15  C   UNL     1     -20.745 -44.008  25.582  1.00  0.00    -0.076 C 
ATOM     16  C   UNL     1     -21.219 -45.392  25.254  1.00  0.00     0.039 C 
ATOM     17  C   UNL     1     -19.392 -43.615  25.021  1.00  0.00     0.039 C 
ATOM     18  C   UNL     1     -19.058 -42.113  25.183  1.00  0.00     0.028 C 
ATOM     19  C   UNL     1     -19.478 -41.654  26.586  1.00  0.00     0.017 C 
ENDROOT
BRANCH   1  20
ATOM     20  N   UNL     1     -17.945 -41.729  22.554  1.00  0.00    -0.398 N 
ATOM     21  H   UNL     1     -17.234 -41.024  22.395  1.00  0.00     0.156 HD
ATOM     22  H   UNL     1     -17.665 -42.330  23.328  1.00  0.00     0.156 HD
ENDBRANCH   1  20
TORSDOF 1
ENDMDL
MODEL 9
REMARK VINA RESULT:    -8.210      5.522     10.180
REMARK INTER + INTRA:          -8.450
REMARK INTER:                  -8.450
REMARK INTRA:                   0.000
REMARK UNBOUND:                 0.000
REMARK SMILES CC1=C[C@@H]2Cc3nc4cc(Cl)ccc4c(N)c3[C@H](C1)C2
REMARK SMILES IDX 15 1 17 2 6 3 7 4 8 5 9 6 10 7 11 8 12 9 13 10 14 11 5 12
REMARK SMILES IDX 4 13 3 14 2 15 1 16 19 17 18 18 20 19 16 20
REMARK H PARENT 16 21 16 22
ROOT
ATOM      1  C   UNL     1     -19.703 -41.411  23.974  1.00  0.00     0.046 A 
ATOM      2  C   UNL     1     -20.016 -40.701  22.801  1.00  0.00     0.001 A 
ATOM      3  C   UNL     1     -19.009 -40.544  21.844  1.00  0.00     0.047 A 
ATOM      4  N   UNL     1     -17.743 -40.987  22.028  1.00  0.00    -0.252 NA
ATOM      5  C   UNL     1     -17.431 -41.609  23.171  1.00  0.00     0.074 A 
ATOM      6  C   UNL     1     -16.119 -42.025  23.336  1.00  0.00     0.049 A 
ATOM      7  C   UNL     1     -15.701 -42.659  24.502  1.00  0.00     0.043 A 
ATOM      8  Cl  UNL     1     -14.062 -43.156  24.671  1.00  0.00    -0.084 Cl
ATOM      9  C   UNL     1     -16.598 -42.886  25.535  1.00  0.00     0.021 A 
ATOM     10  C   UNL     1     -17.924 -42.478  25.386  1.00  0.00     0.014 A 
ATOM     11  C   UNL     1     -18.369 -41.840  24.201  1.00  0.00     0.024 A 
ATOM     12  C   UNL     1     -19.249 -39.809  20.543  1.00  0.00     0.064 C 
ATOM     13  C   UNL     1     -20.731 -39.542  20.245  1.00  0.00     0.018 C 
ATOM     14  C   UNL     1     -21.414 -40.792  19.734  1.00  0.00    -0.024 C 
ATOM     15  C   UNL     1     -22.160 -41.593  20.517  1.00  0.00    -0.076 C 
ATOM     16  C   UNL     1     -22.847 -42.818  19.990  1.00  0.00     0.039 C 
ATOM     17  C   UNL     1     -22.340 -41.311  21.996  1.00  0.00     0.039 C 
ATOM     18  C   UNL     1     -21.426 -40.185  22.535  1.00  0.00     0.028 C 
ATOM     19  C   UNL     1     -21.401 -39.031  21.524  1.00  0.00     0.017 C 
ENDROOT
BRANCH   1  20
ATOM     20  N   UNL     1     -20.689 -41.495  24.993  1.00  0.00    -0.398 N 
ATOM     21  H   UNL     1     -21.634 -41.418  24.636  1.00  0.00     0.156 HD
ATOM     22  H   UNL     1     -20.585 -42.368  25.507  1.00  0.00     0.156 HD
ENDBRANCH   1  20
TORSDOF 1
ENDMDL
