MODEL 1
REMARK VINA RESULT:    -9.746      0.000      0.000
REMARK INTER + INTRA:         -10.698
REMARK INTER:                 -10.600
REMARK INTRA:                  -0.098
REMARK UNBOUND:                -0.098
REMARK SMILES CCC1=C[C@@H]2Cc3[nH]c4cc(Cl)ccc4c(=N)c3[C@H](C1)C2
REMARK SMILES IDX 8 1 7 2 18 3 16 4 15 5 14 6 13 7 11 8 12 9 10 10 9 11 19 12
REMARK SMILES IDX 20 13 3 14 4 15 5 16 6 17 21 18 17 20 2 22 1 23
REMARK H PARENT 8 19 17 21
ROOT
ATOM      1  N   UNL     1     -13.358 -44.937  27.192  1.00  0.00    -0.358 N 
ATOM      2  C   UNL     1     -13.155 -45.235  28.522  1.00  0.00     0.021 A 
ATOM      3  C   UNL     1     -13.964 -44.796  29.514  1.00  0.00     0.000 A 
ATOM      4  C   UNL     1     -15.130 -43.915  29.145  1.00  0.00     0.068 A 
ATOM      5  C   UNL     1     -15.301 -43.577  27.701  1.00  0.00     0.023 A 
ATOM      6  C   UNL     1     -16.357 -42.754  27.281  1.00  0.00     0.014 A 
ATOM      7  C   UNL     1     -16.507 -42.449  25.929  1.00  0.00     0.021 A 
ATOM      8  C   UNL     1     -15.606 -42.969  25.002  1.00  0.00     0.043 A 
ATOM      9  Cl  UNL     1     -15.794 -42.601  23.331  1.00  0.00    -0.084 Cl
ATOM     10  C   UNL     1     -14.554 -43.789  25.414  1.00  0.00     0.047 A 
ATOM     11  C   UNL     1     -14.387 -44.090  26.770  1.00  0.00     0.049 A 
ATOM     12  C   UNL     1     -13.743 -45.166  30.973  1.00  0.00     0.028 C 
ATOM     13  C   UNL     1     -13.010 -44.029  31.725  1.00  0.00     0.039 C 
ATOM     14  C   UNL     1     -11.513 -43.993  31.471  1.00  0.00    -0.074 C 
ATOM     15  C   UNL     1     -10.889 -44.996  30.823  1.00  0.00    -0.024 C 
ATOM     16  C   UNL     1     -11.606 -46.231  30.320  1.00  0.00     0.018 C 
ATOM     17  C   UNL     1     -11.934 -46.097  28.821  1.00  0.00     0.062 C 
ATOM     18  C   UNL     1     -12.910 -46.450  31.089  1.00  0.00     0.017 C 
ATOM     19  H   UNL     1     -12.634 -45.188  26.529  1.00  0.00     0.166 HD
ENDROOT
BRANCH   4  20
ATOM     20  N   UNL     1     -15.978 -43.431  29.999  1.00  0.00    -0.300 NA
ATOM     21  H   UNL     1     -16.241 -44.109  30.713  1.00  0.00     0.188 HD
ENDBRANCH   4  20
BRANCH  14  22
ATOM     22  C   UNL     1     -10.761 -42.791  31.989  1.00  0.00     0.027 C 
ATOM     23  C   UNL     1      -9.633 -43.174  32.937  1.00  0.00     0.008 C 
ENDBRANCH  14  22
TORSDOF 2
ENDMDL
MODEL 2
REMARK VINA RESULT:    -9.639      1.834      2.786
REMARK INTER + INTRA:         -10.583
REMARK INTER:                 -10.483
REMARK INTRA:                  -0.099
REMARK UNBOUND:                -0.098
REMARK SMILES CCC1=C[C@@H]2Cc3[nH]c4cc(Cl)ccc4c(=N)c3[C@H](C1)C2
REMARK SMILES IDX 8 1 7 2 18 3 16 4 15 5 14 6 13 7 11 8 12 9 10 10 9 11 19 12
REMARK SMILES IDX 20 13 3 14 4 15 5 16 6 17 21 18 17 20 2 22 1 23
REMARK H PARENT 8 19 17 21
ROOT
ATOM      1  N   UNL     1     -10.961 -43.283  27.797  1.00  0.00    -0.358 N 
ATOM      2  C   UNL     1     -10.400 -43.933  28.875  1.00  0.00     0.021 A 
ATOM      3  C   UNL     1     -11.075 -44.822  29.640  1.00  0.00     0.000 A 
ATOM      4  C   UNL     1     -12.522 -45.091  29.312  1.00  0.00     0.068 A 
ATOM      5  C   UNL     1     -13.113 -44.341  28.164  1.00  0.00     0.023 A 
ATOM      6  C   UNL     1     -14.455 -44.530  27.804  1.00  0.00     0.014 A 
ATOM      7  C   UNL     1     -14.993 -43.826  26.728  1.00  0.00     0.021 A 
ATOM      8  C   UNL     1     -14.189 -42.940  26.015  1.00  0.00     0.043 A 
ATOM      9  Cl  UNL     1     -14.849 -42.076  24.680  1.00  0.00    -0.084 Cl
ATOM     10  C   UNL     1     -12.853 -42.748  26.367  1.00  0.00     0.047 A 
ATOM     11  C   UNL     1     -12.307 -43.440  27.454  1.00  0.00     0.049 A 
ATOM     12  C   UNL     1     -10.426 -45.557  30.804  1.00  0.00     0.028 C 
ATOM     13  C   UNL     1     -10.769 -44.872  32.148  1.00  0.00     0.039 C 
ATOM     14  C   UNL     1      -9.944 -43.627  32.429  1.00  0.00    -0.074 C 
ATOM     15  C   UNL     1      -8.881 -43.306  31.665  1.00  0.00    -0.024 C 
ATOM     16  C   UNL     1      -8.413 -44.149  30.497  1.00  0.00     0.018 C 
ATOM     17  C   UNL     1      -8.946 -43.581  29.168  1.00  0.00     0.062 C 
ATOM     18  C   UNL     1      -8.900 -45.592  30.643  1.00  0.00     0.017 C 
ATOM     19  H   UNL     1     -10.434 -42.536  27.362  1.00  0.00     0.166 HD
ENDROOT
BRANCH   4  20
ATOM     20  N   UNL     1     -13.276 -45.918  29.966  1.00  0.00    -0.300 NA
ATOM     21  H   UNL     1     -13.750 -45.476  30.752  1.00  0.00     0.188 HD
ENDBRANCH   4  20
BRANCH  14  22
ATOM     22  C   UNL     1     -10.362 -42.782  33.607  1.00  0.00     0.027 C 
ATOM     23  C   UNL     1      -9.175 -42.304  34.432  1.00  0.00     0.008 C 
ENDBRANCH  14  22
TORSDOF 2
ENDMDL
MODEL 3
REMARK VINA RESULT:    -9.012      3.732      7.125
REMARK INTER + INTRA:          -9.900
REMARK INTER:                  -9.801
REMARK INTRA:                  -0.099
REMARK UNBOUND:                -0.098
REMARK SMILES CCC1=C[C@@H]2Cc3[nH]c4cc(Cl)ccc4c(=N)c3[C@H](C1)C2
REMARK SMILES IDX 8 1 7 2 18 3 16 4 15 5 14 6 13 7 11 8 12 9 10 10 9 11 19 12
REMARK SMILES IDX 20 13 3 14 4 15 5 16 6 17 21 18 17 20 2 22 1 23
REMARK H PARENT 8 19 17 21
ROOT
ATOM      1  N   UNL     1     -11.921 -43.670  32.484  1.00  0.00    -0.358 N 
ATOM      2  C   UNL     1     -12.240 -44.447  31.391  1.00  0.00     0.021 A 
ATOM      3  C   UNL     1     -11.312 -45.044  30.607  1.00  0.00     0.000 A 
ATOM      4  C   UNL     1      -9.856 -44.823  30.931  1.00  0.00     0.068 A 
ATOM      5  C   UNL     1      -9.542 -43.944  32.096  1.00  0.00     0.023 A 
ATOM      6  C   UNL     1      -8.211 -43.682  32.453  1.00  0.00     0.014 A 
ATOM      7  C   UNL     1      -7.931 -42.862  33.546  1.00  0.00     0.021 A 
ATOM      8  C   UNL     1      -8.980 -42.309  34.277  1.00  0.00     0.043 A 
ATOM      9  Cl  UNL     1      -8.637 -41.303  35.631  1.00  0.00    -0.084 Cl
ATOM     10  C   UNL     1     -10.306 -42.566  33.927  1.00  0.00     0.047 A 
ATOM     11  C   UNL     1     -10.597 -43.377  32.825  1.00  0.00     0.049 A 
ATOM     12  C   UNL     1     -11.686 -45.929  29.427  1.00  0.00     0.028 C 
ATOM     13  C   UNL     1     -11.599 -45.140  28.098  1.00  0.00     0.039 C 
ATOM     14  C   UNL     1     -12.793 -44.236  27.844  1.00  0.00    -0.074 C 
ATOM     15  C   UNL     1     -13.898 -44.303  28.613  1.00  0.00    -0.024 C 
ATOM     16  C   UNL     1     -14.051 -45.278  29.762  1.00  0.00     0.018 C 
ATOM     17  C   UNL     1     -13.729 -44.593  31.103  1.00  0.00     0.062 C 
ATOM     18  C   UNL     1     -13.112 -46.473  29.585  1.00  0.00     0.017 C 
ATOM     19  H   UNL     1     -12.664 -43.150  32.934  1.00  0.00     0.166 HD
ENDROOT
BRANCH   4  20
ATOM     20  N   UNL     1      -8.873 -45.338  30.261  1.00  0.00    -0.300 NA
ATOM     21  H   UNL     1      -8.437 -46.120  30.748  1.00  0.00     0.188 HD
ENDBRANCH   4  20
BRANCH  14  22
ATOM     22  C   UNL     1     -12.687 -43.276  26.685  1.00  0.00     0.027 C 
ATOM     23  C   UNL     1     -13.974 -43.194  25.876  1.00  0.00     0.008 C 
ENDBRANCH  14  22
TORSDOF 2
ENDMDL
MODEL 4
REMARK VINA RESULT:    -8.594      4.675      8.993
REMARK INTER + INTRA:          -9.445
REMARK INTER:                  -9.321
REMARK INTRA:                  -0.125
REMARK UNBOUND:                -0.098
REMARK SMILES CCC1=C[C@@H]2Cc3[nH]c4cc(Cl)ccc4c(=N)c3[C@H](C1)C2
REMARK SMILES IDX 8 1 7 2 18 3 16 4 15 5 14 6 13 7 11 8 12 9 10 10 9 11 19 12
REMARK SMILES IDX 20 13 3 14 4 15 5 16 6 17 21 18 17 20 2 22 1 23
REMARK H PARENT 8 19 17 21
ROOT
ATOM      1  N   UNL     1     -17.757 -42.380  26.394  1.00  0.00    -0.358 N 
ATOM      2  C   UNL     1     -18.910 -42.417  25.640  1.00  0.00     0.021 A 
ATOM      3  C   UNL     1     -18.932 -42.766  24.333  1.00  0.00     0.000 A 
ATOM      4  C   UNL     1     -17.625 -43.104  23.663  1.00  0.00     0.068 A 
ATOM      5  C   UNL     1     -16.388 -43.016  24.495  1.00  0.00     0.023 A 
ATOM      6  C   UNL     1     -15.133 -43.305  23.940  1.00  0.00     0.014 A 
ATOM      7  C   UNL     1     -13.986 -43.223  24.729  1.00  0.00     0.021 A 
ATOM      8  C   UNL     1     -14.098 -42.854  26.068  1.00  0.00     0.043 A 
ATOM      9  Cl  UNL     1     -12.685 -42.760  27.046  1.00  0.00    -0.084 Cl
ATOM     10  C   UNL     1     -15.344 -42.566  26.626  1.00  0.00     0.047 A 
ATOM     11  C   UNL     1     -16.499 -42.633  25.839  1.00  0.00     0.049 A 
ATOM     12  C   UNL     1     -20.221 -42.836  23.528  1.00  0.00     0.028 C 
ATOM     13  C   UNL     1     -20.418 -41.550  22.689  1.00  0.00     0.039 C 
ATOM     14  C   UNL     1     -20.941 -40.370  23.491  1.00  0.00    -0.074 C 
ATOM     15  C   UNL     1     -21.384 -40.525  24.754  1.00  0.00    -0.024 C 
ATOM     16  C   UNL     1     -21.417 -41.862  25.464  1.00  0.00     0.018 C 
ATOM     17  C   UNL     1     -20.186 -42.024  26.375  1.00  0.00     0.062 C 
ATOM     18  C   UNL     1     -21.433 -43.010  24.453  1.00  0.00     0.017 C 
ATOM     19  H   UNL     1     -17.805 -41.979  27.323  1.00  0.00     0.166 HD
ENDROOT
BRANCH   4  20
ATOM     20  N   UNL     1     -17.511 -43.454  22.420  1.00  0.00    -0.300 NA
ATOM     21  H   UNL     1     -17.754 -44.432  22.266  1.00  0.00     0.188 HD
ENDBRANCH   4  20
BRANCH  14  22
ATOM     22  C   UNL     1     -20.955 -39.028  22.801  1.00  0.00     0.027 C 
ATOM     23  C   UNL     1     -20.211 -39.047  21.473  1.00  0.00     0.008 C 
ENDBRANCH  14  22
TORSDOF 2
ENDMDL
MODEL 5
REMARK VINA RESULT:    -8.321      6.256     11.143
REMARK INTER + INTRA:          -9.149
REMARK INTER:                  -9.023
REMARK INTRA:                  -0.126
REMARK UNBOUND:                -0.098
REMARK SMILES CCC1=C[C@@H]2Cc3[nH]c4cc(Cl)ccc4c(=N)c3[C@H](C1)C2
REMARK SMILES IDX 8 1 7 2 18 3 16 4 15 5 14 6 13 7 11 8 12 9 10 10 9 11 19 12
REMARK SMILES IDX 20 13 3 14 4 15 5 16 6 17 21 18 17 20 2 22 1 23
REMARK H PARENT 8 19 17 21
ROOT
ATOM      1  N   UNL     1     -17.825 -40.903  21.795  1.00  0.00    -0.358 N 
ATOM      2  C   UNL     1     -19.111 -40.468  21.558  1.00  0.00     0.021 A 
ATOM      3  C   UNL     1     -20.119 -40.608  22.450  1.00  0.00     0.000 A 
ATOM      4  C   UNL     1     -19.824 -41.300  23.757  1.00  0.00     0.068 A 
ATOM      5  C   UNL     1     -18.431 -41.795  23.968  1.00  0.00     0.023 A 
ATOM      6  C   UNL     1     -18.082 -42.457  25.154  1.00  0.00     0.014 A 
ATOM      7  C   UNL     1     -16.777 -42.912  25.340  1.00  0.00     0.021 A 
ATOM      8  C   UNL     1     -15.827 -42.701  24.343  1.00  0.00     0.043 A 
ATOM      9  Cl  UNL     1     -14.213 -43.254  24.573  1.00  0.00    -0.084 Cl
ATOM     10  C   UNL     1     -16.168 -42.042  23.161  1.00  0.00     0.047 A 
ATOM     11  C   UNL     1     -17.478 -41.594  22.959  1.00  0.00     0.049 A 
ATOM     12  C   UNL     1     -21.524 -40.089  22.184  1.00  0.00     0.028 C 
ATOM     13  C   UNL     1     -22.449 -41.227  21.692  1.00  0.00     0.039 C 
ATOM     14  C   UNL     1     -22.262 -41.576  20.225  1.00  0.00    -0.074 C 
ATOM     15  C   UNL     1     -21.513 -40.804  19.413  1.00  0.00    -0.024 C 
ATOM     16  C   UNL     1     -20.822 -39.539  19.875  1.00  0.00     0.018 C 
ATOM     17  C   UNL     1     -19.342 -39.815  20.201  1.00  0.00     0.062 C 
ATOM     18  C   UNL     1     -21.503 -38.978  21.125  1.00  0.00     0.017 C 
ATOM     19  H   UNL     1     -17.165 -40.884  21.027  1.00  0.00     0.166 HD
ENDROOT
BRANCH   4  20
ATOM     20  N   UNL     1     -20.699 -41.495  24.694  1.00  0.00    -0.300 NA
ATOM     21  H   UNL     1     -21.050 -42.452  24.705  1.00  0.00     0.188 HD
ENDBRANCH   4  20
BRANCH  14  22
ATOM     22  C   UNL     1     -22.965 -42.813  19.722  1.00  0.00     0.027 C 
ATOM     23  C   UNL     1     -22.043 -44.022  19.656  1.00  0.00     0.008 C 
ENDBRANCH  14  22
TORSDOF 2
ENDMDL
MODEL 6
REMARK VINA RESULT:    -8.254      4.451      5.641
REMARK INTER + INTRA:          -9.076
REMARK INTER:                  -8.959
REMARK INTRA:                  -0.117
REMARK UNBOUND:                -0.098
REMARK SMILES CCC1=C[C@@H]2Cc3[nH]c4cc(Cl)ccc4c(=N)c3[C@H](C1)C2
REMARK SMILES IDX 8 1 7 2 18 3 16 4 15 5 14 6 13 7 11 8 12 9 10 10 9 11 19 12
REMARK SMILES IDX 20 13 3 14 4 15 5 16 6 17 21 18 17 20 2 22 1 23
REMARK H PARENT 8 19 17 21
ROOT
ATOM      1  N   UNL     1     -12.088 -42.407  31.418  1.00  0.00    -0.358 N 
ATOM      2  C   UNL     1     -11.519 -43.355  30.596  1.00  0.00     0.021 A 
ATOM      3  C   UNL     1     -11.858 -44.665  30.626  1.00  0.00     0.000 A 
ATOM      4  C   UNL     1     -12.891 -45.111  31.630  1.00  0.00     0.068 A 
ATOM      5  C   UNL     1     -13.460 -44.067  32.534  1.00  0.00     0.023 A 
ATOM      6  C   UNL     1     -14.418 -44.407  33.500  1.00  0.00     0.014 A 
ATOM      7  C   UNL     1     -14.944 -43.422  34.336  1.00  0.00     0.021 A 
ATOM      8  C   UNL     1     -14.513 -42.104  34.201  1.00  0.00     0.043 A 
ATOM      9  Cl  UNL     1     -15.167 -40.885  35.226  1.00  0.00    -0.084 Cl
ATOM     10  C   UNL     1     -13.560 -41.760  33.241  1.00  0.00     0.047 A 
ATOM     11  C   UNL     1     -13.017 -42.743  32.407  1.00  0.00     0.049 A 
ATOM     12  C   UNL     1     -11.244 -45.690  29.685  1.00  0.00     0.028 C 
ATOM     13  C   UNL     1     -10.103 -46.467  30.384  1.00  0.00     0.039 C 
ATOM     14  C   UNL     1      -8.794 -45.699  30.457  1.00  0.00    -0.074 C 
ATOM     15  C   UNL     1      -8.621 -44.548  29.779  1.00  0.00    -0.024 C 
ATOM     16  C   UNL     1      -9.684 -43.941  28.888  1.00  0.00     0.018 C 
ATOM     17  C   UNL     1     -10.455 -42.837  29.636  1.00  0.00     0.062 C 
ATOM     18  C   UNL     1     -10.679 -45.009  28.431  1.00  0.00     0.017 C 
ATOM     19  H   UNL     1     -11.684 -41.478  31.428  1.00  0.00     0.166 HD
ENDROOT
BRANCH   4  20
ATOM     20  N   UNL     1     -13.303 -46.334  31.759  1.00  0.00    -0.300 NA
ATOM     21  H   UNL     1     -14.219 -46.483  31.337  1.00  0.00     0.188 HD
ENDBRANCH   4  20
BRANCH  14  22
ATOM     22  C   UNL     1      -7.701 -46.294  31.310  1.00  0.00     0.027 C 
ATOM     23  C   UNL     1      -6.886 -45.233  32.037  1.00  0.00     0.008 C 
ENDBRANCH  14  22
TORSDOF 2
ENDMDL
MODEL 7
REMARK VINA RESULT:    -8.251      4.550      9.259
REMARK INTER + INTRA:          -9.072
REMARK INTER:                  -8.946
REMARK INTRA:                  -0.127
REMARK UNBOUND:                -0.098
REMARK SMILES CCC1=C[C@@H]2Cc3[nH]c4cc(Cl)ccc4c(=N)c3[C@H](C1)C2
REMARK SMILES IDX 8 1 7 2 18 3 16 4 15 5 14 6 13 7 11 8 12 9 10 10 9 11 19 12
REMARK SMILES IDX 20 13 3 14 4 15 5 16 6 17 21 18 17 20 2 22 1 23
REMARK H PARENT 8 19 17 21
ROOT
ATOM      1  N   UNL     1     -17.564 -42.367  23.970  1.00  0.00    -0.358 N 
ATOM      2  C   UNL     1     -18.863 -41.938  23.807  1.00  0.00     0.021 A 
ATOM      3  C   UNL     1     -19.687 -41.651  24.841  1.00  0.00     0.000 A 
ATOM      4  C   UNL     1     -19.163 -41.838  26.243  1.00  0.00     0.068 A 
ATOM      5  C   UNL     1     -17.765 -42.343  26.388  1.00  0.00     0.023 A 
ATOM      6  C   UNL     1     -17.211 -42.552  27.659  1.00  0.00     0.014 A 
ATOM      7  C   UNL     1     -15.904 -43.021  27.781  1.00  0.00     0.021 A 
ATOM      8  C   UNL     1     -15.155 -43.276  26.633  1.00  0.00     0.043 A 
ATOM      9  Cl  UNL     1     -13.538 -43.846  26.781  1.00  0.00    -0.084 Cl
ATOM     10  C   UNL     1     -15.701 -43.069  25.366  1.00  0.00     0.047 A 
ATOM     11  C   UNL     1     -17.016 -42.611  25.233  1.00  0.00     0.049 A 
ATOM     12  C   UNL     1     -21.107 -41.143  24.639  1.00  0.00     0.028 C 
ATOM     13  C   UNL     1     -22.129 -42.296  24.775  1.00  0.00     0.039 C 
ATOM     14  C   UNL     1     -22.230 -43.174  23.539  1.00  0.00    -0.074 C 
ATOM     15  C   UNL     1     -21.633 -42.823  22.382  1.00  0.00    -0.024 C 
ATOM     16  C   UNL     1     -20.843 -41.543  22.211  1.00  0.00     0.018 C 
ATOM     17  C   UNL     1     -19.334 -41.810  22.363  1.00  0.00     0.062 C 
ATOM     18  C   UNL     1     -21.264 -40.505  23.252  1.00  0.00     0.017 C 
ATOM     19  H   UNL     1     -17.060 -42.690  23.153  1.00  0.00     0.166 HD
ENDROOT
BRANCH   4  20
ATOM     20  N   UNL     1     -19.849 -41.598  27.316  1.00  0.00    -0.300 NA
ATOM     21  H   UNL     1     -19.325 -41.053  28.000  1.00  0.00     0.188 HD
ENDBRANCH   4  20
BRANCH  14  22
ATOM     22  C   UNL     1     -23.039 -44.441  23.665  1.00  0.00     0.027 C 
ATOM     23  C   UNL     1     -22.240 -45.584  24.275  1.00  0.00     0.008 C 
ENDBRANCH  14  22
TORSDOF 2
ENDMDL
MODEL 8
REMARK VINA RESULT:    -8.179      5.284     10.268
REMARK INTER + INTRA:          -8.994
REMARK INTER:                  -8.897
REMARK INTRA:                  -0.097
REMARK UNBOUND:                -0.098
REMARK SMILES CCC1=C[C@@H]2Cc3[nH]c4cc(Cl)ccc4c(=N)c3[C@H](C1)C2
REMARK SMILES IDX 8 1 7 2 18 3 16 4 15 5 14 6 13 7 11 8 12 9 10 10 9 11 19 12
REMARK SMILES IDX 20 13 3 14 4 15 5 16 6 17 21 18 17 20 2 22 1 23
REMARK H PARENT 8 19 17 21
ROOT
ATOM      1  N   UNL     1     -20.237 -42.079  25.846  1.00  0.00    -0.358 N 
ATOM      2  C   UNL     1     -20.637 -42.080  24.526  1.00  0.00     0.021 A 
ATOM      3  C   UNL     1     -19.799 -42.341  23.496  1.00  0.00     0.000 A 
ATOM      4  C   UNL     1     -18.350 -42.617  23.809  1.00  0.00     0.068 A 
ATOM      5  C   UNL     1     -17.939 -42.569  25.243  1.00  0.00     0.023 A 
ATOM      6  C   UNL     1     -16.606 -42.805  25.611  1.00  0.00     0.014 A 
ATOM      7  C   UNL     1     -16.237 -42.761  26.955  1.00  0.00     0.021 A 
ATOM      8  C   UNL     1     -17.199 -42.484  27.924  1.00  0.00     0.043 A 
ATOM      9  Cl  UNL     1     -16.747 -42.438  29.585  1.00  0.00    -0.084 Cl
ATOM     10  C   UNL     1     -18.526 -42.250  27.564  1.00  0.00     0.047 A 
ATOM     11  C   UNL     1     -18.905 -42.279  26.218  1.00  0.00     0.049 A 
ATOM     12  C   UNL     1     -20.268 -42.373  22.049  1.00  0.00     0.028 C 
ATOM     13  C   UNL     1     -19.950 -41.036  21.337  1.00  0.00     0.039 C 
ATOM     14  C   UNL     1     -20.926 -39.920  21.666  1.00  0.00    -0.074 C 
ATOM     15  C   UNL     1     -22.066 -40.165  22.341  1.00  0.00    -0.024 C 
ATOM     16  C   UNL     1     -22.475 -41.547  22.806  1.00  0.00     0.018 C 
ATOM     17  C   UNL     1     -22.106 -41.754  24.287  1.00  0.00     0.062 C 
ATOM     18  C   UNL     1     -21.780 -42.625  21.972  1.00  0.00     0.017 C 
ATOM     19  H   UNL     1     -20.890 -41.742  26.543  1.00  0.00     0.166 HD
ENDROOT
BRANCH   4  20
ATOM     20  N   UNL     1     -17.448 -42.881  22.915  1.00  0.00    -0.300 NA
ATOM     21  H   UNL     1     -16.623 -43.327  23.313  1.00  0.00     0.188 HD
ENDBRANCH   4  20
BRANCH  14  22
ATOM     22  C   UNL     1     -20.566 -38.535  21.187  1.00  0.00     0.027 C 
ATOM     23  C   UNL     1     -20.939 -38.306  19.729  1.00  0.00     0.008 C 
ENDBRANCH  14  22
TORSDOF 2
ENDMDL
MODEL 9
REMARK VINA RESULT:    -7.976      7.845      9.987
REMARK INTER + INTRA:          -8.774
REMARK INTER:                  -8.666
REMARK INTRA:                  -0.108
REMARK UNBOUND:                -0.098
REMARK SMILES CCC1=C[C@@H]2Cc3[nH]c4cc(Cl)ccc4c(=N)c3[C@H](C1)C2
REMARK SMILES IDX 8 1 7 2 18 3 16 4 15 5 14 6 13 7 11 8 12 9 10 10 9 11 19 12
REMARK SMILES IDX 20 13 3 14 4 15 5 16 6 17 21 18 17 20 2 22 1 23
REMARK H PARENT 8 19 17 21
ROOT
ATOM      1  N   UNL     1     -21.636 -39.829  23.467  1.00  0.00    -0.358 N 
ATOM      2  C   UNL     1     -21.003 -40.610  24.410  1.00  0.00     0.021 A 
ATOM      3  C   UNL     1     -19.831 -41.247  24.182  1.00  0.00     0.000 A 
ATOM      4  C   UNL     1     -19.202 -41.115  22.818  1.00  0.00     0.068 A 
ATOM      5  C   UNL     1     -19.932 -40.295  21.805  1.00  0.00     0.023 A 
ATOM      6  C   UNL     1     -19.415 -40.135  20.511  1.00  0.00     0.014 A 
ATOM      7  C   UNL     1     -20.104 -39.364  19.576  1.00  0.00     0.021 A 
ATOM      8  C   UNL     1     -21.304 -38.756  19.937  1.00  0.00     0.043 A 
ATOM      9  Cl  UNL     1     -22.153 -37.796  18.788  1.00  0.00    -0.084 Cl
ATOM     10  C   UNL     1     -21.823 -38.911  21.224  1.00  0.00     0.047 A 
ATOM     11  C   UNL     1     -21.145 -39.693  22.165  1.00  0.00     0.049 A 
ATOM     12  C   UNL     1     -19.130 -42.075  25.248  1.00  0.00     0.028 C 
ATOM     13  C   UNL     1     -19.428 -43.581  25.061  1.00  0.00     0.039 C 
ATOM     14  C   UNL     1     -20.792 -44.004  25.579  1.00  0.00    -0.074 C 
ATOM     15  C   UNL     1     -21.549 -43.169  26.318  1.00  0.00    -0.024 C 
ATOM     16  C   UNL     1     -21.109 -41.772  26.703  1.00  0.00     0.018 C 
ATOM     17  C   UNL     1     -21.718 -40.727  25.750  1.00  0.00     0.062 C 
ATOM     18  C   UNL     1     -19.585 -41.653  26.652  1.00  0.00     0.017 C 
ATOM     19  H   UNL     1     -22.573 -39.500  23.669  1.00  0.00     0.166 HD
ENDROOT
BRANCH   4  20
ATOM     20  N   UNL     1     -18.083 -41.673  22.474  1.00  0.00    -0.300 NA
ATOM     21  H   UNL     1     -17.274 -41.094  22.699  1.00  0.00     0.188 HD
ENDBRANCH   4  20
BRANCH  14  22
ATOM     22  C   UNL     1     -21.247 -45.402  25.242  1.00  0.00     0.027 C 
ATOM     23  C   UNL     1     -22.654 -45.695  25.744  1.00  0.00     0.008 C 
ENDBRANCH  14  22
TORSDOF 2
ENDMDL
