MODEL 1
REMARK VINA RESULT:    -9.968      0.000      0.000
REMARK INTER + INTRA:         -15.195
REMARK INTER:                 -14.339
REMARK INTRA:                  -0.856
REMARK UNBOUND:                -0.856
REMARK SMILES CCN(CC)c1cc(/C=C2/OC(=O)c3cc(OC)c(OC)cc32)ccc1O
REMARK SMILES IDX 6 1 7 2 8 3 24 4 25 5 26 6 3 7 2 8 1 9 4 10 5 11 27 12 9 14
REMARK SMILES IDX 10 15 11 16 23 17 12 18 22 19 14 20 19 21 15 22 16 23 13 24
REMARK SMILES IDX 20 25 21 26 17 27 18 28
REMARK H PARENT 27 13
ROOT
ATOM      1  C   UNL     1     -11.229 -44.342  28.674  1.00  0.00     0.080 A 
ATOM      2  C   UNL     1     -12.232 -43.684  27.925  1.00  0.00     0.038 A 
ATOM      3  C   UNL     1     -13.121 -44.352  27.063  1.00  0.00    -0.020 A 
ATOM      4  C   UNL     1     -13.062 -45.734  26.950  1.00  0.00     0.012 A 
ATOM      5  C   UNL     1     -12.112 -46.434  27.683  1.00  0.00     0.049 A 
ATOM      6  C   UNL     1     -11.215 -45.752  28.524  1.00  0.00     0.138 A 
ENDROOT
BRANCH   1   7
ATOM      7  N   UNL     1     -10.344 -43.608  29.469  1.00  0.00    -0.369 N 
BRANCH   7   8
ATOM      8  C   UNL     1      -8.988 -43.253  29.032  1.00  0.00     0.113 C 
ATOM      9  C   UNL     1      -9.012 -42.510  27.703  1.00  0.00     0.027 C 
ENDBRANCH   7   8
BRANCH   7  10
ATOM     10  C   UNL     1     -10.712 -43.123  30.809  1.00  0.00     0.113 C 
ATOM     11  C   UNL     1     -10.696 -44.255  31.828  1.00  0.00     0.027 C 
ENDBRANCH   7  10
ENDBRANCH   1   7
BRANCH   6  12
ATOM     12  O   UNL     1     -10.318 -46.533  29.212  1.00  0.00    -0.506 OA
ATOM     13  H   UNL     1     -10.610 -46.624  30.132  1.00  0.00     0.293 HD
ENDBRANCH   6  12
BRANCH   3  14
ATOM     14  C   UNL     1     -14.089 -43.599  26.266  1.00  0.00     0.056 C 
BRANCH  14  15
ATOM     15  C   UNL     1     -15.315 -43.219  26.657  1.00  0.00     0.140 C 
ATOM     16  O   UNL     1     -15.632 -43.194  28.030  1.00  0.00    -0.422 OA
ATOM     17  C   UNL     1     -16.465 -42.782  25.893  1.00  0.00     0.036 A 
ATOM     18  C   UNL     1     -16.919 -42.732  28.157  1.00  0.00     0.344 C 
ATOM     19  C   UNL     1     -16.739 -42.639  24.542  1.00  0.00     0.063 A 
ATOM     20  C   UNL     1     -17.436 -42.477  26.819  1.00  0.00     0.075 A 
ATOM     21  C   UNL     1     -17.996 -42.156  24.147  1.00  0.00     0.161 A 
ATOM     22  C   UNL     1     -18.697 -42.012  26.476  1.00  0.00     0.067 A 
ATOM     23  C   UNL     1     -18.984 -41.847  25.120  1.00  0.00     0.161 A 
ATOM     24  O   UNL     1     -17.530 -42.566  29.195  1.00  0.00    -0.246 OA
BRANCH  21  25
ATOM     25  O   UNL     1     -18.363 -41.964  22.836  1.00  0.00    -0.493 OA
ATOM     26  C   UNL     1     -17.738 -40.900  22.128  1.00  0.00     0.278 C 
ENDBRANCH  21  25
BRANCH  23  27
ATOM     27  O   UNL     1     -20.183 -41.390  24.634  1.00  0.00    -0.493 OA
ATOM     28  C   UNL     1     -21.187 -41.043  25.577  1.00  0.00     0.278 C 
ENDBRANCH  23  27
ENDBRANCH  14  15
ENDBRANCH   3  14
TORSDOF 8
ENDMDL
MODEL 2
REMARK VINA RESULT:    -9.629      1.428      2.099
REMARK INTER + INTRA:         -14.707
REMARK INTER:                 -13.795
REMARK INTRA:                  -0.913
REMARK UNBOUND:                -0.856
REMARK SMILES CCN(CC)c1cc(/C=C2/OC(=O)c3cc(OC)c(OC)cc32)ccc1O
REMARK SMILES IDX 6 1 7 2 8 3 24 4 25 5 26 6 3 7 2 8 1 9 4 10 5 11 27 12 9 14
REMARK SMILES IDX 10 15 11 16 23 17 12 18 22 19 14 20 19 21 15 22 16 23 13 24
REMARK SMILES IDX 20 25 21 26 17 27 18 28
REMARK H PARENT 27 13
ROOT
ATOM      1  C   UNL     1     -10.676 -44.308  29.402  1.00  0.00     0.080 A 
ATOM      2  C   UNL     1     -11.813 -44.618  28.623  1.00  0.00     0.038 A 
ATOM      3  C   UNL     1     -12.297 -43.792  27.591  1.00  0.00    -0.020 A 
ATOM      4  C   UNL     1     -11.619 -42.624  27.271  1.00  0.00     0.012 A 
ATOM      5  C   UNL     1     -10.479 -42.284  27.989  1.00  0.00     0.049 A 
ATOM      6  C   UNL     1     -10.020 -43.107  29.032  1.00  0.00     0.138 A 
ENDROOT
BRANCH   1   7
ATOM      7  N   UNL     1     -10.284 -45.148  30.449  1.00  0.00    -0.369 N 
BRANCH   7   8
ATOM      8  C   UNL     1      -9.228 -46.159  30.307  1.00  0.00     0.113 C 
ATOM      9  C   UNL     1      -8.209 -46.055  31.434  1.00  0.00     0.027 C 
ENDBRANCH   7   8
BRANCH   7  10
ATOM     10  C   UNL     1     -10.897 -45.075  31.785  1.00  0.00     0.113 C 
ATOM     11  C   UNL     1     -10.781 -43.672  32.367  1.00  0.00     0.027 C 
ENDBRANCH   7  10
ENDBRANCH   1   7
BRANCH   6  12
ATOM     12  O   UNL     1      -8.881 -42.688  29.676  1.00  0.00    -0.506 OA
ATOM     13  H   UNL     1      -8.776 -43.187  30.500  1.00  0.00     0.293 HD
ENDBRANCH   6  12
BRANCH   3  14
ATOM     14  C   UNL     1     -13.521 -44.141  26.871  1.00  0.00     0.056 C 
BRANCH  14  15
ATOM     15  C   UNL     1     -14.754 -43.683  27.133  1.00  0.00     0.140 C 
ATOM     16  O   UNL     1     -15.202 -43.609  28.467  1.00  0.00    -0.422 OA
ATOM     17  C   UNL     1     -15.796 -43.197  26.252  1.00  0.00     0.036 A 
ATOM     18  C   UNL     1     -16.465 -43.071  28.459  1.00  0.00     0.344 C 
ATOM     19  C   UNL     1     -15.927 -43.068  24.879  1.00  0.00     0.063 A 
ATOM     20  C   UNL     1     -16.833 -42.816  27.073  1.00  0.00     0.075 A 
ATOM     21  C   UNL     1     -17.109 -42.522  24.354  1.00  0.00     0.161 A 
ATOM     22  C   UNL     1     -18.024 -42.287  26.600  1.00  0.00     0.067 A 
ATOM     23  C   UNL     1     -18.166 -42.135  25.219  1.00  0.00     0.161 A 
ATOM     24  O   UNL     1     -17.164 -42.848  29.430  1.00  0.00    -0.246 OA
BRANCH  21  25
ATOM     25  O   UNL     1     -17.334 -42.338  23.010  1.00  0.00    -0.493 OA
ATOM     26  C   UNL     1     -16.638 -41.276  22.367  1.00  0.00     0.278 C 
ENDBRANCH  21  25
BRANCH  23  27
ATOM     27  O   UNL     1     -19.283 -41.619  24.610  1.00  0.00    -0.493 OA
ATOM     28  C   UNL     1     -20.405 -41.324  25.430  1.00  0.00     0.278 C 
ENDBRANCH  23  27
ENDBRANCH  14  15
ENDBRANCH   3  14
TORSDOF 8
ENDMDL
MODEL 3
REMARK VINA RESULT:    -9.206      2.634      8.589
REMARK INTER + INTRA:         -14.098
REMARK INTER:                 -13.965
REMARK INTRA:                  -0.133
REMARK UNBOUND:                -0.856
REMARK SMILES CCN(CC)c1cc(/C=C2/OC(=O)c3cc(OC)c(OC)cc32)ccc1O
REMARK SMILES IDX 6 1 7 2 8 3 24 4 25 5 26 6 3 7 2 8 1 9 4 10 5 11 27 12 9 14
REMARK SMILES IDX 10 15 11 16 23 17 12 18 22 19 14 20 19 21 15 22 16 23 13 24
REMARK SMILES IDX 20 25 21 26 17 27 18 28
REMARK H PARENT 27 13
ROOT
ATOM      1  C   UNL     1     -17.252 -42.759  25.264  1.00  0.00     0.080 A 
ATOM      2  C   UNL     1     -15.960 -43.329  25.328  1.00  0.00     0.038 A 
ATOM      3  C   UNL     1     -15.209 -43.420  26.515  1.00  0.00    -0.020 A 
ATOM      4  C   UNL     1     -15.755 -42.971  27.710  1.00  0.00     0.012 A 
ATOM      5  C   UNL     1     -17.032 -42.425  27.708  1.00  0.00     0.049 A 
ATOM      6  C   UNL     1     -17.763 -42.320  26.512  1.00  0.00     0.138 A 
ENDROOT
BRANCH   1   7
ATOM      7  N   UNL     1     -17.918 -42.652  24.039  1.00  0.00    -0.369 N 
BRANCH   7   8
ATOM      8  C   UNL     1     -19.381 -42.570  23.932  1.00  0.00     0.113 C 
ATOM      9  C   UNL     1     -19.820 -41.216  23.392  1.00  0.00     0.027 C 
ENDBRANCH   7   8
BRANCH   7  10
ATOM     10  C   UNL     1     -17.198 -42.600  22.757  1.00  0.00     0.113 C 
ATOM     11  C   UNL     1     -16.446 -41.285  22.601  1.00  0.00     0.027 C 
ENDBRANCH   7  10
ENDBRANCH   1   7
BRANCH   6  12
ATOM     12  O   UNL     1     -19.019 -41.772  26.616  1.00  0.00    -0.506 OA
ATOM     13  H   UNL     1     -18.997 -40.857  26.299  1.00  0.00     0.293 HD
ENDBRANCH   6  12
BRANCH   3  14
ATOM     14  C   UNL     1     -13.850 -43.959  26.495  1.00  0.00     0.056 C 
BRANCH  14  15
ATOM     15  C   UNL     1     -13.098 -44.255  27.566  1.00  0.00     0.140 C 
ATOM     16  O   UNL     1     -13.537 -45.238  28.476  1.00  0.00    -0.422 OA
ATOM     17  C   UNL     1     -11.818 -43.738  28.003  1.00  0.00     0.036 A 
ATOM     18  C   UNL     1     -12.574 -45.376  29.444  1.00  0.00     0.344 C 
ATOM     19  C   UNL     1     -10.950 -42.764  27.534  1.00  0.00     0.063 A 
ATOM     20  C   UNL     1     -11.502 -44.436  29.145  1.00  0.00     0.075 A 
ATOM     21  C   UNL     1      -9.749 -42.531  28.221  1.00  0.00     0.161 A 
ATOM     22  C   UNL     1     -10.335 -44.231  29.866  1.00  0.00     0.067 A 
ATOM     23  C   UNL     1      -9.442 -43.265  29.397  1.00  0.00     0.161 A 
ATOM     24  O   UNL     1     -12.602 -46.140  30.390  1.00  0.00    -0.246 OA
BRANCH  21  25
ATOM     25  O   UNL     1      -8.814 -41.601  27.831  1.00  0.00    -0.493 OA
ATOM     26  C   UNL     1      -8.056 -41.881  26.661  1.00  0.00     0.278 C 
ENDBRANCH  21  25
BRANCH  23  27
ATOM     27  O   UNL     1      -8.248 -42.958  30.002  1.00  0.00    -0.493 OA
ATOM     28  C   UNL     1      -7.702 -43.911  30.903  1.00  0.00     0.278 C 
ENDBRANCH  23  27
ENDBRANCH  14  15
ENDBRANCH   3  14
TORSDOF 8
ENDMDL
MODEL 4
REMARK VINA RESULT:    -8.861      2.465      8.079
REMARK INTER + INTRA:         -13.602
REMARK INTER:                 -12.822
REMARK INTRA:                  -0.779
REMARK UNBOUND:                -0.856
REMARK SMILES CCN(CC)c1cc(/C=C2/OC(=O)c3cc(OC)c(OC)cc32)ccc1O
REMARK SMILES IDX 6 1 7 2 8 3 24 4 25 5 26 6 3 7 2 8 1 9 4 10 5 11 27 12 9 14
REMARK SMILES IDX 10 15 11 16 23 17 12 18 22 19 14 20 19 21 15 22 16 23 13 24
REMARK SMILES IDX 20 25 21 26 17 27 18 28
REMARK H PARENT 27 13
ROOT
ATOM      1  C   UNL     1     -16.214 -43.100  26.397  1.00  0.00     0.080 A 
ATOM      2  C   UNL     1     -15.232 -43.938  26.973  1.00  0.00     0.038 A 
ATOM      3  C   UNL     1     -14.171 -44.506  26.244  1.00  0.00    -0.020 A 
ATOM      4  C   UNL     1     -14.031 -44.215  24.894  1.00  0.00     0.012 A 
ATOM      5  C   UNL     1     -14.955 -43.376  24.282  1.00  0.00     0.049 A 
ATOM      6  C   UNL     1     -16.023 -42.833  25.018  1.00  0.00     0.138 A 
ENDROOT
BRANCH   1   7
ATOM      7  N   UNL     1     -17.273 -42.615  27.171  1.00  0.00    -0.369 N 
BRANCH   7   8
ATOM      8  C   UNL     1     -17.072 -41.907  28.442  1.00  0.00     0.113 C 
ATOM      9  C   UNL     1     -16.995 -42.881  29.611  1.00  0.00     0.027 C 
ENDBRANCH   7   8
BRANCH   7  10
ATOM     10  C   UNL     1     -18.678 -42.767  26.761  1.00  0.00     0.113 C 
ATOM     11  C   UNL     1     -19.508 -41.563  27.186  1.00  0.00     0.027 C 
ENDBRANCH   7  10
ENDBRANCH   1   7
BRANCH   6  12
ATOM     12  O   UNL     1     -16.877 -42.010  24.325  1.00  0.00    -0.506 OA
ATOM     13  H   UNL     1     -17.200 -41.312  24.915  1.00  0.00     0.293 HD
ENDBRANCH   6  12
BRANCH   3  14
ATOM     14  C   UNL     1     -13.230 -45.420  26.891  1.00  0.00     0.056 C 
BRANCH  14  15
ATOM     15  C   UNL     1     -12.810 -45.357  28.164  1.00  0.00     0.140 C 
ATOM     16  O   UNL     1     -13.469 -46.112  29.154  1.00  0.00    -0.422 OA
ATOM     17  C   UNL     1     -11.720 -44.622  28.770  1.00  0.00     0.036 A 
ATOM     18  C   UNL     1     -12.820 -45.903  30.345  1.00  0.00     0.344 C 
ATOM     19  C   UNL     1     -10.776 -43.720  28.305  1.00  0.00     0.063 A 
ATOM     20  C   UNL     1     -11.728 -44.970  30.101  1.00  0.00     0.075 A 
ATOM     21  C   UNL     1      -9.826 -43.202  29.199  1.00  0.00     0.161 A 
ATOM     22  C   UNL     1     -10.821 -44.473  31.025  1.00  0.00     0.067 A 
ATOM     23  C   UNL     1      -9.853 -43.576  30.569  1.00  0.00     0.161 A 
ATOM     24  O   UNL     1     -13.101 -46.398  31.420  1.00  0.00    -0.246 OA
BRANCH  21  25
ATOM     25  O   UNL     1      -8.841 -42.315  28.838  1.00  0.00    -0.493 OA
ATOM     26  C   UNL     1      -8.632 -42.095  27.447  1.00  0.00     0.278 C 
ENDBRANCH  21  25
BRANCH  23  27
ATOM     27  O   UNL     1      -8.889 -43.009  31.365  1.00  0.00    -0.493 OA
ATOM     28  C   UNL     1      -7.897 -43.867  31.911  1.00  0.00     0.278 C 
ENDBRANCH  23  27
ENDBRANCH  14  15
ENDBRANCH   3  14
TORSDOF 8
ENDMDL
MODEL 5
REMARK VINA RESULT:    -8.782      2.070      3.187
REMARK INTER + INTRA:         -13.489
REMARK INTER:                 -12.839
REMARK INTRA:                  -0.650
REMARK UNBOUND:                -0.856
REMARK SMILES CCN(CC)c1cc(/C=C2/OC(=O)c3cc(OC)c(OC)cc32)ccc1O
REMARK SMILES IDX 6 1 7 2 8 3 24 4 25 5 26 6 3 7 2 8 1 9 4 10 5 11 27 12 9 14
REMARK SMILES IDX 10 15 11 16 23 17 12 18 22 19 14 20 19 21 15 22 16 23 13 24
REMARK SMILES IDX 20 25 21 26 17 27 18 28
REMARK H PARENT 27 13
ROOT
ATOM      1  C   UNL     1     -13.014 -45.222  28.999  1.00  0.00     0.080 A 
ATOM      2  C   UNL     1     -14.057 -44.321  28.687  1.00  0.00     0.038 A 
ATOM      3  C   UNL     1     -14.561 -44.135  27.386  1.00  0.00    -0.020 A 
ATOM      4  C   UNL     1     -14.054 -44.891  26.338  1.00  0.00     0.012 A 
ATOM      5  C   UNL     1     -13.044 -45.811  26.593  1.00  0.00     0.049 A 
ATOM      6  C   UNL     1     -12.535 -45.970  27.894  1.00  0.00     0.138 A 
ENDROOT
BRANCH   1   7
ATOM      7  N   UNL     1     -12.526 -45.314  30.305  1.00  0.00    -0.369 N 
BRANCH   7   8
ATOM      8  C   UNL     1     -11.176 -44.877  30.685  1.00  0.00     0.113 C 
ATOM      9  C   UNL     1     -10.422 -45.980  31.416  1.00  0.00     0.027 C 
ENDBRANCH   7   8
BRANCH   7  10
ATOM     10  C   UNL     1     -13.338 -45.850  31.410  1.00  0.00     0.113 C 
ATOM     11  C   UNL     1     -13.808 -44.736  32.336  1.00  0.00     0.027 C 
ENDBRANCH   7  10
ENDBRANCH   1   7
BRANCH   6  12
ATOM     12  O   UNL     1     -11.543 -46.909  28.044  1.00  0.00    -0.506 OA
ATOM     13  H   UNL     1     -11.564 -47.257  28.948  1.00  0.00     0.293 HD
ENDBRANCH   6  12
BRANCH   3  14
ATOM     14  C   UNL     1     -15.595 -43.135  27.125  1.00  0.00     0.056 C 
BRANCH  14  15
ATOM     15  C   UNL     1     -16.001 -42.708  25.919  1.00  0.00     0.140 C 
ATOM     16  O   UNL     1     -15.046 -42.299  24.967  1.00  0.00    -0.422 OA
ATOM     17  C   UNL     1     -17.326 -42.588  25.349  1.00  0.00     0.036 A 
ATOM     18  C   UNL     1     -15.716 -41.956  23.819  1.00  0.00     0.344 C 
ATOM     19  C   UNL     1     -18.612 -42.811  25.817  1.00  0.00     0.063 A 
ATOM     20  C   UNL     1     -17.141 -42.137  24.062  1.00  0.00     0.075 A 
ATOM     21  C   UNL     1     -19.699 -42.601  24.955  1.00  0.00     0.161 A 
ATOM     22  C   UNL     1     -18.184 -41.900  23.180  1.00  0.00     0.067 A 
ATOM     23  C   UNL     1     -19.484 -42.136  23.630  1.00  0.00     0.161 A 
ATOM     24  O   UNL     1     -15.219 -41.565  22.779  1.00  0.00    -0.246 OA
BRANCH  21  25
ATOM     25  O   UNL     1     -21.010 -42.806  25.315  1.00  0.00    -0.493 OA
ATOM     26  C   UNL     1     -21.646 -41.794  26.087  1.00  0.00     0.278 C 
ENDBRANCH  21  25
BRANCH  23  27
ATOM     27  O   UNL     1     -20.611 -41.953  22.868  1.00  0.00    -0.493 OA
ATOM     28  C   UNL     1     -20.522 -42.241  21.480  1.00  0.00     0.278 C 
ENDBRANCH  23  27
ENDBRANCH  14  15
ENDBRANCH   3  14
TORSDOF 8
ENDMDL
MODEL 6
REMARK VINA RESULT:    -8.753      2.921      8.873
REMARK INTER + INTRA:         -13.446
REMARK INTER:                 -13.320
REMARK INTRA:                  -0.126
REMARK UNBOUND:                -0.856
REMARK SMILES CCN(CC)c1cc(/C=C2/OC(=O)c3cc(OC)c(OC)cc32)ccc1O
REMARK SMILES IDX 6 1 7 2 8 3 24 4 25 5 26 6 3 7 2 8 1 9 4 10 5 11 27 12 9 14
REMARK SMILES IDX 10 15 11 16 23 17 12 18 22 19 14 20 19 21 15 22 16 23 13 24
REMARK SMILES IDX 20 25 21 26 17 27 18 28
REMARK H PARENT 27 13
ROOT
ATOM      1  C   UNL     1     -17.283 -42.440  24.905  1.00  0.00     0.080 A 
ATOM      2  C   UNL     1     -16.700 -42.836  26.130  1.00  0.00     0.038 A 
ATOM      3  C   UNL     1     -15.338 -43.162  26.273  1.00  0.00    -0.020 A 
ATOM      4  C   UNL     1     -14.488 -43.059  25.181  1.00  0.00     0.012 A 
ATOM      5  C   UNL     1     -15.003 -42.649  23.957  1.00  0.00     0.049 A 
ATOM      6  C   UNL     1     -16.370 -42.348  23.823  1.00  0.00     0.138 A 
ENDROOT
BRANCH   1   7
ATOM      7  N   UNL     1     -18.654 -42.184  24.824  1.00  0.00    -0.369 N 
BRANCH   7   8
ATOM      8  C   UNL     1     -19.448 -41.721  25.970  1.00  0.00     0.113 C 
ATOM      9  C   UNL     1     -20.386 -42.812  26.470  1.00  0.00     0.027 C 
ENDBRANCH   7   8
BRANCH   7  10
ATOM     10  C   UNL     1     -19.410 -42.350  23.572  1.00  0.00     0.113 C 
ATOM     11  C   UNL     1     -20.094 -41.050  23.166  1.00  0.00     0.027 C 
ENDBRANCH   7  10
ENDBRANCH   1   7
BRANCH   6  12
ATOM     12  O   UNL     1     -16.781 -41.945  22.576  1.00  0.00    -0.506 OA
ATOM     13  H   UNL     1     -16.335 -42.481  21.902  1.00  0.00     0.293 HD
ENDBRANCH   6  12
BRANCH   3  14
ATOM     14  C   UNL     1     -14.817 -43.631  27.557  1.00  0.00     0.056 C 
BRANCH  14  15
ATOM     15  C   UNL     1     -13.899 -44.592  27.737  1.00  0.00     0.140 C 
ATOM     16  O   UNL     1     -13.666 -45.535  26.715  1.00  0.00    -0.422 OA
ATOM     17  C   UNL     1     -13.018 -44.870  28.852  1.00  0.00     0.036 A 
ATOM     18  C   UNL     1     -12.660 -46.369  27.133  1.00  0.00     0.344 C 
ATOM     19  C   UNL     1     -12.828 -44.310  30.106  1.00  0.00     0.063 A 
ATOM     20  C   UNL     1     -12.258 -45.951  28.470  1.00  0.00     0.075 A 
ATOM     21  C   UNL     1     -11.840 -44.841  30.949  1.00  0.00     0.161 A 
ATOM     22  C   UNL     1     -11.282 -46.520  29.274  1.00  0.00     0.067 A 
ATOM     23  C   UNL     1     -11.067 -45.957  30.533  1.00  0.00     0.161 A 
ATOM     24  O   UNL     1     -12.183 -47.299  26.509  1.00  0.00    -0.246 OA
BRANCH  21  25
ATOM     25  O   UNL     1     -11.562 -44.351  32.203  1.00  0.00    -0.493 OA
ATOM     26  C   UNL     1     -11.811 -42.970  32.439  1.00  0.00     0.278 C 
ENDBRANCH  21  25
BRANCH  23  27
ATOM     27  O   UNL     1     -10.132 -46.409  31.432  1.00  0.00    -0.493 OA
ATOM     28  C   UNL     1      -8.763 -46.191  31.124  1.00  0.00     0.278 C 
ENDBRANCH  23  27
ENDBRANCH  14  15
ENDBRANCH   3  14
TORSDOF 8
ENDMDL
MODEL 7
REMARK VINA RESULT:    -8.731      1.978      3.378
REMARK INTER + INTRA:         -13.416
REMARK INTER:                 -13.065
REMARK INTRA:                  -0.350
REMARK UNBOUND:                -0.856
REMARK SMILES CCN(CC)c1cc(/C=C2/OC(=O)c3cc(OC)c(OC)cc32)ccc1O
REMARK SMILES IDX 6 1 7 2 8 3 24 4 25 5 26 6 3 7 2 8 1 9 4 10 5 11 27 12 9 14
REMARK SMILES IDX 10 15 11 16 23 17 12 18 22 19 14 20 19 21 15 22 16 23 13 24
REMARK SMILES IDX 20 25 21 26 17 27 18 28
REMARK H PARENT 27 13
ROOT
ATOM      1  C   UNL     1     -10.352 -43.831  29.946  1.00  0.00     0.080 A 
ATOM      2  C   UNL     1     -11.632 -44.245  29.513  1.00  0.00     0.038 A 
ATOM      3  C   UNL     1     -12.250 -43.763  28.344  1.00  0.00    -0.020 A 
ATOM      4  C   UNL     1     -11.575 -42.862  27.531  1.00  0.00     0.012 A 
ATOM      5  C   UNL     1     -10.303 -42.440  27.897  1.00  0.00     0.049 A 
ATOM      6  C   UNL     1      -9.707 -42.913  29.079  1.00  0.00     0.138 A 
ENDROOT
BRANCH   1   7
ATOM      7  N   UNL     1      -9.823 -44.310  31.148  1.00  0.00    -0.369 N 
BRANCH   7   8
ATOM      8  C   UNL     1      -9.696 -45.743  31.448  1.00  0.00     0.113 C 
ATOM      9  C   UNL     1      -8.871 -46.458  30.386  1.00  0.00     0.027 C 
ENDBRANCH   7   8
BRANCH   7  10
ATOM     10  C   UNL     1      -9.338 -43.409  32.206  1.00  0.00     0.113 C 
ATOM     11  C   UNL     1      -7.855 -43.629  32.478  1.00  0.00     0.027 C 
ENDBRANCH   7  10
ENDBRANCH   1   7
BRANCH   6  12
ATOM     12  O   UNL     1      -8.445 -42.442  29.349  1.00  0.00    -0.506 OA
ATOM     13  H   UNL     1      -8.418 -41.486  29.192  1.00  0.00     0.293 HD
ENDBRANCH   6  12
BRANCH   3  14
ATOM     14  C   UNL     1     -13.606 -44.184  27.992  1.00  0.00     0.056 C 
BRANCH  14  15
ATOM     15  C   UNL     1     -14.257 -43.893  26.855  1.00  0.00     0.140 C 
ATOM     16  O   UNL     1     -13.645 -44.157  25.614  1.00  0.00    -0.422 OA
ATOM     17  C   UNL     1     -15.573 -43.332  26.630  1.00  0.00     0.036 A 
ATOM     18  C   UNL     1     -14.532 -43.812  24.625  1.00  0.00     0.344 C 
ATOM     19  C   UNL     1     -16.586 -42.864  27.452  1.00  0.00     0.063 A 
ATOM     20  C   UNL     1     -15.735 -43.295  25.264  1.00  0.00     0.075 A 
ATOM     21  C   UNL     1     -17.773 -42.391  26.872  1.00  0.00     0.161 A 
ATOM     22  C   UNL     1     -16.882 -42.822  24.645  1.00  0.00     0.067 A 
ATOM     23  C   UNL     1     -17.919 -42.363  25.459  1.00  0.00     0.161 A 
ATOM     24  O   UNL     1     -14.355 -43.911  23.425  1.00  0.00    -0.246 OA
BRANCH  21  25
ATOM     25  O   UNL     1     -18.842 -41.920  27.596  1.00  0.00    -0.493 OA
ATOM     26  C   UNL     1     -19.909 -42.825  27.855  1.00  0.00     0.278 C 
ENDBRANCH  21  25
BRANCH  23  27
ATOM     27  O   UNL     1     -19.113 -41.875  24.989  1.00  0.00    -0.493 OA
ATOM     28  C   UNL     1     -19.281 -41.791  23.581  1.00  0.00     0.278 C 
ENDBRANCH  23  27
ENDBRANCH  14  15
ENDBRANCH   3  14
TORSDOF 8
ENDMDL
MODEL 8
REMARK VINA RESULT:    -8.431      2.933      8.794
REMARK INTER + INTRA:         -12.983
REMARK INTER:                 -12.308
REMARK INTRA:                  -0.675
REMARK UNBOUND:                -0.856
REMARK SMILES CCN(CC)c1cc(/C=C2/OC(=O)c3cc(OC)c(OC)cc32)ccc1O
REMARK SMILES IDX 6 1 7 2 8 3 24 4 25 5 26 6 3 7 2 8 1 9 4 10 5 11 27 12 9 14
REMARK SMILES IDX 10 15 11 16 23 17 12 18 22 19 14 20 19 21 15 22 16 23 13 24
REMARK SMILES IDX 20 25 21 26 17 27 18 28
REMARK H PARENT 27 13
ROOT
ATOM      1  C   UNL     1     -18.292 -42.462  25.979  1.00  0.00     0.080 A 
ATOM      2  C   UNL     1     -16.917 -42.771  25.879  1.00  0.00     0.038 A 
ATOM      3  C   UNL     1     -16.056 -42.853  26.990  1.00  0.00    -0.020 A 
ATOM      4  C   UNL     1     -16.564 -42.664  28.268  1.00  0.00     0.012 A 
ATOM      5  C   UNL     1     -17.916 -42.382  28.426  1.00  0.00     0.049 A 
ATOM      6  C   UNL     1     -18.759 -42.282  27.305  1.00  0.00     0.138 A 
ENDROOT
BRANCH   1   7
ATOM      7  N   UNL     1     -19.075 -42.343  24.827  1.00  0.00    -0.369 N 
BRANCH   7   8
ATOM      8  C   UNL     1     -20.477 -42.780  24.768  1.00  0.00     0.113 C 
ATOM      9  C   UNL     1     -20.594 -44.287  24.955  1.00  0.00     0.027 C 
ENDBRANCH   7   8
BRANCH   7  10
ATOM     10  C   UNL     1     -18.556 -41.757  23.582  1.00  0.00     0.113 C 
ATOM     11  C   UNL     1     -19.663 -41.070  22.793  1.00  0.00     0.027 C 
ENDBRANCH   7  10
ENDBRANCH   1   7
BRANCH   6  12
ATOM     12  O   UNL     1     -20.080 -42.007  27.566  1.00  0.00    -0.506 OA
ATOM     13  H   UNL     1     -20.252 -41.068  27.397  1.00  0.00     0.293 HD
ENDBRANCH   6  12
BRANCH   3  14
ATOM     14  C   UNL     1     -14.628 -43.109  26.807  1.00  0.00     0.056 C 
BRANCH  14  15
ATOM     15  C   UNL     1     -13.968 -44.219  27.171  1.00  0.00     0.140 C 
ATOM     16  O   UNL     1     -13.796 -45.264  26.240  1.00  0.00    -0.422 OA
ATOM     17  C   UNL     1     -13.335 -44.584  28.421  1.00  0.00     0.036 A 
ATOM     18  C   UNL     1     -13.058 -46.250  26.846  1.00  0.00     0.344 C 
ATOM     19  C   UNL     1     -13.213 -43.981  29.663  1.00  0.00     0.063 A 
ATOM     20  C   UNL     1     -12.774 -45.822  28.210  1.00  0.00     0.075 A 
ATOM     21  C   UNL     1     -12.491 -44.635  30.673  1.00  0.00     0.161 A 
ATOM     22  C   UNL     1     -12.065 -46.514  29.180  1.00  0.00     0.067 A 
ATOM     23  C   UNL     1     -11.919 -45.912  30.432  1.00  0.00     0.161 A 
ATOM     24  O   UNL     1     -12.704 -47.301  26.346  1.00  0.00    -0.246 OA
BRANCH  21  25
ATOM     25  O   UNL     1     -12.299 -44.118  31.932  1.00  0.00    -0.493 OA
ATOM     26  C   UNL     1     -11.785 -42.794  32.027  1.00  0.00     0.278 C 
ENDBRANCH  21  25
BRANCH  23  27
ATOM     27  O   UNL     1     -11.239 -46.474  31.484  1.00  0.00    -0.493 OA
ATOM     28  C   UNL     1      -9.820 -46.405  31.464  1.00  0.00     0.278 C 
ENDBRANCH  23  27
ENDBRANCH  14  15
ENDBRANCH   3  14
TORSDOF 8
ENDMDL
MODEL 9
REMARK VINA RESULT:    -8.421      2.600      4.912
REMARK INTER + INTRA:         -12.970
REMARK INTER:                 -12.819
REMARK INTRA:                  -0.151
REMARK UNBOUND:                -0.856
REMARK SMILES CCN(CC)c1cc(/C=C2/OC(=O)c3cc(OC)c(OC)cc32)ccc1O
REMARK SMILES IDX 6 1 7 2 8 3 24 4 25 5 26 6 3 7 2 8 1 9 4 10 5 11 27 12 9 14
REMARK SMILES IDX 10 15 11 16 23 17 12 18 22 19 14 20 19 21 15 22 16 23 13 24
REMARK SMILES IDX 20 25 21 26 17 27 18 28
REMARK H PARENT 27 13
ROOT
ATOM      1  C   UNL     1     -10.780 -43.364  32.344  1.00  0.00     0.080 A 
ATOM      2  C   UNL     1     -11.582 -44.163  31.497  1.00  0.00     0.038 A 
ATOM      3  C   UNL     1     -12.988 -44.180  31.548  1.00  0.00    -0.020 A 
ATOM      4  C   UNL     1     -13.654 -43.349  32.439  1.00  0.00     0.012 A 
ATOM      5  C   UNL     1     -12.915 -42.524  33.277  1.00  0.00     0.049 A 
ATOM      6  C   UNL     1     -11.510 -42.533  33.231  1.00  0.00     0.138 A 
ENDROOT
BRANCH   1   7
ATOM      7  N   UNL     1      -9.386 -43.439  32.275  1.00  0.00    -0.369 N 
BRANCH   7   8
ATOM      8  C   UNL     1      -8.507 -42.910  33.326  1.00  0.00     0.113 C 
ATOM      9  C   UNL     1      -7.067 -43.362  33.121  1.00  0.00     0.027 C 
ENDBRANCH   7   8
BRANCH   7  10
ATOM     10  C   UNL     1      -8.689 -44.070  31.142  1.00  0.00     0.113 C 
ATOM     11  C   UNL     1      -8.662 -43.146  29.931  1.00  0.00     0.027 C 
ENDBRANCH   7  10
ENDBRANCH   1   7
BRANCH   6  12
ATOM     12  O   UNL     1     -10.871 -41.676  34.094  1.00  0.00    -0.506 OA
ATOM     13  H   UNL     1     -10.571 -42.169  34.873  1.00  0.00     0.293 HD
ENDBRANCH   6  12
BRANCH   3  14
ATOM     14  C   UNL     1     -13.753 -45.084  30.689  1.00  0.00     0.056 C 
BRANCH  14  15
ATOM     15  C   UNL     1     -13.599 -45.240  29.365  1.00  0.00     0.140 C 
ATOM     16  O   UNL     1     -12.700 -46.208  28.877  1.00  0.00    -0.422 OA
ATOM     17  C   UNL     1     -14.232 -44.569  28.249  1.00  0.00     0.036 A 
ATOM     18  C   UNL     1     -12.766 -46.192  27.506  1.00  0.00     0.344 C 
ATOM     19  C   UNL     1     -15.152 -43.540  28.125  1.00  0.00     0.063 A 
ATOM     20  C   UNL     1     -13.724 -45.165  27.117  1.00  0.00     0.075 A 
ATOM     21  C   UNL     1     -15.569 -43.146  26.844  1.00  0.00     0.161 A 
ATOM     22  C   UNL     1     -14.094 -44.800  25.832  1.00  0.00     0.067 A 
ATOM     23  C   UNL     1     -15.032 -43.775  25.690  1.00  0.00     0.161 A 
ATOM     24  O   UNL     1     -12.138 -46.900  26.742  1.00  0.00    -0.246 OA
BRANCH  21  25
ATOM     25  O   UNL     1     -16.486 -42.148  26.613  1.00  0.00    -0.493 OA
ATOM     26  C   UNL     1     -17.862 -42.509  26.601  1.00  0.00     0.278 C 
ENDBRANCH  21  25
BRANCH  23  27
ATOM     27  O   UNL     1     -15.496 -43.314  24.483  1.00  0.00    -0.493 OA
ATOM     28  C   UNL     1     -14.786 -42.249  23.868  1.00  0.00     0.278 C 
ENDBRANCH  23  27
ENDBRANCH  14  15
ENDBRANCH   3  14
TORSDOF 8
ENDMDL
