MODEL 1
REMARK VINA RESULT:    -6.275      0.000      0.000
REMARK INTER + INTRA:          -6.275
REMARK INTER:                  -6.275
REMARK INTRA:                   0.000
REMARK UNBOUND:                 0.000
REMARK SMILES Cc1ccc(F)cc1
REMARK SMILES IDX 1 1 2 2 3 3 4 4 5 5 6 6 7 7 8 8
REMARK H PARENT
ROOT
ATOM      1  C   UNL     1     -12.749 -46.575  26.943  1.00  0.00     0.044 C 
ATOM      2  C   UNL     1     -12.043 -46.386  28.254  1.00  0.00    -0.051 A 
ATOM      3  C   UNL     1     -12.777 -46.156  29.426  1.00  0.00     0.006 A 
ATOM      4  C   UNL     1     -12.122 -46.011  30.651  1.00  0.00     0.039 A 
ATOM      5  C   UNL     1     -10.737 -46.107  30.701  1.00  0.00     0.123 A 
ATOM      6  F   UNL     1     -10.109 -45.969  31.877  1.00  0.00    -0.207 F 
ATOM      7  C   UNL     1      -9.994 -46.348  29.553  1.00  0.00     0.039 A 
ATOM      8  C   UNL     1     -10.647 -46.494  28.328  1.00  0.00     0.006 A 
ENDROOT
TORSDOF 0
ENDMDL
MODEL 2
REMARK VINA RESULT:    -6.195      0.316      1.737
REMARK INTER + INTRA:          -6.195
REMARK INTER:                  -6.195
REMARK INTRA:                   0.000
REMARK UNBOUND:                 0.000
REMARK SMILES Cc1ccc(F)cc1
REMARK SMILES IDX 1 1 2 2 3 3 4 4 5 5 6 6 7 7 8 8
REMARK H PARENT
ROOT
ATOM      1  C   UNL     1     -12.666 -46.505  27.165  1.00  0.00     0.044 C 
ATOM      2  C   UNL     1     -11.875 -46.402  28.436  1.00  0.00    -0.051 A 
ATOM      3  C   UNL     1     -10.479 -46.524  28.413  1.00  0.00     0.006 A 
ATOM      4  C   UNL     1      -9.740 -46.397  29.591  1.00  0.00     0.039 A 
ATOM      5  C   UNL     1     -10.398 -46.138  30.787  1.00  0.00     0.123 A 
ATOM      6  F   UNL     1      -9.689 -46.015  31.916  1.00  0.00    -0.207 F 
ATOM      7  C   UNL     1     -11.780 -46.000  30.828  1.00  0.00     0.039 A 
ATOM      8  C   UNL     1     -12.519 -46.127  29.651  1.00  0.00     0.006 A 
ENDROOT
TORSDOF 0
ENDMDL
MODEL 3
REMARK VINA RESULT:    -5.974      2.173      3.309
REMARK INTER + INTRA:          -5.974
REMARK INTER:                  -5.974
REMARK INTRA:                   0.000
REMARK UNBOUND:                 0.000
REMARK SMILES Cc1ccc(F)cc1
REMARK SMILES IDX 1 1 2 2 3 3 4 4 5 5 6 6 7 7 8 8
REMARK H PARENT
ROOT
ATOM      1  C   UNL     1     -10.548 -45.415  31.646  1.00  0.00     0.044 C 
ATOM      2  C   UNL     1     -11.084 -45.844  30.311  1.00  0.00    -0.051 A 
ATOM      3  C   UNL     1     -12.462 -45.809  30.056  1.00  0.00     0.006 A 
ATOM      4  C   UNL     1     -12.957 -46.179  28.804  1.00  0.00     0.039 A 
ATOM      5  C   UNL     1     -12.073 -46.572  27.807  1.00  0.00     0.123 A 
ATOM      6  F   UNL     1     -12.548 -46.926  26.606  1.00  0.00    -0.207 F 
ATOM      7  C   UNL     1     -10.703 -46.601  28.037  1.00  0.00     0.039 A 
ATOM      8  C   UNL     1     -10.207 -46.231  29.288  1.00  0.00     0.006 A 
ENDROOT
TORSDOF 0
ENDMDL
MODEL 4
REMARK VINA RESULT:    -5.625      2.278      3.054
REMARK INTER + INTRA:          -5.625
REMARK INTER:                  -5.625
REMARK INTRA:                   0.000
REMARK UNBOUND:                 0.000
REMARK SMILES Cc1ccc(F)cc1
REMARK SMILES IDX 1 1 2 2 3 3 4 4 5 5 6 6 7 7 8 8
REMARK H PARENT
ROOT
ATOM      1  C   UNL     1     -14.459 -43.504  26.740  1.00  0.00     0.044 C 
ATOM      2  C   UNL     1     -13.345 -44.409  27.181  1.00  0.00    -0.051 A 
ATOM      3  C   UNL     1     -12.293 -43.909  27.960  1.00  0.00     0.006 A 
ATOM      4  C   UNL     1     -11.273 -44.757  28.396  1.00  0.00     0.039 A 
ATOM      5  C   UNL     1     -11.315 -46.105  28.060  1.00  0.00     0.123 A 
ATOM      6  F   UNL     1     -10.337 -46.919  28.480  1.00  0.00    -0.207 F 
ATOM      7  C   UNL     1     -12.356 -46.622  27.301  1.00  0.00     0.039 A 
ATOM      8  C   UNL     1     -13.376 -45.774  26.865  1.00  0.00     0.006 A 
ENDROOT
TORSDOF 0
ENDMDL
MODEL 5
REMARK VINA RESULT:    -5.566      2.818      4.382
REMARK INTER + INTRA:          -5.566
REMARK INTER:                  -5.566
REMARK INTRA:                   0.000
REMARK UNBOUND:                 0.000
REMARK SMILES Cc1ccc(F)cc1
REMARK SMILES IDX 1 1 2 2 3 3 4 4 5 5 6 6 7 7 8 8
REMARK H PARENT
ROOT
ATOM      1  C   UNL     1      -7.340 -43.563  32.569  1.00  0.00     0.044 C 
ATOM      2  C   UNL     1      -8.544 -44.368  32.175  1.00  0.00    -0.051 A 
ATOM      3  C   UNL     1      -9.828 -43.814  32.266  1.00  0.00     0.006 A 
ATOM      4  C   UNL     1     -10.945 -44.551  31.870  1.00  0.00     0.039 A 
ATOM      5  C   UNL     1     -10.774 -45.838  31.373  1.00  0.00     0.123 A 
ATOM      6  F   UNL     1     -11.846 -46.545  30.992  1.00  0.00    -0.207 F 
ATOM      7  C   UNL     1      -9.508 -46.399  31.262  1.00  0.00     0.039 A 
ATOM      8  C   UNL     1      -8.391 -45.662  31.658  1.00  0.00     0.006 A 
ENDROOT
TORSDOF 0
ENDMDL
MODEL 6
REMARK VINA RESULT:    -5.541      2.908      3.947
REMARK INTER + INTRA:          -5.541
REMARK INTER:                  -5.541
REMARK INTRA:                   0.000
REMARK UNBOUND:                 0.000
REMARK SMILES Cc1ccc(F)cc1
REMARK SMILES IDX 1 1 2 2 3 3 4 4 5 5 6 6 7 7 8 8
REMARK H PARENT
ROOT
ATOM      1  C   UNL     1     -10.040 -46.208  29.208  1.00  0.00     0.044 C 
ATOM      2  C   UNL     1     -11.271 -45.799  28.452  1.00  0.00    -0.051 A 
ATOM      3  C   UNL     1     -11.768 -44.493  28.561  1.00  0.00     0.006 A 
ATOM      4  C   UNL     1     -12.895 -44.104  27.835  1.00  0.00     0.039 A 
ATOM      5  C   UNL     1     -13.515 -45.019  26.992  1.00  0.00     0.123 A 
ATOM      6  F   UNL     1     -14.595 -44.645  26.294  1.00  0.00    -0.207 F 
ATOM      7  C   UNL     1     -13.029 -46.314  26.860  1.00  0.00     0.039 A 
ATOM      8  C   UNL     1     -11.903 -46.703  27.586  1.00  0.00     0.006 A 
ENDROOT
TORSDOF 0
ENDMDL
MODEL 7
REMARK VINA RESULT:    -5.426      5.064      6.481
REMARK INTER + INTRA:          -5.426
REMARK INTER:                  -5.426
REMARK INTRA:                   0.000
REMARK UNBOUND:                 0.000
REMARK SMILES Cc1ccc(F)cc1
REMARK SMILES IDX 1 1 2 2 3 3 4 4 5 5 6 6 7 7 8 8
REMARK H PARENT
ROOT
ATOM      1  C   UNL     1     -16.622 -42.553  23.222  1.00  0.00     0.044 C 
ATOM      2  C   UNL     1     -16.043 -43.019  24.526  1.00  0.00    -0.051 A 
ATOM      3  C   UNL     1     -14.937 -43.880  24.542  1.00  0.00     0.006 A 
ATOM      4  C   UNL     1     -14.379 -44.289  25.755  1.00  0.00     0.039 A 
ATOM      5  C   UNL     1     -14.923 -43.828  26.948  1.00  0.00     0.123 A 
ATOM      6  F   UNL     1     -14.387 -44.220  28.112  1.00  0.00    -0.207 F 
ATOM      7  C   UNL     1     -16.011 -42.964  26.952  1.00  0.00     0.039 A 
ATOM      8  C   UNL     1     -16.569 -42.554  25.740  1.00  0.00     0.006 A 
ENDROOT
TORSDOF 0
ENDMDL
MODEL 8
REMARK VINA RESULT:    -5.415      6.451      7.698
REMARK INTER + INTRA:          -5.415
REMARK INTER:                  -5.415
REMARK INTRA:                   0.000
REMARK UNBOUND:                 0.000
REMARK SMILES Cc1ccc(F)cc1
REMARK SMILES IDX 1 1 2 2 3 3 4 4 5 5 6 6 7 7 8 8
REMARK H PARENT
ROOT
ATOM      1  C   UNL     1     -19.076 -42.037  27.303  1.00  0.00     0.044 C 
ATOM      2  C   UNL     1     -17.805 -42.417  26.599  1.00  0.00    -0.051 A 
ATOM      3  C   UNL     1     -17.776 -42.530  25.203  1.00  0.00     0.006 A 
ATOM      4  C   UNL     1     -16.587 -42.853  24.546  1.00  0.00     0.039 A 
ATOM      5  C   UNL     1     -15.428 -43.051  25.287  1.00  0.00     0.123 A 
ATOM      6  F   UNL     1     -14.287 -43.360  24.657  1.00  0.00    -0.207 F 
ATOM      7  C   UNL     1     -15.435 -42.930  26.671  1.00  0.00     0.039 A 
ATOM      8  C   UNL     1     -16.623 -42.607  27.328  1.00  0.00     0.006 A 
ENDROOT
TORSDOF 0
ENDMDL
MODEL 9
REMARK VINA RESULT:    -5.393      6.804      7.898
REMARK INTER + INTRA:          -5.393
REMARK INTER:                  -5.393
REMARK INTRA:                   0.000
REMARK UNBOUND:                 0.000
REMARK SMILES Cc1ccc(F)cc1
REMARK SMILES IDX 1 1 2 2 3 3 4 4 5 5 6 6 7 7 8 8
REMARK H PARENT
ROOT
ATOM      1  C   UNL     1     -14.693 -43.358  25.003  1.00  0.00     0.044 C 
ATOM      2  C   UNL     1     -15.950 -42.936  25.708  1.00  0.00    -0.051 A 
ATOM      3  C   UNL     1     -17.123 -42.694  24.980  1.00  0.00     0.006 A 
ATOM      4  C   UNL     1     -18.299 -42.332  25.638  1.00  0.00     0.039 A 
ATOM      5  C   UNL     1     -18.303 -42.225  27.024  1.00  0.00     0.123 A 
ATOM      6  F   UNL     1     -19.432 -41.879  27.655  1.00  0.00    -0.207 F 
ATOM      7  C   UNL     1     -17.154 -42.475  27.763  1.00  0.00     0.039 A 
ATOM      8  C   UNL     1     -15.977 -42.837  27.106  1.00  0.00     0.006 A 
ENDROOT
TORSDOF 0
ENDMDL
