MODEL 1
REMARK VINA RESULT:    -9.030      0.000      0.000
REMARK INTER + INTRA:         -12.204
REMARK INTER:                 -11.669
REMARK INTRA:                  -0.534
REMARK UNBOUND:                -0.534
REMARK SMILES CSc1nc(/C=C/c2ccccc2)nn1C(=O)N(C)C
REMARK SMILES IDX 3 1 4 2 5 3 14 4 15 5 2 6 1 7 16 8 18 9 17 10 19 11 20 12
REMARK SMILES IDX 6 13 7 14 8 15 9 16 13 17 10 18 12 19 11 20
REMARK H PARENT
ROOT
ATOM      1  C   UNL     1     -13.163 -44.723  30.538  1.00  0.00     0.196 A 
ATOM      2  N   UNL     1     -13.953 -44.515  29.510  1.00  0.00    -0.201 NA
ATOM      3  C   UNL     1     -13.242 -45.012  28.457  1.00  0.00     0.175 A 
ATOM      4  N   UNL     1     -12.057 -45.535  28.773  1.00  0.00    -0.141 NA
ATOM      5  N   UNL     1     -11.991 -45.346  30.133  1.00  0.00    -0.155 N 
ENDROOT
BRANCH   1   6
ATOM      6  S   UNL     1     -13.584 -44.352  32.179  1.00  0.00    -0.089 SA
ATOM      7  C   UNL     1     -12.649 -42.830  32.437  1.00  0.00     0.094 C 
ENDBRANCH   1   6
BRANCH   5   8
ATOM      8  C   UNL     1     -10.825 -45.653  30.881  1.00  0.00     0.346 C 
ATOM      9  N   UNL     1      -9.843 -44.656  30.959  1.00  0.00    -0.329 N 
ATOM     10  O   UNL     1     -10.748 -46.733  31.459  1.00  0.00    -0.246 OA
ATOM     11  C   UNL     1      -9.623 -43.607  29.969  1.00  0.00     0.148 C 
ATOM     12  C   UNL     1      -8.803 -44.814  31.959  1.00  0.00     0.148 C 
ENDBRANCH   5   8
BRANCH   3  13
ATOM     13  C   UNL     1     -13.781 -44.958  27.138  1.00  0.00     0.052 C 
BRANCH  13  14
ATOM     14  C   UNL     1     -13.869 -43.851  26.381  1.00  0.00     0.012 C 
BRANCH  14  15
ATOM     15  C   UNL     1     -15.073 -43.448  25.644  1.00  0.00    -0.026 A 
ATOM     16  C   UNL     1     -15.083 -43.567  24.248  1.00  0.00     0.008 A 
ATOM     17  C   UNL     1     -16.193 -42.896  26.282  1.00  0.00     0.008 A 
ATOM     18  C   UNL     1     -16.199 -43.170  23.507  1.00  0.00     0.001 A 
ATOM     19  C   UNL     1     -17.308 -42.499  25.541  1.00  0.00     0.001 A 
ATOM     20  C   UNL     1     -17.313 -42.639  24.155  1.00  0.00     0.000 A 
ENDBRANCH  14  15
ENDBRANCH  13  14
ENDBRANCH   3  13
TORSDOF 5
ENDMDL
MODEL 2
REMARK VINA RESULT:    -8.975      1.974      2.720
REMARK INTER + INTRA:         -12.133
REMARK INTER:                 -11.532
REMARK INTRA:                  -0.601
REMARK UNBOUND:                -0.534
REMARK SMILES CSc1nc(/C=C/c2ccccc2)nn1C(=O)N(C)C
REMARK SMILES IDX 3 1 4 2 5 3 14 4 15 5 2 6 1 7 16 8 18 9 17 10 19 11 20 12
REMARK SMILES IDX 6 13 7 14 8 15 9 16 13 17 10 18 12 19 11 20
REMARK H PARENT
ROOT
ATOM      1  C   UNL     1     -11.746 -43.433  28.388  1.00  0.00     0.196 A 
ATOM      2  N   UNL     1     -12.448 -43.153  27.314  1.00  0.00    -0.201 NA
ATOM      3  C   UNL     1     -13.387 -44.142  27.281  1.00  0.00     0.175 A 
ATOM      4  N   UNL     1     -13.320 -45.016  28.286  1.00  0.00    -0.141 NA
ATOM      5  N   UNL     1     -12.245 -44.566  29.014  1.00  0.00    -0.155 N 
ENDROOT
BRANCH   1   6
ATOM      6  S   UNL     1     -10.440 -42.456  28.978  1.00  0.00    -0.089 SA
ATOM      7  C   UNL     1      -9.174 -42.787  27.734  1.00  0.00     0.094 C 
ENDBRANCH   1   6
BRANCH   5   8
ATOM      8  C   UNL     1     -11.735 -45.283  30.127  1.00  0.00     0.346 C 
ATOM      9  N   UNL     1     -10.578 -46.045  29.911  1.00  0.00    -0.329 N 
ATOM     10  O   UNL     1     -12.283 -45.169  31.219  1.00  0.00    -0.246 OA
ATOM     11  C   UNL     1     -10.166 -46.612  28.633  1.00  0.00     0.148 C 
ATOM     12  C   UNL     1      -9.862 -46.524  31.080  1.00  0.00     0.148 C 
ENDBRANCH   5   8
BRANCH   3  13
ATOM     13  C   UNL     1     -14.350 -44.183  26.231  1.00  0.00     0.052 C 
BRANCH  13  14
ATOM     14  C   UNL     1     -15.014 -43.119  25.747  1.00  0.00     0.012 C 
BRANCH  14  15
ATOM     15  C   UNL     1     -16.396 -42.775  26.107  1.00  0.00    -0.026 A 
ATOM     16  C   UNL     1     -17.332 -42.579  25.084  1.00  0.00     0.008 A 
ATOM     17  C   UNL     1     -16.797 -42.580  27.435  1.00  0.00     0.008 A 
ATOM     18  C   UNL     1     -18.650 -42.224  25.382  1.00  0.00     0.001 A 
ATOM     19  C   UNL     1     -18.115 -42.225  27.734  1.00  0.00     0.001 A 
ATOM     20  C   UNL     1     -19.041 -42.050  26.708  1.00  0.00     0.000 A 
ENDBRANCH  14  15
ENDBRANCH  13  14
ENDBRANCH   3  13
TORSDOF 5
ENDMDL
MODEL 3
REMARK VINA RESULT:    -8.885      1.634      2.264
REMARK INTER + INTRA:         -12.016
REMARK INTER:                 -11.384
REMARK INTRA:                  -0.632
REMARK UNBOUND:                -0.534
REMARK SMILES CSc1nc(/C=C/c2ccccc2)nn1C(=O)N(C)C
REMARK SMILES IDX 3 1 4 2 5 3 14 4 15 5 2 6 1 7 16 8 18 9 17 10 19 11 20 12
REMARK SMILES IDX 6 13 7 14 8 15 9 16 13 17 10 18 12 19 11 20
REMARK H PARENT
ROOT
ATOM      1  C   UNL     1     -13.201 -44.958  29.787  1.00  0.00     0.196 A 
ATOM      2  N   UNL     1     -14.094 -45.085  28.832  1.00  0.00    -0.201 NA
ATOM      3  C   UNL     1     -13.561 -44.367  27.801  1.00  0.00     0.175 A 
ATOM      4  N   UNL     1     -12.376 -43.812  28.054  1.00  0.00    -0.141 NA
ATOM      5  N   UNL     1     -12.132 -44.186  29.353  1.00  0.00    -0.155 N 
ENDROOT
BRANCH   1   6
ATOM      6  S   UNL     1     -13.315 -45.733  31.334  1.00  0.00    -0.089 SA
ATOM      7  C   UNL     1     -13.900 -44.367  32.360  1.00  0.00     0.094 C 
ENDBRANCH   1   6
BRANCH   5   8
ATOM      8  C   UNL     1     -11.012 -43.705  30.079  1.00  0.00     0.346 C 
ATOM      9  N   UNL     1      -9.845 -44.480  30.025  1.00  0.00    -0.329 N 
ATOM     10  O   UNL     1     -11.090 -42.630  30.666  1.00  0.00    -0.246 OA
ATOM     11  C   UNL     1      -9.796 -45.919  29.792  1.00  0.00     0.148 C 
ATOM     12  C   UNL     1      -8.610 -43.868  30.483  1.00  0.00     0.148 C 
ENDBRANCH   5   8
BRANCH   3  13
ATOM     13  C   UNL     1     -14.261 -44.262  26.564  1.00  0.00     0.052 C 
BRANCH  13  14
ATOM     14  C   UNL     1     -14.833 -43.142  26.089  1.00  0.00     0.012 C 
BRANCH  14  15
ATOM     15  C   UNL     1     -16.236 -42.771  26.313  1.00  0.00    -0.026 A 
ATOM     16  C   UNL     1     -16.688 -42.596  27.627  1.00  0.00     0.008 A 
ATOM     17  C   UNL     1     -17.154 -42.642  25.261  1.00  0.00     0.008 A 
ATOM     18  C   UNL     1     -18.022 -42.270  27.884  1.00  0.00     0.001 A 
ATOM     19  C   UNL     1     -18.487 -42.316  25.518  1.00  0.00     0.001 A 
ATOM     20  C   UNL     1     -18.920 -42.127  26.828  1.00  0.00     0.000 A 
ENDBRANCH  14  15
ENDBRANCH  13  14
ENDBRANCH   3  13
TORSDOF 5
ENDMDL
MODEL 4
REMARK VINA RESULT:    -7.917      5.012      8.407
REMARK INTER + INTRA:         -10.766
REMARK INTER:                 -10.312
REMARK INTRA:                  -0.453
REMARK UNBOUND:                -0.534
REMARK SMILES CSc1nc(/C=C/c2ccccc2)nn1C(=O)N(C)C
REMARK SMILES IDX 3 1 4 2 5 3 14 4 15 5 2 6 1 7 16 8 18 9 17 10 19 11 20 12
REMARK SMILES IDX 6 13 7 14 8 15 9 16 13 17 10 18 12 19 11 20
REMARK H PARENT
ROOT
ATOM      1  C   UNL     1     -17.680 -42.182  24.573  1.00  0.00     0.196 A 
ATOM      2  N   UNL     1     -16.392 -42.435  24.599  1.00  0.00    -0.201 NA
ATOM      3  C   UNL     1     -16.163 -42.786  25.897  1.00  0.00     0.175 A 
ATOM      4  N   UNL     1     -17.241 -42.782  26.681  1.00  0.00    -0.141 NA
ATOM      5  N   UNL     1     -18.240 -42.382  25.827  1.00  0.00    -0.155 N 
ENDROOT
BRANCH   1   6
ATOM      6  S   UNL     1     -18.558 -41.751  23.141  1.00  0.00    -0.089 SA
ATOM      7  C   UNL     1     -17.260 -40.962  22.166  1.00  0.00     0.094 C 
ENDBRANCH   1   6
BRANCH   5   8
ATOM      8  C   UNL     1     -19.560 -42.123  26.280  1.00  0.00     0.346 C 
ATOM      9  N   UNL     1     -20.479 -43.177  26.182  1.00  0.00    -0.329 N 
ATOM     10  O   UNL     1     -19.824 -41.031  26.775  1.00  0.00    -0.246 OA
ATOM     11  C   UNL     1     -20.413 -44.269  25.217  1.00  0.00     0.148 C 
ATOM     12  C   UNL     1     -21.726 -43.051  26.915  1.00  0.00     0.148 C 
ENDBRANCH   5   8
BRANCH   3  13
ATOM     13  C   UNL     1     -14.848 -43.132  26.325  1.00  0.00     0.052 C 
BRANCH  13  14
ATOM     14  C   UNL     1     -14.337 -44.375  26.334  1.00  0.00     0.012 C 
BRANCH  14  15
ATOM     15  C   UNL     1     -13.170 -44.784  27.128  1.00  0.00    -0.026 A 
ATOM     16  C   UNL     1     -12.341 -43.793  27.670  1.00  0.00     0.008 A 
ATOM     17  C   UNL     1     -12.826 -46.129  27.315  1.00  0.00     0.008 A 
ATOM     18  C   UNL     1     -11.207 -44.139  28.408  1.00  0.00     0.001 A 
ATOM     19  C   UNL     1     -11.692 -46.475  28.054  1.00  0.00     0.001 A 
ATOM     20  C   UNL     1     -10.885 -45.481  28.603  1.00  0.00     0.000 A 
ENDBRANCH  14  15
ENDBRANCH  13  14
ENDBRANCH   3  13
TORSDOF 5
ENDMDL
MODEL 5
REMARK VINA RESULT:    -7.412      7.944     11.480
REMARK INTER + INTRA:         -10.114
REMARK INTER:                  -9.469
REMARK INTRA:                  -0.645
REMARK UNBOUND:                -0.534
REMARK SMILES CSc1nc(/C=C/c2ccccc2)nn1C(=O)N(C)C
REMARK SMILES IDX 3 1 4 2 5 3 14 4 15 5 2 6 1 7 16 8 18 9 17 10 19 11 20 12
REMARK SMILES IDX 6 13 7 14 8 15 9 16 13 17 10 18 12 19 11 20
REMARK H PARENT
ROOT
ATOM      1  C   UNL     1     -20.596 -42.070  21.360  1.00  0.00     0.196 A 
ATOM      2  N   UNL     1     -20.331 -42.531  22.560  1.00  0.00    -0.201 NA
ATOM      3  C   UNL     1     -19.853 -41.438  23.222  1.00  0.00     0.175 A 
ATOM      4  N   UNL     1     -19.820 -40.314  22.505  1.00  0.00    -0.141 NA
ATOM      5  N   UNL     1     -20.298 -40.717  21.282  1.00  0.00    -0.155 N 
ENDROOT
BRANCH   1   6
ATOM      6  S   UNL     1     -21.309 -43.014  20.091  1.00  0.00    -0.089 SA
ATOM      7  C   UNL     1     -22.933 -43.367  20.796  1.00  0.00     0.094 C 
ENDBRANCH   1   6
BRANCH   5   8
ATOM      8  C   UNL     1     -20.322 -39.849  20.159  1.00  0.00     0.346 C 
ATOM      9  N   UNL     1     -21.450 -39.028  20.020  1.00  0.00    -0.329 N 
ATOM     10  O   UNL     1     -19.356 -39.815  19.403  1.00  0.00    -0.246 OA
ATOM     11  C   UNL     1     -22.781 -39.325  20.537  1.00  0.00     0.148 C 
ATOM     12  C   UNL     1     -21.365 -37.924  19.082  1.00  0.00     0.148 C 
ENDBRANCH   5   8
BRANCH   3  13
ATOM     13  C   UNL     1     -19.442 -41.546  24.583  1.00  0.00     0.052 C 
BRANCH  13  14
ATOM     14  C   UNL     1     -18.779 -42.589  25.112  1.00  0.00     0.012 C 
BRANCH  14  15
ATOM     15  C   UNL     1     -17.317 -42.664  25.232  1.00  0.00    -0.026 A 
ATOM     16  C   UNL     1     -16.741 -42.643  26.508  1.00  0.00     0.008 A 
ATOM     17  C   UNL     1     -16.475 -42.701  24.112  1.00  0.00     0.008 A 
ATOM     18  C   UNL     1     -15.353 -42.686  26.664  1.00  0.00     0.001 A 
ATOM     19  C   UNL     1     -15.087 -42.744  24.268  1.00  0.00     0.001 A 
ATOM     20  C   UNL     1     -14.527 -42.740  25.543  1.00  0.00     0.000 A 
ENDBRANCH  14  15
ENDBRANCH  13  14
ENDBRANCH   3  13
TORSDOF 5
ENDMDL
MODEL 6
REMARK VINA RESULT:    -7.247      6.722     10.164
REMARK INTER + INTRA:          -9.899
REMARK INTER:                  -9.289
REMARK INTRA:                  -0.610
REMARK UNBOUND:                -0.534
REMARK SMILES CSc1nc(/C=C/c2ccccc2)nn1C(=O)N(C)C
REMARK SMILES IDX 3 1 4 2 5 3 14 4 15 5 2 6 1 7 16 8 18 9 17 10 19 11 20 12
REMARK SMILES IDX 6 13 7 14 8 15 9 16 13 17 10 18 12 19 11 20
REMARK H PARENT
ROOT
ATOM      1  C   UNL     1     -19.721 -41.551  23.633  1.00  0.00     0.196 A 
ATOM      2  N   UNL     1     -18.633 -42.224  23.929  1.00  0.00    -0.201 NA
ATOM      3  C   UNL     1     -17.734 -41.802  22.994  1.00  0.00     0.175 A 
ATOM      4  N   UNL     1     -18.196 -40.889  22.139  1.00  0.00    -0.141 NA
ATOM      5  N   UNL     1     -19.498 -40.722  22.543  1.00  0.00    -0.155 N 
ENDROOT
BRANCH   1   6
ATOM      6  S   UNL     1     -21.193 -41.632  24.547  1.00  0.00    -0.089 SA
ATOM      7  C   UNL     1     -20.583 -41.285  26.211  1.00  0.00     0.094 C 
ENDBRANCH   1   6
BRANCH   5   8
ATOM      8  C   UNL     1     -20.413 -39.911  21.822  1.00  0.00     0.346 C 
ATOM      9  N   UNL     1     -21.276 -40.568  20.935  1.00  0.00    -0.329 N 
ATOM     10  O   UNL     1     -20.447 -38.703  22.038  1.00  0.00    -0.246 OA
ATOM     11  C   UNL     1     -21.003 -41.840  20.275  1.00  0.00     0.148 C 
ATOM     12  C   UNL     1     -22.416 -39.823  20.431  1.00  0.00     0.148 C 
ENDBRANCH   5   8
BRANCH   3  13
ATOM     13  C   UNL     1     -16.408 -42.326  22.985  1.00  0.00     0.052 C 
BRANCH  13  14
ATOM     14  C   UNL     1     -15.453 -42.034  23.884  1.00  0.00     0.012 C 
BRANCH  14  15
ATOM     15  C   UNL     1     -15.159 -42.847  25.071  1.00  0.00    -0.026 A 
ATOM     16  C   UNL     1     -15.706 -42.468  26.304  1.00  0.00     0.008 A 
ATOM     17  C   UNL     1     -14.306 -43.959  25.026  1.00  0.00     0.008 A 
ATOM     18  C   UNL     1     -15.430 -43.199  27.461  1.00  0.00     0.001 A 
ATOM     19  C   UNL     1     -14.030 -44.690  26.183  1.00  0.00     0.001 A 
ATOM     20  C   UNL     1     -14.594 -44.312  27.400  1.00  0.00     0.000 A 
ENDBRANCH  14  15
ENDBRANCH  13  14
ENDBRANCH   3  13
TORSDOF 5
ENDMDL
MODEL 7
REMARK VINA RESULT:    -7.081      6.787      9.644
REMARK INTER + INTRA:          -9.685
REMARK INTER:                  -9.097
REMARK INTRA:                  -0.588
REMARK UNBOUND:                -0.534
REMARK SMILES CSc1nc(/C=C/c2ccccc2)nn1C(=O)N(C)C
REMARK SMILES IDX 3 1 4 2 5 3 14 4 15 5 2 6 1 7 16 8 18 9 17 10 19 11 20 12
REMARK SMILES IDX 6 13 7 14 8 15 9 16 13 17 10 18 12 19 11 20
REMARK H PARENT
ROOT
ATOM      1  C   UNL     1     -22.487 -41.907  26.858  1.00  0.00     0.196 A 
ATOM      2  N   UNL     1     -21.347 -41.365  26.496  1.00  0.00    -0.201 NA
ATOM      3  C   UNL     1     -20.416 -42.266  26.924  1.00  0.00     0.175 A 
ATOM      4  N   UNL     1     -20.914 -43.351  27.520  1.00  0.00    -0.141 NA
ATOM      5  N   UNL     1     -22.268 -43.124  27.488  1.00  0.00    -0.155 N 
ENDROOT
BRANCH   1   6
ATOM      6  S   UNL     1     -24.043 -41.228  26.504  1.00  0.00    -0.089 SA
ATOM      7  C   UNL     1     -24.352 -40.276  28.006  1.00  0.00     0.094 C 
ENDBRANCH   1   6
BRANCH   5   8
ATOM      8  C   UNL     1     -23.192 -43.988  28.133  1.00  0.00     0.346 C 
ATOM      9  N   UNL     1     -23.594 -45.126  27.421  1.00  0.00    -0.329 N 
ATOM     10  O   UNL     1     -23.552 -43.737  29.279  1.00  0.00    -0.246 OA
ATOM     11  C   UNL     1     -23.620 -45.249  25.968  1.00  0.00     0.148 C 
ATOM     12  C   UNL     1     -24.276 -46.174  28.159  1.00  0.00     0.148 C 
ENDBRANCH   5   8
BRANCH   3  13
ATOM     13  C   UNL     1     -19.028 -42.019  26.714  1.00  0.00     0.052 C 
BRANCH  13  14
ATOM     14  C   UNL     1     -18.364 -42.249  25.569  1.00  0.00     0.012 C 
BRANCH  14  15
ATOM     15  C   UNL     1     -16.957 -42.665  25.498  1.00  0.00    -0.026 A 
ATOM     16  C   UNL     1     -16.420 -43.026  24.256  1.00  0.00     0.008 A 
ATOM     17  C   UNL     1     -16.148 -42.766  26.639  1.00  0.00     0.008 A 
ATOM     18  C   UNL     1     -15.094 -43.453  24.151  1.00  0.00     0.001 A 
ATOM     19  C   UNL     1     -14.822 -43.193  26.533  1.00  0.00     0.001 A 
ATOM     20  C   UNL     1     -14.295 -43.533  25.289  1.00  0.00     0.000 A 
ENDBRANCH  14  15
ENDBRANCH  13  14
ENDBRANCH   3  13
TORSDOF 5
ENDMDL
MODEL 8
REMARK VINA RESULT:    -6.996      8.144     11.601
REMARK INTER + INTRA:          -9.575
REMARK INTER:                  -8.977
REMARK INTRA:                  -0.599
REMARK UNBOUND:                -0.534
REMARK SMILES CSc1nc(/C=C/c2ccccc2)nn1C(=O)N(C)C
REMARK SMILES IDX 3 1 4 2 5 3 14 4 15 5 2 6 1 7 16 8 18 9 17 10 19 11 20 12
REMARK SMILES IDX 6 13 7 14 8 15 9 16 13 17 10 18 12 19 11 20
REMARK H PARENT
ROOT
ATOM      1  C   UNL     1     -21.160 -41.689  21.814  1.00  0.00     0.196 A 
ATOM      2  N   UNL     1     -20.047 -42.327  22.095  1.00  0.00    -0.201 NA
ATOM      3  C   UNL     1     -19.183 -41.327  22.433  1.00  0.00     0.175 A 
ATOM      4  N   UNL     1     -19.701 -40.098  22.396  1.00  0.00    -0.141 NA
ATOM      5  N   UNL     1     -20.992 -40.322  21.985  1.00  0.00    -0.155 N 
ENDROOT
BRANCH   1   6
ATOM      6  S   UNL     1     -22.647 -42.470  21.383  1.00  0.00    -0.089 SA
ATOM      7  C   UNL     1     -22.624 -42.286  19.588  1.00  0.00     0.094 C 
ENDBRANCH   1   6
BRANCH   5   8
ATOM      8  C   UNL     1     -21.885 -39.258  21.691  1.00  0.00     0.346 C 
ATOM      9  N   UNL     1     -21.892 -38.786  20.372  1.00  0.00    -0.329 N 
ATOM     10  O   UNL     1     -22.634 -38.840  22.570  1.00  0.00    -0.246 OA
ATOM     11  C   UNL     1     -20.771 -38.860  19.441  1.00  0.00     0.148 C 
ATOM     12  C   UNL     1     -22.996 -37.934  19.969  1.00  0.00     0.148 C 
ENDBRANCH   5   8
BRANCH   3  13
ATOM     13  C   UNL     1     -17.840 -41.632  22.802  1.00  0.00     0.052 C 
BRANCH  13  14
ATOM     14  C   UNL     1     -17.471 -42.618  23.638  1.00  0.00     0.012 C 
BRANCH  14  15
ATOM     15  C   UNL     1     -17.501 -42.513  25.103  1.00  0.00    -0.026 A 
ATOM     16  C   UNL     1     -16.333 -42.791  25.824  1.00  0.00     0.008 A 
ATOM     17  C   UNL     1     -18.671 -42.200  25.807  1.00  0.00     0.008 A 
ATOM     18  C   UNL     1     -16.326 -42.729  27.220  1.00  0.00     0.001 A 
ATOM     19  C   UNL     1     -18.664 -42.138  27.203  1.00  0.00     0.001 A 
ATOM     20  C   UNL     1     -17.492 -42.399  27.908  1.00  0.00     0.000 A 
ENDBRANCH  14  15
ENDBRANCH  13  14
ENDBRANCH   3  13
TORSDOF 5
ENDMDL
MODEL 9
REMARK VINA RESULT:    -6.971      6.687      9.874
REMARK INTER + INTRA:          -9.543
REMARK INTER:                  -8.844
REMARK INTRA:                  -0.698
REMARK UNBOUND:                -0.534
REMARK SMILES CSc1nc(/C=C/c2ccccc2)nn1C(=O)N(C)C
REMARK SMILES IDX 3 1 4 2 5 3 14 4 15 5 2 6 1 7 16 8 18 9 17 10 19 11 20 12
REMARK SMILES IDX 6 13 7 14 8 15 9 16 13 17 10 18 12 19 11 20
REMARK H PARENT
ROOT
ATOM      1  C   UNL     1     -20.143 -40.861  23.085  1.00  0.00     0.196 A 
ATOM      2  N   UNL     1     -18.997 -41.149  22.512  1.00  0.00    -0.201 NA
ATOM      3  C   UNL     1     -18.440 -42.064  23.358  1.00  0.00     0.175 A 
ATOM      4  N   UNL     1     -19.184 -42.376  24.419  1.00  0.00    -0.141 NA
ATOM      5  N   UNL     1     -20.299 -41.590  24.255  1.00  0.00    -0.155 N 
ENDROOT
BRANCH   1   6
ATOM      6  S   UNL     1     -21.326 -39.788  22.408  1.00  0.00    -0.089 SA
ATOM      7  C   UNL     1     -21.770 -40.675  20.900  1.00  0.00     0.094 C 
ENDBRANCH   1   6
BRANCH   5   8
ATOM      8  C   UNL     1     -21.319 -41.515  25.238  1.00  0.00     0.346 C 
ATOM      9  N   UNL     1     -22.313 -42.502  25.193  1.00  0.00    -0.329 N 
ATOM     10  O   UNL     1     -21.263 -40.642  26.099  1.00  0.00    -0.246 OA
ATOM     11  C   UNL     1     -22.727 -43.231  24.000  1.00  0.00     0.148 C 
ATOM     12  C   UNL     1     -23.176 -42.640  26.353  1.00  0.00     0.148 C 
ENDBRANCH   5   8
BRANCH   3  13
ATOM     13  C   UNL     1     -17.159 -42.619  23.071  1.00  0.00     0.052 C 
BRANCH  13  14
ATOM     14  C   UNL     1     -16.019 -42.311  23.713  1.00  0.00     0.012 C 
BRANCH  14  15
ATOM     15  C   UNL     1     -15.528 -43.010  24.907  1.00  0.00    -0.026 A 
ATOM     16  C   UNL     1     -15.967 -42.585  26.168  1.00  0.00     0.008 A 
ATOM     17  C   UNL     1     -14.594 -44.052  24.834  1.00  0.00     0.008 A 
ATOM     18  C   UNL     1     -15.503 -43.206  27.330  1.00  0.00     0.001 A 
ATOM     19  C   UNL     1     -14.131 -44.673  25.997  1.00  0.00     0.001 A 
ATOM     20  C   UNL     1     -14.588 -44.253  27.244  1.00  0.00     0.000 A 
ENDBRANCH  14  15
ENDBRANCH  13  14
ENDBRANCH   3  13
TORSDOF 5
ENDMDL
