MODEL 1
REMARK VINA RESULT:   -10.078      0.000      0.000
REMARK INTER + INTRA:         -16.877
REMARK INTER:                 -15.969
REMARK INTRA:                  -0.908
REMARK UNBOUND:                -0.908
REMARK SMILES O=C(C[n+]1ccccc1)NN=Cc1ccc(/C=N/NC(=O)C[n+]2ccccc2)cc1
REMARK SMILES IDX 13 1 14 2 15 3 16 4 29 5 30 6 12 7 11 8 10 9 2 10 1 12 3 13
REMARK SMILES IDX 4 14 5 15 9 16 6 17 8 18 7 19 17 20 18 21 19 22 20 23 21 25
REMARK SMILES IDX 22 26 23 27 24 28 28 29 25 30 27 31 26 32
REMARK H PARENT 10 11 19 24
ROOT
ATOM      1  C   UNL     1     -10.098 -46.298  30.203  1.00  0.00    -0.005 A 
ATOM      2  C   UNL     1     -10.243 -46.023  28.841  1.00  0.00     0.010 A 
ATOM      3  C   UNL     1     -11.480 -45.600  28.348  1.00  0.00     0.010 A 
ATOM      4  C   UNL     1     -12.574 -45.474  29.211  1.00  0.00    -0.005 A 
ATOM      5  C   UNL     1     -12.426 -45.754  30.576  1.00  0.00     0.010 A 
ATOM      6  C   UNL     1     -11.186 -46.171  31.073  1.00  0.00     0.010 A 
ENDROOT
BRANCH   1   7
ATOM      7  C   UNL     1      -8.812 -46.848  30.664  1.00  0.00     0.141 C 
BRANCH   7   8
ATOM      8  N   UNL     1      -7.665 -46.254  30.805  1.00  0.00    -0.181 NA
BRANCH   8   9
ATOM      9  N   UNL     1      -7.421 -45.442  31.868  1.00  0.00    -0.242 N 
ATOM     10  C   UNL     1      -7.400 -44.071  31.630  1.00  0.00     0.305 C 
ATOM     11  H   UNL     1      -7.492 -45.845  32.797  1.00  0.00     0.193 HD
ATOM     12  O   UNL     1      -7.411 -43.546  30.519  1.00  0.00    -0.266 OA
BRANCH  10  13
ATOM     13  C   UNL     1      -7.346 -43.226  32.881  1.00  0.00     0.458 C 
BRANCH  13  14
ATOM     14  N   UNL     1      -8.715 -42.842  33.300  1.00  0.00    -0.196 N 
ATOM     15  C   UNL     1      -9.778 -43.221  32.548  1.00  0.00     0.308 A 
ATOM     16  C   UNL     1      -8.900 -42.161  34.456  1.00  0.00     0.308 A 
ATOM     17  C   UNL     1     -11.071 -42.883  32.928  1.00  0.00     0.071 A 
ATOM     18  C   UNL     1     -10.177 -41.802  34.872  1.00  0.00     0.071 A 
ATOM     19  C   UNL     1     -11.272 -42.162  34.098  1.00  0.00     0.012 A 
ENDBRANCH  13  14
ENDBRANCH  10  13
ENDBRANCH   8   9
ENDBRANCH   7   8
ENDBRANCH   1   7
BRANCH   4  20
ATOM     20  C   UNL     1     -13.909 -45.097  28.692  1.00  0.00     0.141 C 
BRANCH  20  21
ATOM     21  N   UNL     1     -14.070 -44.033  27.971  1.00  0.00    -0.181 NA
BRANCH  21  22
ATOM     22  N   UNL     1     -14.579 -44.126  26.704  1.00  0.00    -0.242 N 
ATOM     23  C   UNL     1     -14.826 -43.061  25.842  1.00  0.00     0.305 C 
ATOM     24  H   UNL     1     -14.458 -45.065  26.324  1.00  0.00     0.193 HD
ATOM     25  O   UNL     1     -14.701 -41.869  26.113  1.00  0.00    -0.266 OA
BRANCH  23  26
ATOM     26  C   UNL     1     -15.276 -43.512  24.465  1.00  0.00     0.458 C 
BRANCH  26  27
ATOM     27  N   UNL     1     -16.467 -42.756  24.021  1.00  0.00    -0.196 N 
ATOM     28  C   UNL     1     -16.396 -41.968  22.920  1.00  0.00     0.308 A 
ATOM     29  C   UNL     1     -17.628 -42.868  24.711  1.00  0.00     0.308 A 
ATOM     30  C   UNL     1     -17.504 -41.247  22.493  1.00  0.00     0.071 A 
ATOM     31  C   UNL     1     -18.759 -42.164  24.317  1.00  0.00     0.071 A 
ATOM     32  C   UNL     1     -18.696 -41.344  23.199  1.00  0.00     0.012 A 
ENDBRANCH  26  27
ENDBRANCH  23  26
ENDBRANCH  21  22
ENDBRANCH  20  21
ENDBRANCH   4  20
TORSDOF 10
ENDMDL
MODEL 2
REMARK VINA RESULT:    -9.937      2.352      5.266
REMARK INTER + INTRA:         -16.654
REMARK INTER:                 -15.689
REMARK INTRA:                  -0.966
REMARK UNBOUND:                -0.908
REMARK SMILES O=C(C[n+]1ccccc1)NN=Cc1ccc(/C=N/NC(=O)C[n+]2ccccc2)cc1
REMARK SMILES IDX 13 1 14 2 15 3 16 4 29 5 30 6 12 7 11 8 10 9 2 10 1 12 3 13
REMARK SMILES IDX 4 14 5 15 9 16 6 17 8 18 7 19 17 20 18 21 19 22 20 23 21 25
REMARK SMILES IDX 22 26 23 27 24 28 28 29 25 30 27 31 26 32
REMARK H PARENT 10 11 19 24
ROOT
ATOM      1  C   UNL     1     -14.525 -44.166  26.738  1.00  0.00    -0.005 A 
ATOM      2  C   UNL     1     -15.357 -43.052  26.879  1.00  0.00     0.010 A 
ATOM      3  C   UNL     1     -15.871 -42.423  25.743  1.00  0.00     0.010 A 
ATOM      4  C   UNL     1     -15.539 -42.895  24.468  1.00  0.00    -0.005 A 
ATOM      5  C   UNL     1     -14.702 -44.010  24.329  1.00  0.00     0.010 A 
ATOM      6  C   UNL     1     -14.190 -44.645  25.467  1.00  0.00     0.010 A 
ENDROOT
BRANCH   1   7
ATOM      7  C   UNL     1     -13.913 -44.730  27.952  1.00  0.00     0.141 C 
BRANCH   7   8
ATOM      8  N   UNL     1     -12.871 -44.324  28.615  1.00  0.00    -0.181 NA
BRANCH   8   9
ATOM      9  N   UNL     1     -12.539 -44.882  29.810  1.00  0.00    -0.242 N 
ATOM     10  C   UNL     1     -11.469 -45.771  29.821  1.00  0.00     0.305 C 
ATOM     11  H   UNL     1     -12.923 -44.463  30.651  1.00  0.00     0.193 HD
ATOM     12  O   UNL     1     -10.915 -46.224  28.821  1.00  0.00    -0.266 OA
BRANCH  10  13
ATOM     13  C   UNL     1     -11.016 -46.179  31.203  1.00  0.00     0.458 C 
BRANCH  13  14
ATOM     14  N   UNL     1      -9.753 -45.486  31.553  1.00  0.00    -0.196 N 
ATOM     15  C   UNL     1      -9.797 -44.250  32.109  1.00  0.00     0.308 A 
ATOM     16  C   UNL     1      -8.567 -46.112  31.365  1.00  0.00     0.308 A 
ATOM     17  C   UNL     1      -8.626 -43.587  32.456  1.00  0.00     0.071 A 
ATOM     18  C   UNL     1      -7.372 -45.484  31.697  1.00  0.00     0.071 A 
ATOM     19  C   UNL     1      -7.402 -44.208  32.243  1.00  0.00     0.012 A 
ENDBRANCH  13  14
ENDBRANCH  10  13
ENDBRANCH   8   9
ENDBRANCH   7   8
ENDBRANCH   1   7
BRANCH   4  20
ATOM     20  C   UNL     1     -16.018 -42.197  23.253  1.00  0.00     0.141 C 
BRANCH  20  21
ATOM     21  N   UNL     1     -17.033 -42.642  22.583  1.00  0.00    -0.181 NA
BRANCH  21  22
ATOM     22  N   UNL     1     -18.269 -42.712  23.166  1.00  0.00    -0.242 N 
ATOM     23  C   UNL     1     -19.284 -41.767  23.046  1.00  0.00     0.305 C 
ATOM     24  H   UNL     1     -18.501 -43.670  23.430  1.00  0.00     0.193 HD
ATOM     25  O   UNL     1     -19.201 -40.687  22.464  1.00  0.00    -0.266 OA
BRANCH  23  26
ATOM     26  C   UNL     1     -20.575 -42.203  23.715  1.00  0.00     0.458 C 
BRANCH  26  27
ATOM     27  N   UNL     1     -20.352 -42.514  25.145  1.00  0.00    -0.196 N 
ATOM     28  C   UNL     1     -19.639 -41.659  25.918  1.00  0.00     0.308 A 
ATOM     29  C   UNL     1     -20.878 -43.645  25.675  1.00  0.00     0.308 A 
ATOM     30  C   UNL     1     -19.416 -41.938  27.261  1.00  0.00     0.071 A 
ATOM     31  C   UNL     1     -20.678 -43.961  27.013  1.00  0.00     0.071 A 
ATOM     32  C   UNL     1     -19.938 -43.101  27.813  1.00  0.00     0.012 A 
ENDBRANCH  26  27
ENDBRANCH  23  26
ENDBRANCH  21  22
ENDBRANCH  20  21
ENDBRANCH   4  20
TORSDOF 10
ENDMDL
MODEL 3
REMARK VINA RESULT:    -9.871      3.105     12.527
REMARK INTER + INTRA:         -16.550
REMARK INTER:                 -16.097
REMARK INTRA:                  -0.453
REMARK UNBOUND:                -0.908
REMARK SMILES O=C(C[n+]1ccccc1)NN=Cc1ccc(/C=N/NC(=O)C[n+]2ccccc2)cc1
REMARK SMILES IDX 13 1 14 2 15 3 16 4 29 5 30 6 12 7 11 8 10 9 2 10 1 12 3 13
REMARK SMILES IDX 4 14 5 15 9 16 6 17 8 18 7 19 17 20 18 21 19 22 20 23 21 25
REMARK SMILES IDX 22 26 23 27 24 28 28 29 25 30 27 31 26 32
REMARK H PARENT 10 11 19 24
ROOT
ATOM      1  C   UNL     1     -15.949 -43.045  24.443  1.00  0.00    -0.005 A 
ATOM      2  C   UNL     1     -16.332 -42.652  25.728  1.00  0.00     0.010 A 
ATOM      3  C   UNL     1     -15.646 -43.151  26.838  1.00  0.00     0.010 A 
ATOM      4  C   UNL     1     -14.593 -44.056  26.664  1.00  0.00    -0.005 A 
ATOM      5  C   UNL     1     -14.214 -44.451  25.374  1.00  0.00     0.010 A 
ATOM      6  C   UNL     1     -14.896 -43.948  24.260  1.00  0.00     0.010 A 
ENDROOT
BRANCH   1   7
ATOM      7  C   UNL     1     -16.767 -42.587  23.307  1.00  0.00     0.141 C 
BRANCH   7   8
ATOM      8  N   UNL     1     -18.036 -42.313  23.264  1.00  0.00    -0.181 NA
BRANCH   8   9
ATOM      9  N   UNL     1     -18.778 -42.598  22.161  1.00  0.00    -0.242 N 
ATOM     10  C   UNL     1     -20.134 -42.289  22.209  1.00  0.00     0.305 C 
ATOM     11  H   UNL     1     -18.284 -42.803  21.298  1.00  0.00     0.193 HD
ATOM     12  O   UNL     1     -20.746 -41.942  23.217  1.00  0.00    -0.266 OA
BRANCH  10  13
ATOM     13  C   UNL     1     -20.848 -42.424  20.884  1.00  0.00     0.458 C 
BRANCH  13  14
ATOM     14  N   UNL     1     -21.035 -41.090  20.264  1.00  0.00    -0.196 N 
ATOM     15  C   UNL     1     -20.027 -40.184  20.304  1.00  0.00     0.308 A 
ATOM     16  C   UNL     1     -22.190 -40.805  19.616  1.00  0.00     0.308 A 
ATOM     17  C   UNL     1     -20.176 -38.932  19.719  1.00  0.00     0.071 A 
ATOM     18  C   UNL     1     -22.380 -39.564  19.018  1.00  0.00     0.071 A 
ATOM     19  C   UNL     1     -21.365 -38.618  19.075  1.00  0.00     0.012 A 
ENDBRANCH  13  14
ENDBRANCH  10  13
ENDBRANCH   8   9
ENDBRANCH   7   8
ENDBRANCH   1   7
BRANCH   4  20
ATOM     20  C   UNL     1     -13.903 -44.650  27.833  1.00  0.00     0.141 C 
BRANCH  20  21
ATOM     21  N   UNL     1     -14.202 -44.286  29.040  1.00  0.00    -0.181 NA
BRANCH  21  22
ATOM     22  N   UNL     1     -13.458 -44.730  30.099  1.00  0.00    -0.242 N 
ATOM     23  C   UNL     1     -12.309 -44.124  30.602  1.00  0.00     0.305 C 
ATOM     24  H   UNL     1     -13.997 -45.360  30.693  1.00  0.00     0.193 HD
ATOM     25  O   UNL     1     -11.742 -43.144  30.125  1.00  0.00    -0.266 OA
BRANCH  23  26
ATOM     26  C   UNL     1     -11.792 -44.798  31.860  1.00  0.00     0.458 C 
BRANCH  26  27
ATOM     27  N   UNL     1     -10.344 -45.082  31.753  1.00  0.00    -0.196 N 
ATOM     28  C   UNL     1      -9.924 -46.253  31.216  1.00  0.00     0.308 A 
ATOM     29  C   UNL     1      -9.447 -44.160  32.180  1.00  0.00     0.308 A 
ATOM     30  C   UNL     1      -8.567 -46.538  31.113  1.00  0.00     0.071 A 
ATOM     31  C   UNL     1      -8.082 -44.405  32.094  1.00  0.00     0.071 A 
ATOM     32  C   UNL     1      -7.638 -45.607  31.558  1.00  0.00     0.012 A 
ENDBRANCH  26  27
ENDBRANCH  23  26
ENDBRANCH  21  22
ENDBRANCH  20  21
ENDBRANCH   4  20
TORSDOF 10
ENDMDL
MODEL 4
REMARK VINA RESULT:    -9.760      3.103      5.623
REMARK INTER + INTRA:         -16.374
REMARK INTER:                 -15.775
REMARK INTRA:                  -0.598
REMARK UNBOUND:                -0.908
REMARK SMILES O=C(C[n+]1ccccc1)NN=Cc1ccc(/C=N/NC(=O)C[n+]2ccccc2)cc1
REMARK SMILES IDX 13 1 14 2 15 3 16 4 29 5 30 6 12 7 11 8 10 9 2 10 1 12 3 13
REMARK SMILES IDX 4 14 5 15 9 16 6 17 8 18 7 19 17 20 18 21 19 22 20 23 21 25
REMARK SMILES IDX 22 26 23 27 24 28 28 29 25 30 27 31 26 32
REMARK H PARENT 10 11 19 24
ROOT
ATOM      1  C   UNL     1     -14.528 -44.062  26.769  1.00  0.00    -0.005 A 
ATOM      2  C   UNL     1     -14.213 -44.444  25.462  1.00  0.00     0.010 A 
ATOM      3  C   UNL     1     -14.940 -43.917  24.392  1.00  0.00     0.010 A 
ATOM      4  C   UNL     1     -15.992 -43.025  24.630  1.00  0.00    -0.005 A 
ATOM      5  C   UNL     1     -16.308 -42.646  25.941  1.00  0.00     0.010 A 
ATOM      6  C   UNL     1     -15.577 -43.169  27.014  1.00  0.00     0.010 A 
ENDROOT
BRANCH   1   7
ATOM      7  C   UNL     1     -13.815 -44.723  27.874  1.00  0.00     0.141 C 
BRANCH   7   8
ATOM      8  N   UNL     1     -12.782 -44.316  28.549  1.00  0.00    -0.181 NA
BRANCH   8   9
ATOM      9  N   UNL     1     -12.494 -44.835  29.772  1.00  0.00    -0.242 N 
ATOM     10  C   UNL     1     -11.483 -45.788  29.837  1.00  0.00     0.305 C 
ATOM     11  H   UNL     1     -12.859 -44.354  30.588  1.00  0.00     0.193 HD
ATOM     12  O   UNL     1     -10.950 -46.322  28.866  1.00  0.00    -0.266 OA
BRANCH  10  13
ATOM     13  C   UNL     1     -11.067 -46.156  31.242  1.00  0.00     0.458 C 
BRANCH  13  14
ATOM     14  N   UNL     1      -9.803 -45.468  31.599  1.00  0.00    -0.196 N 
ATOM     15  C   UNL     1      -8.616 -46.077  31.358  1.00  0.00     0.308 A 
ATOM     16  C   UNL     1      -9.840 -44.216  32.114  1.00  0.00     0.308 A 
ATOM     17  C   UNL     1      -7.419 -45.445  31.674  1.00  0.00     0.071 A 
ATOM     18  C   UNL     1      -8.666 -43.549  32.444  1.00  0.00     0.071 A 
ATOM     19  C   UNL     1      -7.445 -44.172  32.227  1.00  0.00     0.012 A 
ENDBRANCH  13  14
ENDBRANCH  10  13
ENDBRANCH   8   9
ENDBRANCH   7   8
ENDBRANCH   1   7
BRANCH   4  20
ATOM     20  C   UNL     1     -16.819 -42.514  23.511  1.00  0.00     0.141 C 
BRANCH  20  21
ATOM     21  N   UNL     1     -18.112 -42.546  23.568  1.00  0.00    -0.181 NA
BRANCH  21  22
ATOM     22  N   UNL     1     -18.852 -42.672  22.423  1.00  0.00    -0.242 N 
ATOM     23  C   UNL     1     -20.184 -42.299  22.265  1.00  0.00     0.305 C 
ATOM     24  H   UNL     1     -18.252 -42.760  21.602  1.00  0.00     0.193 HD
ATOM     25  O   UNL     1     -20.924 -41.874  23.149  1.00  0.00    -0.266 OA
BRANCH  23  26
ATOM     26  C   UNL     1     -20.673 -42.456  20.837  1.00  0.00     0.458 C 
BRANCH  26  27
ATOM     27  N   UNL     1     -20.928 -41.138  20.216  1.00  0.00    -0.196 N 
ATOM     28  C   UNL     1     -19.957 -40.192  20.216  1.00  0.00     0.308 A 
ATOM     29  C   UNL     1     -22.128 -40.891  19.636  1.00  0.00     0.308 A 
ATOM     30  C   UNL     1     -20.182 -38.947  19.642  1.00  0.00     0.071 A 
ATOM     31  C   UNL     1     -22.393 -39.659  19.050  1.00  0.00     0.071 A 
ATOM     32  C   UNL     1     -21.412 -38.677  19.056  1.00  0.00     0.012 A 
ENDBRANCH  26  27
ENDBRANCH  23  26
ENDBRANCH  21  22
ENDBRANCH  20  21
ENDBRANCH   4  20
TORSDOF 10
ENDMDL
MODEL 5
REMARK VINA RESULT:    -9.692      3.401      6.253
REMARK INTER + INTRA:         -16.267
REMARK INTER:                 -15.602
REMARK INTRA:                  -0.665
REMARK UNBOUND:                -0.908
REMARK SMILES O=C(C[n+]1ccccc1)NN=Cc1ccc(/C=N/NC(=O)C[n+]2ccccc2)cc1
REMARK SMILES IDX 13 1 14 2 15 3 16 4 29 5 30 6 12 7 11 8 10 9 2 10 1 12 3 13
REMARK SMILES IDX 4 14 5 15 9 16 6 17 8 18 7 19 17 20 18 21 19 22 20 23 21 25
REMARK SMILES IDX 22 26 23 27 24 28 28 29 25 30 27 31 26 32
REMARK H PARENT 10 11 19 24
ROOT
ATOM      1  C   UNL     1     -14.512 -43.533  26.162  1.00  0.00    -0.005 A 
ATOM      2  C   UNL     1     -15.677 -43.039  26.755  1.00  0.00     0.010 A 
ATOM      3  C   UNL     1     -16.730 -42.596  25.950  1.00  0.00     0.010 A 
ATOM      4  C   UNL     1     -16.609 -42.628  24.556  1.00  0.00    -0.005 A 
ATOM      5  C   UNL     1     -15.439 -43.119  23.965  1.00  0.00     0.010 A 
ATOM      6  C   UNL     1     -14.385 -43.570  24.769  1.00  0.00     0.010 A 
ENDROOT
BRANCH   1   7
ATOM      7  C   UNL     1     -13.384 -43.884  27.040  1.00  0.00     0.141 C 
BRANCH   7   8
ATOM      8  N   UNL     1     -13.342 -44.723  28.032  1.00  0.00    -0.181 NA
BRANCH   8   9
ATOM      9  N   UNL     1     -13.014 -44.312  29.286  1.00  0.00    -0.242 N 
ATOM     10  C   UNL     1     -13.200 -45.221  30.323  1.00  0.00     0.305 C 
ATOM     11  H   UNL     1     -12.452 -43.472  29.376  1.00  0.00     0.193 HD
ATOM     12  O   UNL     1     -13.792 -46.293  30.226  1.00  0.00    -0.266 OA
BRANCH  10  13
ATOM     13  C   UNL     1     -12.613 -44.782  31.644  1.00  0.00     0.458 C 
BRANCH  13  14
ATOM     14  N   UNL     1     -11.148 -45.012  31.656  1.00  0.00    -0.196 N 
ATOM     15  C   UNL     1     -10.319 -44.034  32.095  1.00  0.00     0.308 A 
ATOM     16  C   UNL     1     -10.652 -46.214  31.277  1.00  0.00     0.308 A 
ATOM     17  C   UNL     1      -8.944 -44.232  32.126  1.00  0.00     0.071 A 
ATOM     18  C   UNL     1      -9.283 -46.453  31.292  1.00  0.00     0.071 A 
ATOM     19  C   UNL     1      -8.421 -45.451  31.716  1.00  0.00     0.012 A 
ENDBRANCH  13  14
ENDBRANCH  10  13
ENDBRANCH   8   9
ENDBRANCH   7   8
ENDBRANCH   1   7
BRANCH   4  20
ATOM     20  C   UNL     1     -17.687 -42.094  23.691  1.00  0.00     0.141 C 
BRANCH  20  21
ATOM     21  N   UNL     1     -18.754 -42.787  23.450  1.00  0.00    -0.181 NA
BRANCH  21  22
ATOM     22  N   UNL     1     -19.332 -42.759  22.210  1.00  0.00    -0.242 N 
ATOM     23  C   UNL     1     -20.615 -42.304  21.916  1.00  0.00     0.305 C 
ATOM     24  H   UNL     1     -18.629 -42.796  21.472  1.00  0.00     0.193 HD
ATOM     25  O   UNL     1     -21.454 -41.932  22.733  1.00  0.00    -0.266 OA
BRANCH  23  26
ATOM     26  C   UNL     1     -20.906 -42.291  20.426  1.00  0.00     0.458 C 
BRANCH  26  27
ATOM     27  N   UNL     1     -21.080 -40.908  19.931  1.00  0.00    -0.196 N 
ATOM     28  C   UNL     1     -22.215 -40.563  19.276  1.00  0.00     0.308 A 
ATOM     29  C   UNL     1     -20.108 -39.990  20.152  1.00  0.00     0.308 A 
ATOM     30  C   UNL     1     -22.393 -39.269  18.800  1.00  0.00     0.071 A 
ATOM     31  C   UNL     1     -20.246 -38.686  19.693  1.00  0.00     0.071 A 
ATOM     32  C   UNL     1     -21.398 -38.323  19.009  1.00  0.00     0.012 A 
ENDBRANCH  26  27
ENDBRANCH  23  26
ENDBRANCH  21  22
ENDBRANCH  20  21
ENDBRANCH   4  20
TORSDOF 10
ENDMDL
MODEL 6
REMARK VINA RESULT:    -9.658      2.589      5.638
REMARK INTER + INTRA:         -16.212
REMARK INTER:                 -15.398
REMARK INTRA:                  -0.814
REMARK UNBOUND:                -0.908
REMARK SMILES O=C(C[n+]1ccccc1)NN=Cc1ccc(/C=N/NC(=O)C[n+]2ccccc2)cc1
REMARK SMILES IDX 13 1 14 2 15 3 16 4 29 5 30 6 12 7 11 8 10 9 2 10 1 12 3 13
REMARK SMILES IDX 4 14 5 15 9 16 6 17 8 18 7 19 17 20 18 21 19 22 20 23 21 25
REMARK SMILES IDX 22 26 23 27 24 28 28 29 25 30 27 31 26 32
REMARK H PARENT 10 11 19 24
ROOT
ATOM      1  C   UNL     1     -14.568 -43.965  26.274  1.00  0.00    -0.005 A 
ATOM      2  C   UNL     1     -14.339 -44.474  24.992  1.00  0.00     0.010 A 
ATOM      3  C   UNL     1     -15.010 -43.922  23.899  1.00  0.00     0.010 A 
ATOM      4  C   UNL     1     -15.922 -42.878  24.089  1.00  0.00    -0.005 A 
ATOM      5  C   UNL     1     -16.152 -42.372  25.375  1.00  0.00     0.010 A 
ATOM      6  C   UNL     1     -15.476 -42.920  26.472  1.00  0.00     0.010 A 
ENDROOT
BRANCH   1   7
ATOM      7  C   UNL     1     -13.929 -44.646  27.412  1.00  0.00     0.141 C 
BRANCH   7   8
ATOM      8  N   UNL     1     -13.116 -44.169  28.308  1.00  0.00    -0.181 NA
BRANCH   8   9
ATOM      9  N   UNL     1     -12.411 -44.994  29.126  1.00  0.00    -0.242 N 
ATOM     10  C   UNL     1     -12.667 -44.907  30.491  1.00  0.00     0.305 C 
ATOM     11  H   UNL     1     -11.915 -45.771  28.701  1.00  0.00     0.193 HD
ATOM     12  O   UNL     1     -13.344 -44.034  31.029  1.00  0.00    -0.266 OA
BRANCH  10  13
ATOM     13  C   UNL     1     -12.017 -45.995  31.314  1.00  0.00     0.458 C 
BRANCH  13  14
ATOM     14  N   UNL     1     -10.571 -45.715  31.484  1.00  0.00    -0.196 N 
ATOM     15  C   UNL     1      -9.658 -46.634  31.085  1.00  0.00     0.308 A 
ATOM     16  C   UNL     1     -10.170 -44.523  31.987  1.00  0.00     0.308 A 
ATOM     17  C   UNL     1      -8.297 -46.388  31.223  1.00  0.00     0.071 A 
ATOM     18  C   UNL     1      -8.819 -44.237  32.143  1.00  0.00     0.071 A 
ATOM     19  C   UNL     1      -7.875 -45.180  31.762  1.00  0.00     0.012 A 
ENDBRANCH  13  14
ENDBRANCH  10  13
ENDBRANCH   8   9
ENDBRANCH   7   8
ENDBRANCH   1   7
BRANCH   4  20
ATOM     20  C   UNL     1     -16.695 -42.330  22.949  1.00  0.00     0.141 C 
BRANCH  20  21
ATOM     21  N   UNL     1     -17.796 -42.890  22.558  1.00  0.00    -0.181 NA
BRANCH  21  22
ATOM     22  N   UNL     1     -18.930 -42.789  23.318  1.00  0.00    -0.242 N 
ATOM     23  C   UNL     1     -19.966 -41.879  23.123  1.00  0.00     0.305 C 
ATOM     24  H   UNL     1     -19.105 -43.648  23.839  1.00  0.00     0.193 HD
ATOM     25  O   UNL     1     -19.987 -40.976  22.290  1.00  0.00    -0.266 OA
BRANCH  23  26
ATOM     26  C   UNL     1     -21.136 -42.111  24.062  1.00  0.00     0.458 C 
BRANCH  26  27
ATOM     27  N   UNL     1     -20.664 -42.474  25.417  1.00  0.00    -0.196 N 
ATOM     28  C   UNL     1     -21.099 -43.618  25.999  1.00  0.00     0.308 A 
ATOM     29  C   UNL     1     -19.785 -41.666  26.060  1.00  0.00     0.308 A 
ATOM     30  C   UNL     1     -20.670 -43.971  27.273  1.00  0.00     0.071 A 
ATOM     31  C   UNL     1     -19.331 -41.984  27.334  1.00  0.00     0.071 A 
ATOM     32  C   UNL     1     -19.780 -43.146  27.947  1.00  0.00     0.012 A 
ENDBRANCH  26  27
ENDBRANCH  23  26
ENDBRANCH  21  22
ENDBRANCH  20  21
ENDBRANCH   4  20
TORSDOF 10
ENDMDL
MODEL 7
REMARK VINA RESULT:    -9.653      2.882     11.048
REMARK INTER + INTRA:         -16.204
REMARK INTER:                 -15.506
REMARK INTRA:                  -0.697
REMARK UNBOUND:                -0.908
REMARK SMILES O=C(C[n+]1ccccc1)NN=Cc1ccc(/C=N/NC(=O)C[n+]2ccccc2)cc1
REMARK SMILES IDX 13 1 14 2 15 3 16 4 29 5 30 6 12 7 11 8 10 9 2 10 1 12 3 13
REMARK SMILES IDX 4 14 5 15 9 16 6 17 8 18 7 19 17 20 18 21 19 22 20 23 21 25
REMARK SMILES IDX 22 26 23 27 24 28 28 29 25 30 27 31 26 32
REMARK H PARENT 10 11 19 24
ROOT
ATOM      1  C   UNL     1     -15.686 -43.058  24.181  1.00  0.00    -0.005 A 
ATOM      2  C   UNL     1     -15.770 -42.389  25.405  1.00  0.00     0.010 A 
ATOM      3  C   UNL     1     -15.080 -42.883  26.514  1.00  0.00     0.010 A 
ATOM      4  C   UNL     1     -14.324 -44.055  26.405  1.00  0.00    -0.005 A 
ATOM      5  C   UNL     1     -14.244 -44.726  25.179  1.00  0.00     0.010 A 
ATOM      6  C   UNL     1     -14.929 -44.230  24.064  1.00  0.00     0.010 A 
ENDROOT
BRANCH   1   7
ATOM      7  C   UNL     1     -16.515 -42.571  23.067  1.00  0.00     0.141 C 
BRANCH   7   8
ATOM      8  N   UNL     1     -17.691 -42.017  23.096  1.00  0.00    -0.181 NA
BRANCH   8   9
ATOM      9  N   UNL     1     -18.800 -42.739  23.402  1.00  0.00    -0.242 N 
ATOM     10  C   UNL     1     -20.009 -42.053  23.467  1.00  0.00     0.305 C 
ATOM     11  H   UNL     1     -18.737 -43.751  23.345  1.00  0.00     0.193 HD
ATOM     12  O   UNL     1     -20.130 -40.830  23.441  1.00  0.00    -0.266 OA
BRANCH  10  13
ATOM     13  C   UNL     1     -21.222 -42.945  23.592  1.00  0.00     0.458 C 
BRANCH  13  14
ATOM     14  N   UNL     1     -21.232 -43.616  24.914  1.00  0.00    -0.196 N 
ATOM     15  C   UNL     1     -21.311 -44.968  24.980  1.00  0.00     0.308 A 
ATOM     16  C   UNL     1     -21.108 -42.879  26.044  1.00  0.00     0.308 A 
ATOM     17  C   UNL     1     -21.309 -45.618  26.208  1.00  0.00     0.071 A 
ATOM     18  C   UNL     1     -21.103 -43.490  27.292  1.00  0.00     0.071 A 
ATOM     19  C   UNL     1     -21.209 -44.872  27.375  1.00  0.00     0.012 A 
ENDBRANCH  13  14
ENDBRANCH  10  13
ENDBRANCH   8   9
ENDBRANCH   7   8
ENDBRANCH   1   7
BRANCH   4  20
ATOM     20  C   UNL     1     -13.645 -44.631  27.590  1.00  0.00     0.141 C 
BRANCH  20  21
ATOM     21  N   UNL     1     -14.250 -44.711  28.733  1.00  0.00    -0.181 NA
BRANCH  21  22
ATOM     22  N   UNL     1     -13.592 -44.382  29.887  1.00  0.00    -0.242 N 
ATOM     23  C   UNL     1     -13.402 -45.216  30.986  1.00  0.00     0.305 C 
ATOM     24  H   UNL     1     -12.972 -43.584  29.746  1.00  0.00     0.193 HD
ATOM     25  O   UNL     1     -13.861 -46.347  31.121  1.00  0.00    -0.266 OA
BRANCH  23  26
ATOM     26  C   UNL     1     -12.525 -44.588  32.054  1.00  0.00     0.458 C 
BRANCH  26  27
ATOM     27  N   UNL     1     -11.106 -44.961  31.862  1.00  0.00    -0.196 N 
ATOM     28  C   UNL     1     -10.791 -46.164  31.324  1.00  0.00     0.308 A 
ATOM     29  C   UNL     1     -10.130 -44.087  32.211  1.00  0.00     0.308 A 
ATOM     30  C   UNL     1      -9.463 -46.532  31.141  1.00  0.00     0.071 A 
ATOM     31  C   UNL     1      -8.791 -44.416  32.044  1.00  0.00     0.071 A 
ATOM     32  C   UNL     1      -8.454 -45.651  31.507  1.00  0.00     0.012 A 
ENDBRANCH  26  27
ENDBRANCH  23  26
ENDBRANCH  21  22
ENDBRANCH  20  21
ENDBRANCH   4  20
TORSDOF 10
ENDMDL
MODEL 8
REMARK VINA RESULT:    -9.497      3.680      6.405
REMARK INTER + INTRA:         -15.957
REMARK INTER:                 -15.482
REMARK INTRA:                  -0.475
REMARK UNBOUND:                -0.908
REMARK SMILES O=C(C[n+]1ccccc1)NN=Cc1ccc(/C=N/NC(=O)C[n+]2ccccc2)cc1
REMARK SMILES IDX 13 1 14 2 15 3 16 4 29 5 30 6 12 7 11 8 10 9 2 10 1 12 3 13
REMARK SMILES IDX 4 14 5 15 9 16 6 17 8 18 7 19 17 20 18 21 19 22 20 23 21 25
REMARK SMILES IDX 22 26 23 27 24 28 28 29 25 30 27 31 26 32
REMARK H PARENT 10 11 19 24
ROOT
ATOM      1  C   UNL     1     -14.686 -43.424  26.003  1.00  0.00    -0.005 A 
ATOM      2  C   UNL     1     -14.548 -43.547  24.618  1.00  0.00     0.010 A 
ATOM      3  C   UNL     1     -15.611 -43.198  23.782  1.00  0.00     0.010 A 
ATOM      4  C   UNL     1     -16.816 -42.745  24.330  1.00  0.00    -0.005 A 
ATOM      5  C   UNL     1     -16.953 -42.625  25.719  1.00  0.00     0.010 A 
ATOM      6  C   UNL     1     -15.887 -42.969  26.559  1.00  0.00     0.010 A 
ENDROOT
BRANCH   1   7
ATOM      7  C   UNL     1     -13.586 -43.907  26.854  1.00  0.00     0.141 C 
BRANCH   7   8
ATOM      8  N   UNL     1     -12.596 -43.246  27.375  1.00  0.00    -0.181 NA
BRANCH   8   9
ATOM      9  N   UNL     1     -12.171 -43.501  28.641  1.00  0.00    -0.242 N 
ATOM     10  C   UNL     1     -11.108 -42.742  29.120  1.00  0.00     0.305 C 
ATOM     11  H   UNL     1     -12.777 -44.052  29.241  1.00  0.00     0.193 HD
ATOM     12  O   UNL     1     -10.414 -41.989  28.441  1.00  0.00    -0.266 OA
BRANCH  10  13
ATOM     13  C   UNL     1     -10.834 -42.920  30.596  1.00  0.00     0.458 C 
BRANCH  13  14
ATOM     14  N   UNL     1      -9.878 -44.033  30.809  1.00  0.00    -0.196 N 
ATOM     15  C   UNL     1     -10.343 -45.299  30.948  1.00  0.00     0.308 A 
ATOM     16  C   UNL     1      -8.547 -43.786  30.811  1.00  0.00     0.308 A 
ATOM     17  C   UNL     1      -9.464 -46.359  31.137  1.00  0.00     0.071 A 
ATOM     18  C   UNL     1      -7.634 -44.818  30.997  1.00  0.00     0.071 A 
ATOM     19  C   UNL     1      -8.098 -46.115  31.167  1.00  0.00     0.012 A 
ENDBRANCH  13  14
ENDBRANCH  10  13
ENDBRANCH   8   9
ENDBRANCH   7   8
ENDBRANCH   1   7
BRANCH   4  20
ATOM     20  C   UNL     1     -17.976 -42.439  23.461  1.00  0.00     0.141 C 
BRANCH  20  21
ATOM     21  N   UNL     1     -17.928 -41.477  22.596  1.00  0.00    -0.181 NA
BRANCH  21  22
ATOM     22  N   UNL     1     -18.959 -40.582  22.498  1.00  0.00    -0.242 N 
ATOM     23  C   UNL     1     -19.461 -40.040  21.318  1.00  0.00     0.305 C 
ATOM     24  H   UNL     1     -19.540 -40.594  23.336  1.00  0.00     0.193 HD
ATOM     25  O   UNL     1     -19.008 -40.220  20.190  1.00  0.00    -0.266 OA
BRANCH  23  26
ATOM     26  C   UNL     1     -20.687 -39.174  21.545  1.00  0.00     0.458 C 
BRANCH  26  27
ATOM     27  N   UNL     1     -21.482 -39.044  20.304  1.00  0.00    -0.196 N 
ATOM     28  C   UNL     1     -22.260 -40.073  19.891  1.00  0.00     0.308 A 
ATOM     29  C   UNL     1     -21.437 -37.888  19.597  1.00  0.00     0.308 A 
ATOM     30  C   UNL     1     -23.010 -39.970  18.724  1.00  0.00     0.071 A 
ATOM     31  C   UNL     1     -22.171 -37.744  18.426  1.00  0.00     0.071 A 
ATOM     32  C   UNL     1     -22.963 -38.796  17.984  1.00  0.00     0.012 A 
ENDBRANCH  26  27
ENDBRANCH  23  26
ENDBRANCH  21  22
ENDBRANCH  20  21
ENDBRANCH   4  20
TORSDOF 10
ENDMDL
MODEL 9
REMARK VINA RESULT:    -9.435      2.249     10.747
REMARK INTER + INTRA:         -15.859
REMARK INTER:                 -15.434
REMARK INTRA:                  -0.425
REMARK UNBOUND:                -0.908
REMARK SMILES O=C(C[n+]1ccccc1)NN=Cc1ccc(/C=N/NC(=O)C[n+]2ccccc2)cc1
REMARK SMILES IDX 13 1 14 2 15 3 16 4 29 5 30 6 12 7 11 8 10 9 2 10 1 12 3 13
REMARK SMILES IDX 4 14 5 15 9 16 6 17 8 18 7 19 17 20 18 21 19 22 20 23 21 25
REMARK SMILES IDX 22 26 23 27 24 28 28 29 25 30 27 31 26 32
REMARK H PARENT 10 11 19 24
ROOT
ATOM      1  C   UNL     1     -14.705 -42.706  25.507  1.00  0.00    -0.005 A 
ATOM      2  C   UNL     1     -15.722 -42.845  26.456  1.00  0.00     0.010 A 
ATOM      3  C   UNL     1     -15.466 -43.523  27.650  1.00  0.00     0.010 A 
ATOM      4  C   UNL     1     -14.204 -44.079  27.885  1.00  0.00    -0.005 A 
ATOM      5  C   UNL     1     -13.188 -43.941  26.931  1.00  0.00     0.010 A 
ATOM      6  C   UNL     1     -13.440 -43.256  25.736  1.00  0.00     0.010 A 
ENDROOT
BRANCH   1   7
ATOM      7  C   UNL     1     -15.045 -42.084  24.216  1.00  0.00     0.141 C 
BRANCH   7   8
ATOM      8  N   UNL     1     -15.793 -42.537  23.255  1.00  0.00    -0.181 NA
BRANCH   8   9
ATOM      9  N   UNL     1     -17.136 -42.670  23.414  1.00  0.00    -0.242 N 
ATOM     10  C   UNL     1     -17.947 -41.714  22.810  1.00  0.00     0.305 C 
ATOM     11  H   UNL     1     -17.486 -43.558  23.760  1.00  0.00     0.193 HD
ATOM     12  O   UNL     1     -17.548 -40.672  22.295  1.00  0.00    -0.266 OA
BRANCH  10  13
ATOM     13  C   UNL     1     -19.421 -42.043  22.840  1.00  0.00     0.458 C 
BRANCH  13  14
ATOM     14  N   UNL     1     -20.007 -41.656  24.146  1.00  0.00    -0.196 N 
ATOM     15  C   UNL     1     -21.219 -41.050  24.185  1.00  0.00     0.308 A 
ATOM     16  C   UNL     1     -19.352 -41.956  25.293  1.00  0.00     0.308 A 
ATOM     17  C   UNL     1     -21.792 -40.689  25.399  1.00  0.00     0.071 A 
ATOM     18  C   UNL     1     -19.889 -41.612  26.528  1.00  0.00     0.071 A 
ATOM     19  C   UNL     1     -21.118 -40.968  26.580  1.00  0.00     0.012 A 
ENDBRANCH  13  14
ENDBRANCH  10  13
ENDBRANCH   8   9
ENDBRANCH   7   8
ENDBRANCH   1   7
BRANCH   4  20
ATOM     20  C   UNL     1     -13.938 -44.863  29.114  1.00  0.00     0.141 C 
BRANCH  20  21
ATOM     21  N   UNL     1     -14.075 -44.333  30.288  1.00  0.00    -0.181 NA
BRANCH  21  22
ATOM     22  N   UNL     1     -13.034 -44.343  31.177  1.00  0.00    -0.242 N 
ATOM     23  C   UNL     1     -11.882 -43.566  31.095  1.00  0.00     0.305 C 
ATOM     24  H   UNL     1     -13.319 -44.730  32.076  1.00  0.00     0.193 HD
ATOM     25  O   UNL     1     -11.585 -42.810  30.173  1.00  0.00    -0.266 OA
BRANCH  23  26
ATOM     26  C   UNL     1     -10.979 -43.725  32.305  1.00  0.00     0.458 C 
BRANCH  26  27
ATOM     27  N   UNL     1      -9.796 -44.552  31.978  1.00  0.00    -0.196 N 
ATOM     28  C   UNL     1      -9.961 -45.790  31.454  1.00  0.00     0.308 A 
ATOM     29  C   UNL     1      -8.552 -44.056  32.192  1.00  0.00     0.308 A 
ATOM     30  C   UNL     1      -8.861 -46.582  31.147  1.00  0.00     0.071 A 
ATOM     31  C   UNL     1      -7.426 -44.815  31.898  1.00  0.00     0.071 A 
ATOM     32  C   UNL     1      -7.582 -46.091  31.373  1.00  0.00     0.012 A 
ENDBRANCH  26  27
ENDBRANCH  23  26
ENDBRANCH  21  22
ENDBRANCH  20  21
ENDBRANCH   4  20
TORSDOF 10
ENDMDL
