MODEL 1
REMARK VINA RESULT:    -9.393      0.000      0.000
REMARK INTER + INTRA:         -11.567
REMARK INTER:                 -11.314
REMARK INTRA:                  -0.252
REMARK UNBOUND:                -0.252
REMARK SMILES COc1ccc(-c2oc3cc(OC)c(I)cc3c(=O)c2O)cc1
REMARK SMILES IDX 7 1 8 2 9 3 10 4 11 5 14 6 15 7 16 8 17 9 18 10 19 11 20 12
REMARK SMILES IDX 6 13 3 14 4 15 23 16 5 17 22 18 2 19 1 20 21 21 12 23 13 24
REMARK H PARENT 21 22
ROOT
ATOM      1  C   UNL     1     -16.577 -42.334  24.125  1.00  0.00     0.180 A 
ATOM      2  O   UNL     1     -17.955 -42.509  24.191  1.00  0.00    -0.452 OA
ATOM      3  C   UNL     1     -18.744 -41.923  23.233  1.00  0.00     0.142 A 
ATOM      4  C   UNL     1     -20.122 -42.139  23.330  1.00  0.00     0.095 A 
ATOM      5  C   UNL     1     -20.994 -41.574  22.392  1.00  0.00     0.135 A 
ATOM      6  C   UNL     1     -20.457 -40.787  21.355  1.00  0.00     0.056 A 
ATOM      7  I   UNL     1     -21.676 -39.891  19.896  1.00  0.00    -0.040 I 
ATOM      8  C   UNL     1     -19.078 -40.570  21.258  1.00  0.00     0.034 A 
ATOM      9  C   UNL     1     -18.230 -41.146  22.204  1.00  0.00     0.070 A 
ATOM     10  C   UNL     1     -16.779 -40.942  22.137  1.00  0.00     0.235 A 
ATOM     11  O   UNL     1     -16.238 -40.265  21.270  1.00  0.00    -0.285 OA
ATOM     12  C   UNL     1     -15.958 -41.600  23.182  1.00  0.00     0.208 A 
ENDROOT
BRANCH   1  13
ATOM     13  C   UNL     1     -15.859 -43.022  25.218  1.00  0.00     0.021 A 
ATOM     14  C   UNL     1     -14.422 -44.321  27.277  1.00  0.00     0.118 A 
ATOM     15  C   UNL     1     -14.181 -44.631  25.938  1.00  0.00     0.047 A 
ATOM     16  C   UNL     1     -15.377 -43.355  27.588  1.00  0.00     0.047 A 
ATOM     17  C   UNL     1     -14.888 -43.988  24.917  1.00  0.00     0.016 A 
ATOM     18  C   UNL     1     -16.086 -42.710  26.565  1.00  0.00     0.016 A 
BRANCH  14  19
ATOM     19  O   UNL     1     -13.662 -45.021  28.173  1.00  0.00    -0.497 OA
ATOM     20  C   UNL     1     -12.714 -45.934  27.634  1.00  0.00     0.278 C 
ENDBRANCH  14  19
ENDBRANCH   1  13
BRANCH  12  21
ATOM     21  O   UNL     1     -14.591 -41.396  23.121  1.00  0.00    -0.502 OA
ATOM     22  H   UNL     1     -14.392 -40.790  23.868  1.00  0.00     0.293 HD
ENDBRANCH  12  21
BRANCH   5  23
ATOM     23  O   UNL     1     -22.355 -41.735  22.413  1.00  0.00    -0.496 OA
ATOM     24  C   UNL     1     -23.071 -41.214  23.525  1.00  0.00     0.278 C 
ENDBRANCH   5  23
TORSDOF 4
ENDMDL
MODEL 2
REMARK VINA RESULT:    -9.209      2.555      3.446
REMARK INTER + INTRA:         -11.346
REMARK INTER:                 -11.191
REMARK INTRA:                  -0.155
REMARK UNBOUND:                -0.252
REMARK SMILES COc1ccc(-c2oc3cc(OC)c(I)cc3c(=O)c2O)cc1
REMARK SMILES IDX 7 1 8 2 9 3 10 4 11 5 14 6 15 7 16 8 17 9 18 10 19 11 20 12
REMARK SMILES IDX 6 13 3 14 4 15 23 16 5 17 22 18 2 19 1 20 21 21 12 23 13 24
REMARK H PARENT 21 22
ROOT
ATOM      1  C   UNL     1     -14.947 -43.456  26.040  1.00  0.00     0.180 A 
ATOM      2  O   UNL     1     -16.062 -43.174  26.821  1.00  0.00    -0.452 OA
ATOM      3  C   UNL     1     -17.191 -42.687  26.214  1.00  0.00     0.142 A 
ATOM      4  C   UNL     1     -18.292 -42.433  27.036  1.00  0.00     0.095 A 
ATOM      5  C   UNL     1     -19.482 -41.933  26.492  1.00  0.00     0.135 A 
ATOM      6  C   UNL     1     -19.544 -41.692  25.107  1.00  0.00     0.056 A 
ATOM      7  I   UNL     1     -21.278 -40.942  24.187  1.00  0.00    -0.040 I 
ATOM      8  C   UNL     1     -18.442 -41.946  24.283  1.00  0.00     0.034 A 
ATOM      9  C   UNL     1     -17.269 -42.445  24.849  1.00  0.00     0.070 A 
ATOM     10  C   UNL     1     -16.092 -42.725  24.020  1.00  0.00     0.235 A 
ATOM     11  O   UNL     1     -16.067 -42.534  22.809  1.00  0.00    -0.285 OA
ATOM     12  C   UNL     1     -14.894 -43.261  24.710  1.00  0.00     0.208 A 
ENDROOT
BRANCH   1  13
ATOM     13  C   UNL     1     -13.809 -43.974  26.829  1.00  0.00     0.021 A 
ATOM     14  C   UNL     1     -11.620 -45.013  28.285  1.00  0.00     0.118 A 
ATOM     15  C   UNL     1     -12.617 -45.861  27.799  1.00  0.00     0.047 A 
ATOM     16  C   UNL     1     -11.714 -43.645  28.037  1.00  0.00     0.047 A 
ATOM     17  C   UNL     1     -13.699 -45.350  27.076  1.00  0.00     0.016 A 
ATOM     18  C   UNL     1     -12.798 -43.133  27.312  1.00  0.00     0.016 A 
BRANCH  14  19
ATOM     19  O   UNL     1     -10.620 -45.641  28.974  1.00  0.00    -0.497 OA
ATOM     20  C   UNL     1     -10.912 -46.040  30.307  1.00  0.00     0.278 C 
ENDBRANCH  14  19
ENDBRANCH   1  13
BRANCH  12  21
ATOM     21  O   UNL     1     -13.783 -43.512  23.926  1.00  0.00    -0.502 OA
ATOM     22  H   UNL     1     -13.082 -42.926  24.284  1.00  0.00     0.293 HD
ENDBRANCH  12  21
BRANCH   5  23
ATOM     23  O   UNL     1     -20.606 -41.657  27.225  1.00  0.00    -0.496 OA
ATOM     24  C   UNL     1     -21.610 -42.660  27.311  1.00  0.00     0.278 C 
ENDBRANCH   5  23
TORSDOF 4
ENDMDL
MODEL 3
REMARK VINA RESULT:    -8.641      4.917      9.810
REMARK INTER + INTRA:         -10.661
REMARK INTER:                 -10.448
REMARK INTRA:                  -0.213
REMARK UNBOUND:                -0.252
REMARK SMILES COc1ccc(-c2oc3cc(OC)c(I)cc3c(=O)c2O)cc1
REMARK SMILES IDX 7 1 8 2 9 3 10 4 11 5 14 6 15 7 16 8 17 9 18 10 19 11 20 12
REMARK SMILES IDX 6 13 3 14 4 15 23 16 5 17 22 18 2 19 1 20 21 21 12 23 13 24
REMARK H PARENT 21 22
ROOT
ATOM      1  C   UNL     1     -13.640 -43.698  27.550  1.00  0.00     0.180 A 
ATOM      2  O   UNL     1     -12.435 -43.072  27.250  1.00  0.00    -0.452 OA
ATOM      3  C   UNL     1     -11.379 -43.219  28.113  1.00  0.00     0.142 A 
ATOM      4  C   UNL     1     -10.183 -42.586  27.762  1.00  0.00     0.095 A 
ATOM      5  C   UNL     1      -9.059 -42.687  28.592  1.00  0.00     0.135 A 
ATOM      6  C   UNL     1      -9.159 -43.435  29.780  1.00  0.00     0.056 A 
ATOM      7  I   UNL     1      -7.536 -43.650  31.097  1.00  0.00    -0.040 I 
ATOM      8  C   UNL     1     -10.357 -44.069  30.132  1.00  0.00     0.034 A 
ATOM      9  C   UNL     1     -11.462 -43.954  29.288  1.00  0.00     0.070 A 
ATOM     10  C   UNL     1     -12.733 -44.603  29.621  1.00  0.00     0.235 A 
ATOM     11  O   UNL     1     -12.901 -45.264  30.640  1.00  0.00    -0.285 OA
ATOM     12  C   UNL     1     -13.849 -44.431  28.659  1.00  0.00     0.208 A 
ENDROOT
BRANCH   1  13
ATOM     13  C   UNL     1     -14.683 -43.452  26.532  1.00  0.00     0.021 A 
ATOM     14  C   UNL     1     -16.678 -42.913  24.604  1.00  0.00     0.118 A 
ATOM     15  C   UNL     1     -16.862 -42.547  25.938  1.00  0.00     0.047 A 
ATOM     16  C   UNL     1     -15.493 -43.544  24.230  1.00  0.00     0.047 A 
ATOM     17  C   UNL     1     -15.875 -42.810  26.893  1.00  0.00     0.016 A 
ATOM     18  C   UNL     1     -14.503 -43.807  25.188  1.00  0.00     0.016 A 
BRANCH  14  19
ATOM     19  O   UNL     1     -17.719 -42.598  23.774  1.00  0.00    -0.497 OA
ATOM     20  C   UNL     1     -17.438 -41.705  22.703  1.00  0.00     0.278 C 
ENDBRANCH  14  19
ENDBRANCH   1  13
BRANCH  12  21
ATOM     21  O   UNL     1     -15.050 -45.036  28.982  1.00  0.00    -0.502 OA
ATOM     22  H   UNL     1     -15.723 -44.326  28.894  1.00  0.00     0.293 HD
ENDBRANCH  12  21
BRANCH   5  23
ATOM     23  O   UNL     1      -7.851 -42.100  28.323  1.00  0.00    -0.496 OA
ATOM     24  C   UNL     1      -7.635 -41.585  27.016  1.00  0.00     0.278 C 
ENDBRANCH   5  23
TORSDOF 4
ENDMDL
MODEL 4
REMARK VINA RESULT:    -8.633      4.946     10.047
REMARK INTER + INTRA:         -10.652
REMARK INTER:                 -10.543
REMARK INTRA:                  -0.109
REMARK UNBOUND:                -0.252
REMARK SMILES COc1ccc(-c2oc3cc(OC)c(I)cc3c(=O)c2O)cc1
REMARK SMILES IDX 7 1 8 2 9 3 10 4 11 5 14 6 15 7 16 8 17 9 18 10 19 11 20 12
REMARK SMILES IDX 6 13 3 14 4 15 23 16 5 17 22 18 2 19 1 20 21 21 12 23 13 24
REMARK H PARENT 21 22
ROOT
ATOM      1  C   UNL     1     -13.288 -44.428  27.501  1.00  0.00     0.180 A 
ATOM      2  O   UNL     1     -12.734 -43.637  28.502  1.00  0.00    -0.452 OA
ATOM      3  C   UNL     1     -11.607 -44.079  29.149  1.00  0.00     0.142 A 
ATOM      4  C   UNL     1     -11.076 -43.244  30.136  1.00  0.00     0.095 A 
ATOM      5  C   UNL     1      -9.929 -43.625  30.842  1.00  0.00     0.135 A 
ATOM      6  C   UNL     1      -9.325 -44.860  30.539  1.00  0.00     0.056 A 
ATOM      7  I   UNL     1      -7.602 -45.529  31.539  1.00  0.00    -0.040 I 
ATOM      8  C   UNL     1      -9.857 -45.696  29.551  1.00  0.00     0.034 A 
ATOM      9  C   UNL     1     -11.000 -45.294  28.860  1.00  0.00     0.070 A 
ATOM     10  C   UNL     1     -11.588 -46.141  27.818  1.00  0.00     0.235 A 
ATOM     11  O   UNL     1     -11.125 -47.232  27.503  1.00  0.00    -0.285 OA
ATOM     12  C   UNL     1     -12.798 -45.625  27.134  1.00  0.00     0.208 A 
ENDROOT
BRANCH   1  13
ATOM     13  C   UNL     1     -14.493 -43.824  26.895  1.00  0.00     0.021 A 
ATOM     14  C   UNL     1     -16.787 -42.609  25.776  1.00  0.00     0.118 A 
ATOM     15  C   UNL     1     -16.640 -42.709  27.160  1.00  0.00     0.047 A 
ATOM     16  C   UNL     1     -15.784 -43.111  24.949  1.00  0.00     0.047 A 
ATOM     17  C   UNL     1     -15.504 -43.307  27.716  1.00  0.00     0.016 A 
ATOM     18  C   UNL     1     -14.646 -43.710  25.506  1.00  0.00     0.016 A 
BRANCH  14  19
ATOM     19  O   UNL     1     -17.943 -42.004  25.365  1.00  0.00    -0.497 OA
ATOM     20  C   UNL     1     -18.411 -42.332  24.063  1.00  0.00     0.278 C 
ENDBRANCH  14  19
ENDBRANCH   1  13
BRANCH  12  21
ATOM     21  O   UNL     1     -13.355 -46.433  26.159  1.00  0.00    -0.502 OA
ATOM     22  H   UNL     1     -13.841 -45.818  25.568  1.00  0.00     0.293 HD
ENDBRANCH  12  21
BRANCH   5  23
ATOM     23  O   UNL     1      -9.344 -42.867  31.823  1.00  0.00    -0.496 OA
ATOM     24  C   UNL     1      -9.914 -42.905  33.125  1.00  0.00     0.278 C 
ENDBRANCH   5  23
TORSDOF 4
ENDMDL
MODEL 5
REMARK VINA RESULT:    -8.191      1.876      2.394
REMARK INTER + INTRA:         -10.119
REMARK INTER:                 -10.139
REMARK INTRA:                   0.020
REMARK UNBOUND:                -0.252
REMARK SMILES COc1ccc(-c2oc3cc(OC)c(I)cc3c(=O)c2O)cc1
REMARK SMILES IDX 7 1 8 2 9 3 10 4 11 5 14 6 15 7 16 8 17 9 18 10 19 11 20 12
REMARK SMILES IDX 6 13 3 14 4 15 23 16 5 17 22 18 2 19 1 20 21 21 12 23 13 24
REMARK H PARENT 21 22
ROOT
ATOM      1  C   UNL     1     -17.578 -42.153  24.203  1.00  0.00     0.180 A 
ATOM      2  O   UNL     1     -18.687 -42.039  25.034  1.00  0.00    -0.452 OA
ATOM      3  C   UNL     1     -19.813 -41.417  24.556  1.00  0.00     0.142 A 
ATOM      4  C   UNL     1     -20.908 -41.339  25.421  1.00  0.00     0.095 A 
ATOM      5  C   UNL     1     -22.093 -40.718  25.007  1.00  0.00     0.135 A 
ATOM      6  C   UNL     1     -22.157 -40.176  23.710  1.00  0.00     0.056 A 
ATOM      7  I   UNL     1     -23.885 -39.222  22.989  1.00  0.00    -0.040 I 
ATOM      8  C   UNL     1     -21.061 -40.253  22.844  1.00  0.00     0.034 A 
ATOM      9  C   UNL     1     -19.892 -40.878  23.279  1.00  0.00     0.070 A 
ATOM     10  C   UNL     1     -18.721 -40.980  22.401  1.00  0.00     0.235 A 
ATOM     11  O   UNL     1     -18.697 -40.527  21.262  1.00  0.00    -0.285 OA
ATOM     12  C   UNL     1     -17.528 -41.669  22.948  1.00  0.00     0.208 A 
ENDROOT
BRANCH   1  13
ATOM     13  C   UNL     1     -16.445 -42.846  24.851  1.00  0.00     0.021 A 
ATOM     14  C   UNL     1     -14.324 -44.201  26.138  1.00  0.00     0.118 A 
ATOM     15  C   UNL     1     -15.219 -43.423  26.873  1.00  0.00     0.047 A 
ATOM     16  C   UNL     1     -14.492 -44.308  24.758  1.00  0.00     0.047 A 
ATOM     17  C   UNL     1     -16.272 -42.754  26.239  1.00  0.00     0.016 A 
ATOM     18  C   UNL     1     -15.547 -43.638  24.123  1.00  0.00     0.016 A 
BRANCH  14  19
ATOM     19  O   UNL     1     -13.344 -44.801  26.879  1.00  0.00    -0.497 OA
ATOM     20  C   UNL     1     -12.525 -43.948  27.670  1.00  0.00     0.278 C 
ENDBRANCH  14  19
ENDBRANCH   1  13
BRANCH  12  21
ATOM     21  O   UNL     1     -16.422 -41.752  22.122  1.00  0.00    -0.502 OA
ATOM     22  H   UNL     1     -16.780 -41.672  21.211  1.00  0.00     0.293 HD
ENDBRANCH  12  21
BRANCH   5  23
ATOM     23  O   UNL     1     -23.211 -40.599  25.790  1.00  0.00    -0.496 OA
ATOM     24  C   UNL     1     -23.046 -40.138  27.125  1.00  0.00     0.278 C 
ENDBRANCH   5  23
TORSDOF 4
ENDMDL
MODEL 6
REMARK VINA RESULT:    -8.030      2.025      3.358
REMARK INTER + INTRA:          -9.925
REMARK INTER:                 -10.147
REMARK INTRA:                   0.221
REMARK UNBOUND:                -0.252
REMARK SMILES COc1ccc(-c2oc3cc(OC)c(I)cc3c(=O)c2O)cc1
REMARK SMILES IDX 7 1 8 2 9 3 10 4 11 5 14 6 15 7 16 8 17 9 18 10 19 11 20 12
REMARK SMILES IDX 6 13 3 14 4 15 23 16 5 17 22 18 2 19 1 20 21 21 12 23 13 24
REMARK H PARENT 21 22
ROOT
ATOM      1  C   UNL     1     -18.116 -42.165  25.403  1.00  0.00     0.180 A 
ATOM      2  O   UNL     1     -18.257 -41.813  24.065  1.00  0.00    -0.452 OA
ATOM      3  C   UNL     1     -19.429 -41.230  23.653  1.00  0.00     0.142 A 
ATOM      4  C   UNL     1     -19.521 -40.879  22.304  1.00  0.00     0.095 A 
ATOM      5  C   UNL     1     -20.685 -40.281  21.806  1.00  0.00     0.135 A 
ATOM      6  C   UNL     1     -21.755 -40.042  22.688  1.00  0.00     0.056 A 
ATOM      7  I   UNL     1     -23.547 -39.152  22.046  1.00  0.00    -0.040 I 
ATOM      8  C   UNL     1     -21.664 -40.393  24.040  1.00  0.00     0.034 A 
ATOM      9  C   UNL     1     -20.493 -40.987  24.512  1.00  0.00     0.070 A 
ATOM     10  C   UNL     1     -20.358 -41.370  25.921  1.00  0.00     0.235 A 
ATOM     11  O   UNL     1     -21.247 -41.201  26.748  1.00  0.00    -0.285 OA
ATOM     12  C   UNL     1     -19.074 -41.987  26.331  1.00  0.00     0.208 A 
ENDROOT
BRANCH   1  13
ATOM     13  C   UNL     1     -16.804 -42.779  25.698  1.00  0.00     0.021 A 
ATOM     14  C   UNL     1     -14.329 -43.998  26.312  1.00  0.00     0.118 A 
ATOM     15  C   UNL     1     -15.127 -43.462  27.324  1.00  0.00     0.047 A 
ATOM     16  C   UNL     1     -14.771 -43.931  24.992  1.00  0.00     0.047 A 
ATOM     17  C   UNL     1     -16.354 -42.862  27.023  1.00  0.00     0.016 A 
ATOM     18  C   UNL     1     -16.000 -43.329  24.691  1.00  0.00     0.016 A 
BRANCH  14  19
ATOM     19  O   UNL     1     -13.157 -44.556  26.743  1.00  0.00    -0.497 OA
ATOM     20  C   UNL     1     -13.031 -44.785  28.140  1.00  0.00     0.278 C 
ENDBRANCH  14  19
ENDBRANCH   1  13
BRANCH  12  21
ATOM     21  O   UNL     1     -18.955 -42.357  27.658  1.00  0.00    -0.502 OA
ATOM     22  H   UNL     1     -18.092 -41.989  27.948  1.00  0.00     0.293 HD
ENDBRANCH  12  21
BRANCH   5  23
ATOM     23  O   UNL     1     -20.857 -39.906  20.499  1.00  0.00    -0.496 OA
ATOM     24  C   UNL     1     -19.769 -39.275  19.836  1.00  0.00     0.278 C 
ENDBRANCH   5  23
TORSDOF 4
ENDMDL
MODEL 7
REMARK VINA RESULT:    -7.782      2.036      2.878
REMARK INTER + INTRA:          -9.627
REMARK INTER:                  -9.452
REMARK INTRA:                  -0.175
REMARK UNBOUND:                -0.252
REMARK SMILES COc1ccc(-c2oc3cc(OC)c(I)cc3c(=O)c2O)cc1
REMARK SMILES IDX 7 1 8 2 9 3 10 4 11 5 14 6 15 7 16 8 17 9 18 10 19 11 20 12
REMARK SMILES IDX 6 13 3 14 4 15 23 16 5 17 22 18 2 19 1 20 21 21 12 23 13 24
REMARK H PARENT 21 22
ROOT
ATOM      1  C   UNL     1     -18.747 -41.743  22.644  1.00  0.00     0.180 A 
ATOM      2  O   UNL     1     -20.002 -42.343  22.656  1.00  0.00    -0.452 OA
ATOM      3  C   UNL     1     -20.903 -42.014  21.676  1.00  0.00     0.142 A 
ATOM      4  C   UNL     1     -22.145 -42.654  21.718  1.00  0.00     0.095 A 
ATOM      5  C   UNL     1     -23.120 -42.371  20.753  1.00  0.00     0.135 A 
ATOM      6  C   UNL     1     -22.824 -41.434  19.745  1.00  0.00     0.056 A 
ATOM      7  I   UNL     1     -24.214 -40.935  18.250  1.00  0.00    -0.040 I 
ATOM      8  C   UNL     1     -21.580 -40.794  19.702  1.00  0.00     0.034 A 
ATOM      9  C   UNL     1     -20.626 -41.093  20.675  1.00  0.00     0.070 A 
ATOM     10  C   UNL     1     -19.311 -40.444  20.664  1.00  0.00     0.235 A 
ATOM     11  O   UNL     1     -18.982 -39.613  19.825  1.00  0.00    -0.285 OA
ATOM     12  C   UNL     1     -18.360 -40.833  21.733  1.00  0.00     0.208 A 
ENDROOT
BRANCH   1  13
ATOM     13  C   UNL     1     -17.885 -42.195  23.757  1.00  0.00     0.021 A 
ATOM     14  C   UNL     1     -16.184 -43.014  25.861  1.00  0.00     0.118 A 
ATOM     15  C   UNL     1     -15.759 -43.087  24.534  1.00  0.00     0.047 A 
ATOM     16  C   UNL     1     -17.459 -42.524  26.139  1.00  0.00     0.047 A 
ATOM     17  C   UNL     1     -16.597 -42.680  23.491  1.00  0.00     0.016 A 
ATOM     18  C   UNL     1     -18.299 -42.115  25.094  1.00  0.00     0.016 A 
BRANCH  14  19
ATOM     19  O   UNL     1     -15.268 -43.443  26.781  1.00  0.00    -0.497 OA
ATOM     20  C   UNL     1     -14.307 -44.392  26.334  1.00  0.00     0.278 C 
ENDBRANCH  14  19
ENDBRANCH   1  13
BRANCH  12  21
ATOM     21  O   UNL     1     -17.125 -40.209  21.726  1.00  0.00    -0.502 OA
ATOM     22  H   UNL     1     -16.841 -40.199  22.666  1.00  0.00     0.293 HD
ENDBRANCH  12  21
BRANCH   5  23
ATOM     23  O   UNL     1     -24.361 -42.952  20.722  1.00  0.00    -0.496 OA
ATOM     24  C   UNL     1     -24.451 -44.347  20.978  1.00  0.00     0.278 C 
ENDBRANCH   5  23
TORSDOF 4
ENDMDL
MODEL 8
REMARK VINA RESULT:    -7.389      3.726      5.531
REMARK INTER + INTRA:          -9.153
REMARK INTER:                  -8.918
REMARK INTRA:                  -0.235
REMARK UNBOUND:                -0.252
REMARK SMILES COc1ccc(-c2oc3cc(OC)c(I)cc3c(=O)c2O)cc1
REMARK SMILES IDX 7 1 8 2 9 3 10 4 11 5 14 6 15 7 16 8 17 9 18 10 19 11 20 12
REMARK SMILES IDX 6 13 3 14 4 15 23 16 5 17 22 18 2 19 1 20 21 21 12 23 13 24
REMARK H PARENT 21 22
ROOT
ATOM      1  C   UNL     1     -20.283 -42.402  26.255  1.00  0.00     0.180 A 
ATOM      2  O   UNL     1     -20.830 -41.248  26.804  1.00  0.00    -0.452 OA
ATOM      3  C   UNL     1     -22.188 -41.065  26.746  1.00  0.00     0.142 A 
ATOM      4  C   UNL     1     -22.695 -39.899  27.325  1.00  0.00     0.095 A 
ATOM      5  C   UNL     1     -24.071 -39.640  27.306  1.00  0.00     0.135 A 
ATOM      6  C   UNL     1     -24.928 -40.573  26.694  1.00  0.00     0.056 A 
ATOM      7  I   UNL     1     -27.007 -40.282  26.608  1.00  0.00    -0.040 I 
ATOM      8  C   UNL     1     -24.421 -41.742  26.114  1.00  0.00     0.034 A 
ATOM      9  C   UNL     1     -23.046 -41.978  26.147  1.00  0.00     0.070 A 
ATOM     10  C   UNL     1     -22.476 -43.190  25.551  1.00  0.00     0.235 A 
ATOM     11  O   UNL     1     -23.156 -44.045  24.994  1.00  0.00    -0.285 OA
ATOM     12  C   UNL     1     -21.006 -43.357  25.642  1.00  0.00     0.208 A 
ENDROOT
BRANCH   1  13
ATOM     13  C   UNL     1     -18.812 -42.461  26.392  1.00  0.00     0.021 A 
ATOM     14  C   UNL     1     -16.007 -42.631  26.702  1.00  0.00     0.118 A 
ATOM     15  C   UNL     1     -16.840 -42.528  27.817  1.00  0.00     0.047 A 
ATOM     16  C   UNL     1     -16.577 -42.655  25.430  1.00  0.00     0.047 A 
ATOM     17  C   UNL     1     -18.229 -42.448  27.667  1.00  0.00     0.016 A 
ATOM     18  C   UNL     1     -17.968 -42.575  25.279  1.00  0.00     0.016 A 
BRANCH  14  19
ATOM     19  O   UNL     1     -14.672 -42.703  26.989  1.00  0.00    -0.497 OA
ATOM     20  C   UNL     1     -13.962 -43.817  26.462  1.00  0.00     0.278 C 
ENDBRANCH  14  19
ENDBRANCH   1  13
BRANCH  12  21
ATOM     21  O   UNL     1     -20.471 -44.496  25.068  1.00  0.00    -0.502 OA
ATOM     22  H   UNL     1     -19.574 -44.232  24.769  1.00  0.00     0.293 HD
ENDBRANCH  12  21
BRANCH   5  23
ATOM     23  O   UNL     1     -24.650 -38.523  27.850  1.00  0.00    -0.496 OA
ATOM     24  C   UNL     1     -24.262 -37.254  27.339  1.00  0.00     0.278 C 
ENDBRANCH   5  23
TORSDOF 4
ENDMDL
MODEL 9
REMARK VINA RESULT:    -7.215      4.103      8.131
REMARK INTER + INTRA:          -8.944
REMARK INTER:                  -8.531
REMARK INTRA:                  -0.412
REMARK UNBOUND:                -0.252
REMARK SMILES COc1ccc(-c2oc3cc(OC)c(I)cc3c(=O)c2O)cc1
REMARK SMILES IDX 7 1 8 2 9 3 10 4 11 5 14 6 15 7 16 8 17 9 18 10 19 11 20 12
REMARK SMILES IDX 6 13 3 14 4 15 23 16 5 17 22 18 2 19 1 20 21 21 12 23 13 24
REMARK H PARENT 21 22
ROOT
ATOM      1  C   UNL     1     -21.226 -41.360  26.348  1.00  0.00     0.180 A 
ATOM      2  O   UNL     1     -20.204 -41.717  27.221  1.00  0.00    -0.452 OA
ATOM      3  C   UNL     1     -18.977 -42.050  26.706  1.00  0.00     0.142 A 
ATOM      4  C   UNL     1     -17.976 -42.387  27.621  1.00  0.00     0.095 A 
ATOM      5  C   UNL     1     -16.697 -42.739  27.173  1.00  0.00     0.135 A 
ATOM      6  C   UNL     1     -16.442 -42.747  25.789  1.00  0.00     0.056 A 
ATOM      7  I   UNL     1     -14.560 -43.262  25.009  1.00  0.00    -0.040 I 
ATOM      8  C   UNL     1     -17.444 -42.410  24.872  1.00  0.00     0.034 A 
ATOM      9  C   UNL     1     -18.710 -42.061  25.343  1.00  0.00     0.070 A 
ATOM     10  C   UNL     1     -19.786 -41.702  24.415  1.00  0.00     0.235 A 
ATOM     11  O   UNL     1     -19.644 -41.693  23.197  1.00  0.00    -0.285 OA
ATOM     12  C   UNL     1     -21.095 -41.337  25.009  1.00  0.00     0.208 A 
ENDROOT
BRANCH   1  13
ATOM     13  C   UNL     1     -22.486 -41.027  27.046  1.00  0.00     0.021 A 
ATOM     14  C   UNL     1     -24.910 -40.341  28.327  1.00  0.00     0.118 A 
ATOM     15  C   UNL     1     -23.985 -39.355  27.984  1.00  0.00     0.047 A 
ATOM     16  C   UNL     1     -24.627 -41.672  28.024  1.00  0.00     0.047 A 
ATOM     17  C   UNL     1     -22.786 -39.691  27.347  1.00  0.00     0.016 A 
ATOM     18  C   UNL     1     -23.426 -42.009  27.385  1.00  0.00     0.016 A 
BRANCH  14  19
ATOM     19  O   UNL     1     -26.039 -39.878  28.944  1.00  0.00    -0.497 OA
ATOM     20  C   UNL     1     -26.162 -38.468  29.082  1.00  0.00     0.278 C 
ENDBRANCH  14  19
ENDBRANCH   1  13
BRANCH  12  21
ATOM     21  O   UNL     1     -22.111 -41.010  24.130  1.00  0.00    -0.502 OA
ATOM     22  H   UNL     1     -22.925 -41.381  24.533  1.00  0.00     0.293 HD
ENDBRANCH  12  21
BRANCH   5  23
ATOM     23  O   UNL     1     -15.661 -43.082  28.001  1.00  0.00    -0.496 OA
ATOM     24  C   UNL     1     -15.971 -43.476  29.331  1.00  0.00     0.278 C 
ENDBRANCH   5  23
TORSDOF 4
ENDMDL
