MODEL 1
REMARK VINA RESULT:   -11.533      0.000      0.000
REMARK INTER + INTRA:         -16.204
REMARK INTER:                 -15.578
REMARK INTRA:                  -0.626
REMARK UNBOUND:                -0.626
REMARK SMILES COc1cc2c(cc1OC)C(=O)[C@H](C[C@H]1CC[N@@H+](Cc3ccccc3)CC1)C2
REMARK SMILES IDX 14 1 15 2 17 3 18 4 16 5 26 6 27 7 19 9 20 10 21 11 25 12
REMARK SMILES IDX 22 13 24 14 23 15 13 16 11 17 28 18 6 19 5 20 7 21 4 22 8 23
REMARK SMILES IDX 3 24 12 25 9 26 10 27 2 28 1 29
REMARK H PARENT 18 8
ROOT
ATOM      1  C   UNL     1     -14.500 -44.414  27.522  1.00  0.00     0.016 C 
ENDROOT
BRANCH   1   2
ATOM      2  C   UNL     1     -12.993 -44.751  27.310  1.00  0.00     0.001 C 
ATOM      3  C   UNL     1     -12.184 -46.370  29.144  1.00  0.00     0.262 C 
ATOM      4  N   UNL     1     -11.341 -45.261  29.711  1.00  0.00    -0.331 N 
ATOM      5  C   UNL     1     -12.474 -46.148  27.668  1.00  0.00     0.065 C 
ATOM      6  C   UNL     1     -11.883 -43.879  29.430  1.00  0.00     0.262 C 
ATOM      7  C   UNL     1     -12.073 -43.692  27.934  1.00  0.00     0.065 C 
ATOM      8  H   UNL     1     -10.415 -45.312  29.270  1.00  0.00     0.348 HD
BRANCH   4   9
ATOM      9  C   UNL     1     -11.119 -45.479  31.197  1.00  0.00     0.299 C 
BRANCH   9  10
ATOM     10  C   UNL     1      -9.799 -44.943  31.682  1.00  0.00     0.006 A 
ATOM     11  C   UNL     1      -8.602 -45.608  31.372  1.00  0.00     0.009 A 
ATOM     12  C   UNL     1      -9.744 -43.759  32.433  1.00  0.00     0.009 A 
ATOM     13  C   UNL     1      -7.377 -45.093  31.799  1.00  0.00     0.001 A 
ATOM     14  C   UNL     1      -8.518 -43.249  32.858  1.00  0.00     0.001 A 
ATOM     15  C   UNL     1      -7.336 -43.915  32.540  1.00  0.00     0.000 A 
ENDBRANCH   9  10
ENDBRANCH   4   9
ENDBRANCH   1   2
BRANCH   1  16
ATOM     16  C   UNL     1     -15.103 -43.140  26.917  1.00  0.00     0.066 C 
ATOM     17  C   UNL     1     -15.446 -43.307  25.441  1.00  0.00     0.166 C 
ATOM     18  C   UNL     1     -16.473 -42.777  27.557  1.00  0.00     0.048 C 
ATOM     19  C   UNL     1     -16.783 -42.795  25.183  1.00  0.00     0.025 A 
ATOM     20  C   UNL     1     -17.358 -42.454  26.397  1.00  0.00    -0.033 A 
ATOM     21  C   UNL     1     -17.426 -42.638  23.968  1.00  0.00     0.062 A 
ATOM     22  C   UNL     1     -18.640 -41.928  26.431  1.00  0.00     0.055 A 
ATOM     23  C   UNL     1     -18.717 -42.104  23.985  1.00  0.00     0.161 A 
ATOM     24  C   UNL     1     -19.327 -41.745  25.219  1.00  0.00     0.161 A 
ATOM     25  O   UNL     1     -14.716 -43.768  24.580  1.00  0.00    -0.294 OA
BRANCH  23  26
ATOM     26  O   UNL     1     -19.475 -41.886  22.861  1.00  0.00    -0.493 OA
ATOM     27  C   UNL     1     -19.149 -40.770  22.044  1.00  0.00     0.278 C 
ENDBRANCH  23  26
BRANCH  24  28
ATOM     28  O   UNL     1     -20.596 -41.230  25.125  1.00  0.00    -0.493 OA
ATOM     29  C   UNL     1     -21.299 -40.962  26.330  1.00  0.00     0.278 C 
ENDBRANCH  24  28
ENDBRANCH   1  16
TORSDOF 6
ENDMDL
MODEL 2
REMARK VINA RESULT:   -11.081      1.489      2.599
REMARK INTER + INTRA:         -15.593
REMARK INTER:                 -14.966
REMARK INTRA:                  -0.627
REMARK UNBOUND:                -0.626
REMARK SMILES COc1cc2c(cc1OC)C(=O)[C@H](C[C@H]1CC[N@@H+](Cc3ccccc3)CC1)C2
REMARK SMILES IDX 14 1 15 2 17 3 18 4 16 5 26 6 27 7 19 9 20 10 21 11 25 12
REMARK SMILES IDX 22 13 24 14 23 15 13 16 11 17 28 18 6 19 5 20 7 21 4 22 8 23
REMARK SMILES IDX 3 24 12 25 9 26 10 27 2 28 1 29
REMARK H PARENT 18 8
ROOT
ATOM      1  C   UNL     1     -12.960 -43.236  26.917  1.00  0.00     0.016 C 
ENDROOT
BRANCH   1   2
ATOM      2  C   UNL     1     -11.973 -44.181  27.667  1.00  0.00     0.001 C 
ATOM      3  C   UNL     1     -12.847 -44.666  30.042  1.00  0.00     0.262 C 
ATOM      4  N   UNL     1     -11.706 -43.857  30.595  1.00  0.00    -0.331 N 
ATOM      5  C   UNL     1     -12.521 -45.211  28.660  1.00  0.00     0.065 C 
ATOM      6  C   UNL     1     -11.205 -42.786  29.656  1.00  0.00     0.262 C 
ATOM      7  C   UNL     1     -10.820 -43.407  28.322  1.00  0.00     0.065 C 
ATOM      8  H   UNL     1     -10.920 -44.495  30.764  1.00  0.00     0.348 HD
BRANCH   4   9
ATOM      9  C   UNL     1     -12.083 -43.278  31.948  1.00  0.00     0.299 C 
BRANCH   9  10
ATOM     10  C   UNL     1     -10.890 -42.966  32.810  1.00  0.00     0.006 A 
ATOM     11  C   UNL     1      -9.612 -43.422  32.450  1.00  0.00     0.009 A 
ATOM     12  C   UNL     1     -11.035 -42.197  33.975  1.00  0.00     0.009 A 
ATOM     13  C   UNL     1      -8.503 -43.108  33.237  1.00  0.00     0.001 A 
ATOM     14  C   UNL     1      -9.923 -41.886  34.758  1.00  0.00     0.001 A 
ATOM     15  C   UNL     1      -8.659 -42.340  34.388  1.00  0.00     0.000 A 
ENDBRANCH   9  10
ENDBRANCH   4   9
ENDBRANCH   1   2
BRANCH   1  16
ATOM     16  C   UNL     1     -14.258 -43.789  26.315  1.00  0.00     0.066 C 
ATOM     17  C   UNL     1     -15.496 -43.271  27.036  1.00  0.00     0.166 C 
ATOM     18  C   UNL     1     -14.477 -43.310  24.852  1.00  0.00     0.048 C 
ATOM     19  C   UNL     1     -16.483 -42.821  26.066  1.00  0.00     0.025 A 
ATOM     20  C   UNL     1     -15.908 -42.881  24.806  1.00  0.00    -0.033 A 
ATOM     21  C   UNL     1     -17.782 -42.404  26.289  1.00  0.00     0.062 A 
ATOM     22  C   UNL     1     -16.646 -42.509  23.693  1.00  0.00     0.055 A 
ATOM     23  C   UNL     1     -18.541 -42.031  25.176  1.00  0.00     0.161 A 
ATOM     24  C   UNL     1     -17.973 -42.086  23.872  1.00  0.00     0.161 A 
ATOM     25  O   UNL     1     -15.672 -43.256  28.243  1.00  0.00    -0.294 OA
BRANCH  23  26
ATOM     26  O   UNL     1     -19.843 -41.602  25.240  1.00  0.00    -0.493 OA
ATOM     27  C   UNL     1     -20.397 -41.340  26.522  1.00  0.00     0.278 C 
ENDBRANCH  23  26
BRANCH  24  28
ATOM     28  O   UNL     1     -18.802 -41.699  22.848  1.00  0.00    -0.493 OA
ATOM     29  C   UNL     1     -18.354 -40.668  21.980  1.00  0.00     0.278 C 
ENDBRANCH  24  28
ENDBRANCH   1  16
TORSDOF 6
ENDMDL
MODEL 3
REMARK VINA RESULT:   -10.446      1.378      2.188
REMARK INTER + INTRA:         -14.736
REMARK INTER:                 -14.356
REMARK INTRA:                  -0.380
REMARK UNBOUND:                -0.626
REMARK SMILES COc1cc2c(cc1OC)C(=O)[C@H](C[C@H]1CC[N@@H+](Cc3ccccc3)CC1)C2
REMARK SMILES IDX 14 1 15 2 17 3 18 4 16 5 26 6 27 7 19 9 20 10 21 11 25 12
REMARK SMILES IDX 22 13 24 14 23 15 13 16 11 17 28 18 6 19 5 20 7 21 4 22 8 23
REMARK SMILES IDX 3 24 12 25 9 26 10 27 2 28 1 29
REMARK H PARENT 18 8
ROOT
ATOM      1  C   UNL     1     -14.557 -44.340  27.366  1.00  0.00     0.016 C 
ENDROOT
BRANCH   1   2
ATOM      2  C   UNL     1     -13.073 -44.729  27.088  1.00  0.00     0.001 C 
ATOM      3  C   UNL     1     -12.188 -46.239  28.980  1.00  0.00     0.262 C 
ATOM      4  N   UNL     1     -11.288 -45.115  29.416  1.00  0.00    -0.331 N 
ATOM      5  C   UNL     1     -12.563 -46.110  27.511  1.00  0.00     0.065 C 
ATOM      6  C   UNL     1     -11.817 -43.742  29.073  1.00  0.00     0.262 C 
ATOM      7  C   UNL     1     -12.094 -43.653  27.581  1.00  0.00     0.065 C 
ATOM      8  H   UNL     1     -10.393 -45.219  28.925  1.00  0.00     0.348 HD
BRANCH   4   9
ATOM      9  C   UNL     1     -10.980 -45.237  30.898  1.00  0.00     0.299 C 
BRANCH   9  10
ATOM     10  C   UNL     1     -11.859 -44.369  31.757  1.00  0.00     0.006 A 
ATOM     11  C   UNL     1     -13.218 -44.678  31.928  1.00  0.00     0.009 A 
ATOM     12  C   UNL     1     -11.328 -43.250  32.416  1.00  0.00     0.009 A 
ATOM     13  C   UNL     1     -14.024 -43.888  32.748  1.00  0.00     0.001 A 
ATOM     14  C   UNL     1     -12.139 -42.462  33.234  1.00  0.00     0.001 A 
ATOM     15  C   UNL     1     -13.484 -42.782  33.401  1.00  0.00     0.000 A 
ENDBRANCH   9  10
ENDBRANCH   4   9
ENDBRANCH   1   2
BRANCH   1  16
ATOM     16  C   UNL     1     -15.158 -43.075  26.740  1.00  0.00     0.066 C 
ATOM     17  C   UNL     1     -15.464 -43.253  25.258  1.00  0.00     0.166 C 
ATOM     18  C   UNL     1     -16.547 -42.723  27.345  1.00  0.00     0.048 C 
ATOM     19  C   UNL     1     -16.799 -42.755  24.964  1.00  0.00     0.025 A 
ATOM     20  C   UNL     1     -17.406 -42.414  26.162  1.00  0.00    -0.033 A 
ATOM     21  C   UNL     1     -17.413 -42.611  23.733  1.00  0.00     0.062 A 
ATOM     22  C   UNL     1     -18.694 -41.902  26.161  1.00  0.00     0.055 A 
ATOM     23  C   UNL     1     -18.710 -42.091  23.716  1.00  0.00     0.161 A 
ATOM     24  C   UNL     1     -19.353 -41.732  24.933  1.00  0.00     0.161 A 
ATOM     25  O   UNL     1     -14.707 -43.710  24.417  1.00  0.00    -0.294 OA
BRANCH  23  26
ATOM     26  O   UNL     1     -19.443 -41.886  22.573  1.00  0.00    -0.493 OA
ATOM     27  C   UNL     1     -19.258 -40.663  21.873  1.00  0.00     0.278 C 
ENDBRANCH  23  26
BRANCH  24  28
ATOM     28  O   UNL     1     -20.625 -41.231  24.806  1.00  0.00    -0.493 OA
ATOM     29  C   UNL     1     -21.708 -42.038  25.245  1.00  0.00     0.278 C 
ENDBRANCH  24  28
ENDBRANCH   1  16
TORSDOF 6
ENDMDL
MODEL 4
REMARK VINA RESULT:   -10.331      1.760      3.083
REMARK INTER + INTRA:         -14.581
REMARK INTER:                 -14.073
REMARK INTRA:                  -0.507
REMARK UNBOUND:                -0.626
REMARK SMILES COc1cc2c(cc1OC)C(=O)[C@H](C[C@H]1CC[N@@H+](Cc3ccccc3)CC1)C2
REMARK SMILES IDX 14 1 15 2 17 3 18 4 16 5 26 6 27 7 19 9 20 10 21 11 25 12
REMARK SMILES IDX 22 13 24 14 23 15 13 16 11 17 28 18 6 19 5 20 7 21 4 22 8 23
REMARK SMILES IDX 3 24 12 25 9 26 10 27 2 28 1 29
REMARK H PARENT 18 8
ROOT
ATOM      1  C   UNL     1     -13.628 -43.281  27.187  1.00  0.00     0.016 C 
ENDROOT
BRANCH   1   2
ATOM      2  C   UNL     1     -12.387 -44.224  27.173  1.00  0.00     0.001 C 
ATOM      3  C   UNL     1     -12.626 -46.025  28.999  1.00  0.00     0.262 C 
ATOM      4  N   UNL     1     -11.497 -45.374  29.749  1.00  0.00    -0.331 N 
ATOM      5  C   UNL     1     -12.562 -45.707  27.514  1.00  0.00     0.065 C 
ATOM      6  C   UNL     1     -11.360 -43.894  29.481  1.00  0.00     0.262 C 
ATOM      7  C   UNL     1     -11.218 -43.649  27.987  1.00  0.00     0.065 C 
ATOM      8  H   UNL     1     -10.621 -45.813  29.443  1.00  0.00     0.348 HD
BRANCH   4   9
ATOM      9  C   UNL     1     -11.621 -45.660  31.235  1.00  0.00     0.299 C 
BRANCH   9  10
ATOM     10  C   UNL     1     -12.300 -44.552  31.995  1.00  0.00     0.006 A 
ATOM     11  C   UNL     1     -11.545 -43.529  32.591  1.00  0.00     0.009 A 
ATOM     12  C   UNL     1     -13.698 -44.514  32.101  1.00  0.00     0.009 A 
ATOM     13  C   UNL     1     -12.178 -42.488  33.271  1.00  0.00     0.001 A 
ATOM     14  C   UNL     1     -14.327 -43.472  32.782  1.00  0.00     0.001 A 
ATOM     15  C   UNL     1     -13.568 -42.460  33.365  1.00  0.00     0.000 A 
ENDBRANCH   9  10
ENDBRANCH   4   9
ENDBRANCH   1   2
BRANCH   1  16
ATOM     16  C   UNL     1     -14.989 -43.781  26.687  1.00  0.00     0.066 C 
ATOM     17  C   UNL     1     -16.151 -43.022  27.316  1.00  0.00     0.166 C 
ATOM     18  C   UNL     1     -15.185 -43.525  25.165  1.00  0.00     0.048 C 
ATOM     19  C   UNL     1     -17.103 -42.632  26.288  1.00  0.00     0.025 A 
ATOM     20  C   UNL     1     -16.564 -42.958  25.054  1.00  0.00    -0.033 A 
ATOM     21  C   UNL     1     -18.347 -42.047  26.443  1.00  0.00     0.062 A 
ATOM     22  C   UNL     1     -17.280 -42.695  23.896  1.00  0.00     0.055 A 
ATOM     23  C   UNL     1     -19.084 -41.781  25.285  1.00  0.00     0.161 A 
ATOM     24  C   UNL     1     -18.551 -42.108  24.007  1.00  0.00     0.161 A 
ATOM     25  O   UNL     1     -16.300 -42.792  28.505  1.00  0.00    -0.294 OA
BRANCH  23  26
ATOM     26  O   UNL     1     -20.332 -41.210  25.281  1.00  0.00    -0.493 OA
ATOM     27  C   UNL     1     -21.061 -41.192  26.501  1.00  0.00     0.278 C 
ENDBRANCH  23  26
BRANCH  24  28
ATOM     28  O   UNL     1     -19.355 -41.805  22.935  1.00  0.00    -0.493 OA
ATOM     29  C   UNL     1     -18.965 -40.733  22.090  1.00  0.00     0.278 C 
ENDBRANCH  24  28
ENDBRANCH   1  16
TORSDOF 6
ENDMDL
MODEL 5
REMARK VINA RESULT:   -10.173      3.875      9.748
REMARK INTER + INTRA:         -14.367
REMARK INTER:                 -14.197
REMARK INTRA:                  -0.170
REMARK UNBOUND:                -0.626
REMARK SMILES COc1cc2c(cc1OC)C(=O)[C@H](C[C@H]1CC[N@@H+](Cc3ccccc3)CC1)C2
REMARK SMILES IDX 14 1 15 2 17 3 18 4 16 5 26 6 27 7 19 9 20 10 21 11 25 12
REMARK SMILES IDX 22 13 24 14 23 15 13 16 11 17 28 18 6 19 5 20 7 21 4 22 8 23
REMARK SMILES IDX 3 24 12 25 9 26 10 27 2 28 1 29
REMARK H PARENT 18 8
ROOT
ATOM      1  C   UNL     1     -13.476 -45.361  29.198  1.00  0.00     0.016 C 
ENDROOT
BRANCH   1   2
ATOM      2  C   UNL     1     -12.656 -45.191  27.883  1.00  0.00     0.001 C 
ATOM      3  C   UNL     1     -13.021 -42.831  26.915  1.00  0.00     0.262 C 
ATOM      4  N   UNL     1     -13.779 -43.449  25.772  1.00  0.00    -0.331 N 
ATOM      5  C   UNL     1     -12.054 -43.824  27.541  1.00  0.00     0.065 C 
ATOM      6  C   UNL     1     -14.442 -44.761  26.119  1.00  0.00     0.262 C 
ATOM      7  C   UNL     1     -13.409 -45.735  26.661  1.00  0.00     0.065 C 
ATOM      8  H   UNL     1     -13.110 -43.645  25.019  1.00  0.00     0.348 HD
BRANCH   4   9
ATOM      9  C   UNL     1     -14.777 -42.454  25.207  1.00  0.00     0.299 C 
BRANCH   9  10
ATOM     10  C   UNL     1     -16.098 -42.468  25.929  1.00  0.00     0.006 A 
ATOM     11  C   UNL     1     -17.302 -42.537  25.211  1.00  0.00     0.009 A 
ATOM     12  C   UNL     1     -16.143 -42.432  27.331  1.00  0.00     0.009 A 
ATOM     13  C   UNL     1     -18.524 -42.579  25.883  1.00  0.00     0.001 A 
ATOM     14  C   UNL     1     -17.368 -42.473  27.999  1.00  0.00     0.001 A 
ATOM     15  C   UNL     1     -18.556 -42.548  27.276  1.00  0.00     0.000 A 
ENDBRANCH   9  10
ENDBRANCH   4   9
ENDBRANCH   1   2
BRANCH   1  16
ATOM     16  C   UNL     1     -12.758 -45.509  30.546  1.00  0.00     0.066 C 
ATOM     17  C   UNL     1     -11.259 -45.730  30.382  1.00  0.00     0.166 C 
ATOM     18  C   UNL     1     -12.831 -44.209  31.396  1.00  0.00     0.048 C 
ATOM     19  C   UNL     1     -10.528 -44.856  31.288  1.00  0.00     0.025 A 
ATOM     20  C   UNL     1     -11.438 -44.009  31.899  1.00  0.00    -0.033 A 
ATOM     21  C   UNL     1      -9.170 -44.829  31.549  1.00  0.00     0.062 A 
ATOM     22  C   UNL     1     -10.997 -43.074  32.823  1.00  0.00     0.055 A 
ATOM     23  C   UNL     1      -8.711 -43.896  32.482  1.00  0.00     0.161 A 
ATOM     24  C   UNL     1      -9.627 -43.016  33.125  1.00  0.00     0.161 A 
ATOM     25  O   UNL     1     -10.728 -46.534  29.635  1.00  0.00    -0.294 OA
BRANCH  23  26
ATOM     26  O   UNL     1      -7.395 -43.755  32.848  1.00  0.00    -0.493 OA
ATOM     27  C   UNL     1      -6.510 -44.834  32.582  1.00  0.00     0.278 C 
ENDBRANCH  23  26
BRANCH  24  28
ATOM     28  O   UNL     1      -9.073 -42.138  34.023  1.00  0.00    -0.493 OA
ATOM     29  C   UNL     1      -9.732 -41.951  35.267  1.00  0.00     0.278 C 
ENDBRANCH  24  28
ENDBRANCH   1  16
TORSDOF 6
ENDMDL
MODEL 6
REMARK VINA RESULT:    -9.985      3.139     10.577
REMARK INTER + INTRA:         -14.113
REMARK INTER:                 -14.030
REMARK INTRA:                  -0.083
REMARK UNBOUND:                -0.626
REMARK SMILES COc1cc2c(cc1OC)C(=O)[C@H](C[C@H]1CC[N@@H+](Cc3ccccc3)CC1)C2
REMARK SMILES IDX 14 1 15 2 17 3 18 4 16 5 26 6 27 7 19 9 20 10 21 11 25 12
REMARK SMILES IDX 22 13 24 14 23 15 13 16 11 17 28 18 6 19 5 20 7 21 4 22 8 23
REMARK SMILES IDX 3 24 12 25 9 26 10 27 2 28 1 29
REMARK H PARENT 18 8
ROOT
ATOM      1  C   UNL     1     -14.645 -44.366  26.477  1.00  0.00     0.016 C 
ENDROOT
BRANCH   1   2
ATOM      2  C   UNL     1     -15.085 -42.877  26.338  1.00  0.00     0.001 C 
ATOM      3  C   UNL     1     -17.655 -42.722  26.240  1.00  0.00     0.262 C 
ATOM      4  N   UNL     1     -17.546 -42.303  24.800  1.00  0.00    -0.331 N 
ATOM      5  C   UNL     1     -16.380 -42.407  27.007  1.00  0.00     0.065 C 
ATOM      6  C   UNL     1     -16.310 -42.824  24.105  1.00  0.00     0.262 C 
ATOM      7  C   UNL     1     -15.068 -42.407  24.876  1.00  0.00     0.065 C 
ATOM      8  H   UNL     1     -17.492 -41.278  24.773  1.00  0.00     0.348 HD
BRANCH   4   9
ATOM      9  C   UNL     1     -18.809 -42.684  24.047  1.00  0.00     0.299 C 
BRANCH   9  10
ATOM     10  C   UNL     1     -19.450 -41.519  23.343  1.00  0.00     0.006 A 
ATOM     11  C   UNL     1     -20.684 -41.012  23.781  1.00  0.00     0.009 A 
ATOM     12  C   UNL     1     -18.814 -40.909  22.251  1.00  0.00     0.009 A 
ATOM     13  C   UNL     1     -21.263 -39.914  23.143  1.00  0.00     0.001 A 
ATOM     14  C   UNL     1     -19.397 -39.811  21.617  1.00  0.00     0.001 A 
ATOM     15  C   UNL     1     -20.619 -39.314  22.064  1.00  0.00     0.000 A 
ENDBRANCH   9  10
ENDBRANCH   4   9
ENDBRANCH   1   2
BRANCH   1  16
ATOM     16  C   UNL     1     -13.176 -44.720  26.744  1.00  0.00     0.066 C 
ATOM     17  C   UNL     1     -12.430 -43.594  27.450  1.00  0.00     0.166 C 
ATOM     18  C   UNL     1     -13.030 -45.912  27.733  1.00  0.00     0.048 C 
ATOM     19  C   UNL     1     -11.662 -44.131  28.563  1.00  0.00     0.025 A 
ATOM     20  C   UNL     1     -11.978 -45.473  28.700  1.00  0.00    -0.033 A 
ATOM     21  C   UNL     1     -10.752 -43.479  29.376  1.00  0.00     0.062 A 
ATOM     22  C   UNL     1     -11.372 -46.228  29.692  1.00  0.00     0.055 A 
ATOM     23  C   UNL     1     -10.129 -44.228  30.378  1.00  0.00     0.161 A 
ATOM     24  C   UNL     1     -10.436 -45.608  30.536  1.00  0.00     0.161 A 
ATOM     25  O   UNL     1     -12.433 -42.417  27.130  1.00  0.00    -0.294 OA
BRANCH  23  26
ATOM     26  O   UNL     1      -9.202 -43.720  31.255  1.00  0.00    -0.493 OA
ATOM     27  C   UNL     1      -7.877 -43.521  30.784  1.00  0.00     0.278 C 
ENDBRANCH  23  26
BRANCH  24  28
ATOM     28  O   UNL     1      -9.769 -46.251  31.549  1.00  0.00    -0.493 OA
ATOM     29  C   UNL     1      -8.597 -46.981  31.219  1.00  0.00     0.278 C 
ENDBRANCH  24  28
ENDBRANCH   1  16
TORSDOF 6
ENDMDL
MODEL 7
REMARK VINA RESULT:    -9.908      2.485      4.542
REMARK INTER + INTRA:         -14.010
REMARK INTER:                 -13.642
REMARK INTRA:                  -0.367
REMARK UNBOUND:                -0.626
REMARK SMILES COc1cc2c(cc1OC)C(=O)[C@H](C[C@H]1CC[N@@H+](Cc3ccccc3)CC1)C2
REMARK SMILES IDX 14 1 15 2 17 3 18 4 16 5 26 6 27 7 19 9 20 10 21 11 25 12
REMARK SMILES IDX 22 13 24 14 23 15 13 16 11 17 28 18 6 19 5 20 7 21 4 22 8 23
REMARK SMILES IDX 3 24 12 25 9 26 10 27 2 28 1 29
REMARK H PARENT 18 8
ROOT
ATOM      1  C   UNL     1     -16.880 -42.783  25.503  1.00  0.00     0.016 C 
ENDROOT
BRANCH   1   2
ATOM      2  C   UNL     1     -15.341 -42.680  25.281  1.00  0.00     0.001 C 
ATOM      3  C   UNL     1     -14.332 -45.033  24.991  1.00  0.00     0.262 C 
ATOM      4  N   UNL     1     -13.647 -44.871  26.321  1.00  0.00    -0.331 N 
ATOM      5  C   UNL     1     -14.642 -43.685  24.360  1.00  0.00     0.065 C 
ATOM      6  C   UNL     1     -14.367 -43.942  27.269  1.00  0.00     0.262 C 
ATOM      7  C   UNL     1     -14.574 -42.588  26.608  1.00  0.00     0.065 C 
ATOM      8  H   UNL     1     -12.721 -44.463  26.151  1.00  0.00     0.348 HD
BRANCH   4   9
ATOM      9  C   UNL     1     -13.404 -46.231  26.953  1.00  0.00     0.299 C 
BRANCH   9  10
ATOM     10  C   UNL     1     -12.542 -46.164  28.184  1.00  0.00     0.006 A 
ATOM     11  C   UNL     1     -13.125 -46.077  29.459  1.00  0.00     0.009 A 
ATOM     12  C   UNL     1     -11.144 -46.207  28.078  1.00  0.00     0.009 A 
ATOM     13  C   UNL     1     -12.324 -46.042  30.601  1.00  0.00     0.001 A 
ATOM     14  C   UNL     1     -10.348 -46.172  29.223  1.00  0.00     0.001 A 
ATOM     15  C   UNL     1     -10.938 -46.091  30.483  1.00  0.00     0.000 A 
ENDBRANCH   9  10
ENDBRANCH   4   9
ENDBRANCH   1   2
BRANCH   1  16
ATOM     16  C   UNL     1     -17.838 -42.792  24.304  1.00  0.00     0.066 C 
ATOM     17  C   UNL     1     -19.218 -42.254  24.663  1.00  0.00     0.166 C 
ATOM     18  C   UNL     1     -17.370 -41.834  23.172  1.00  0.00     0.048 C 
ATOM     19  C   UNL     1     -19.654 -41.299  23.656  1.00  0.00     0.025 A 
ATOM     20  C   UNL     1     -18.604 -41.087  22.777  1.00  0.00    -0.033 A 
ATOM     21  C   UNL     1     -20.885 -40.680  23.532  1.00  0.00     0.062 A 
ATOM     22  C   UNL     1     -18.762 -40.217  21.710  1.00  0.00     0.055 A 
ATOM     23  C   UNL     1     -21.061 -39.804  22.457  1.00  0.00     0.161 A 
ATOM     24  C   UNL     1     -19.998 -39.572  21.540  1.00  0.00     0.161 A 
ATOM     25  O   UNL     1     -19.891 -42.584  25.625  1.00  0.00    -0.294 OA
BRANCH  23  26
ATOM     26  O   UNL     1     -22.226 -39.123  22.202  1.00  0.00    -0.493 OA
ATOM     27  C   UNL     1     -23.453 -39.743  22.560  1.00  0.00     0.278 C 
ENDBRANCH  23  26
BRANCH  24  28
ATOM     28  O   UNL     1     -20.275 -38.694  20.522  1.00  0.00    -0.493 OA
ATOM     29  C   UNL     1     -20.783 -39.221  19.305  1.00  0.00     0.278 C 
ENDBRANCH  24  28
ENDBRANCH   1  16
TORSDOF 6
ENDMDL
MODEL 8
REMARK VINA RESULT:    -9.805      2.561      4.407
REMARK INTER + INTRA:         -13.869
REMARK INTER:                 -13.267
REMARK INTRA:                  -0.602
REMARK UNBOUND:                -0.626
REMARK SMILES COc1cc2c(cc1OC)C(=O)[C@H](C[C@H]1CC[N@@H+](Cc3ccccc3)CC1)C2
REMARK SMILES IDX 14 1 15 2 17 3 18 4 16 5 26 6 27 7 19 9 20 10 21 11 25 12
REMARK SMILES IDX 22 13 24 14 23 15 13 16 11 17 28 18 6 19 5 20 7 21 4 22 8 23
REMARK SMILES IDX 3 24 12 25 9 26 10 27 2 28 1 29
REMARK H PARENT 18 8
ROOT
ATOM      1  C   UNL     1     -17.062 -43.110  23.832  1.00  0.00     0.016 C 
ENDROOT
BRANCH   1   2
ATOM      2  C   UNL     1     -15.504 -43.081  23.783  1.00  0.00     0.001 C 
ATOM      3  C   UNL     1     -14.539 -44.909  25.321  1.00  0.00     0.262 C 
ATOM      4  N   UNL     1     -14.032 -43.829  26.238  1.00  0.00    -0.331 N 
ATOM      5  C   UNL     1     -14.721 -44.392  23.903  1.00  0.00     0.065 C 
ATOM      6  C   UNL     1     -14.842 -42.556  26.186  1.00  0.00     0.262 C 
ATOM      7  C   UNL     1     -14.917 -42.047  24.756  1.00  0.00     0.065 C 
ATOM      8  H   UNL     1     -13.079 -43.587  25.942  1.00  0.00     0.348 HD
BRANCH   4   9
ATOM      9  C   UNL     1     -13.917 -44.358  27.657  1.00  0.00     0.299 C 
BRANCH   9  10
ATOM     10  C   UNL     1     -12.527 -44.815  28.006  1.00  0.00     0.006 A 
ATOM     11  C   UNL     1     -11.546 -43.886  28.390  1.00  0.00     0.009 A 
ATOM     12  C   UNL     1     -12.195 -46.178  27.971  1.00  0.00     0.009 A 
ATOM     13  C   UNL     1     -10.265 -44.315  28.740  1.00  0.00     0.001 A 
ATOM     14  C   UNL     1     -10.913 -46.602  28.321  1.00  0.00     0.001 A 
ATOM     15  C   UNL     1      -9.951 -45.672  28.707  1.00  0.00     0.000 A 
ENDBRANCH   9  10
ENDBRANCH   4   9
ENDBRANCH   1   2
BRANCH   1  16
ATOM     16  C   UNL     1     -17.846 -41.890  24.334  1.00  0.00     0.066 C 
ATOM     17  C   UNL     1     -19.051 -41.577  23.456  1.00  0.00     0.166 C 
ATOM     18  C   UNL     1     -18.483 -42.136  25.731  1.00  0.00     0.048 C 
ATOM     19  C   UNL     1     -20.223 -41.347  24.287  1.00  0.00     0.025 A 
ATOM     20  C   UNL     1     -19.884 -41.632  25.600  1.00  0.00    -0.033 A 
ATOM     21  C   UNL     1     -21.479 -40.913  23.904  1.00  0.00     0.062 A 
ATOM     22  C   UNL     1     -20.829 -41.485  26.605  1.00  0.00     0.055 A 
ATOM     23  C   UNL     1     -22.441 -40.755  24.906  1.00  0.00     0.161 A 
ATOM     24  C   UNL     1     -22.115 -41.039  26.262  1.00  0.00     0.161 A 
ATOM     25  O   UNL     1     -19.053 -41.493  22.239  1.00  0.00    -0.294 OA
BRANCH  23  26
ATOM     26  O   UNL     1     -23.726 -40.327  24.680  1.00  0.00    -0.493 OA
ATOM     27  C   UNL     1     -23.909 -39.134  23.930  1.00  0.00     0.278 C 
ENDBRANCH  23  26
BRANCH  24  28
ATOM     28  O   UNL     1     -23.131 -40.852  27.167  1.00  0.00    -0.493 OA
ATOM     29  C   UNL     1     -23.310 -39.553  27.711  1.00  0.00     0.278 C 
ENDBRANCH  24  28
ENDBRANCH   1  16
TORSDOF 6
ENDMDL
MODEL 9
REMARK VINA RESULT:    -9.396      3.140     10.259
REMARK INTER + INTRA:         -13.318
REMARK INTER:                 -13.480
REMARK INTRA:                   0.162
REMARK UNBOUND:                -0.626
REMARK SMILES COc1cc2c(cc1OC)C(=O)[C@H](C[C@H]1CC[N@@H+](Cc3ccccc3)CC1)C2
REMARK SMILES IDX 14 1 15 2 17 3 18 4 16 5 26 6 27 7 19 9 20 10 21 11 25 12
REMARK SMILES IDX 22 13 24 14 23 15 13 16 11 17 28 18 6 19 5 20 7 21 4 22 8 23
REMARK SMILES IDX 3 24 12 25 9 26 10 27 2 28 1 29
REMARK H PARENT 18 8
ROOT
ATOM      1  C   UNL     1     -14.517 -44.387  26.675  1.00  0.00     0.016 C 
ENDROOT
BRANCH   1   2
ATOM      2  C   UNL     1     -14.987 -42.908  26.526  1.00  0.00     0.001 C 
ATOM      3  C   UNL     1     -17.559 -42.786  26.617  1.00  0.00     0.262 C 
ATOM      4  N   UNL     1     -17.563 -42.408  25.160  1.00  0.00    -0.331 N 
ATOM      5  C   UNL     1     -16.235 -42.434  27.277  1.00  0.00     0.065 C 
ATOM      6  C   UNL     1     -16.375 -42.936  24.391  1.00  0.00     0.262 C 
ATOM      7  C   UNL     1     -15.085 -42.481  25.055  1.00  0.00     0.065 C 
ATOM      8  H   UNL     1     -17.525 -41.384  25.100  1.00  0.00     0.348 HD
BRANCH   4   9
ATOM      9  C   UNL     1     -18.873 -42.826  24.515  1.00  0.00     0.299 C 
BRANCH   9  10
ATOM     10  C   UNL     1     -20.074 -42.521  25.368  1.00  0.00     0.006 A 
ATOM     11  C   UNL     1     -20.364 -41.201  25.748  1.00  0.00     0.009 A 
ATOM     12  C   UNL     1     -20.934 -43.551  25.781  1.00  0.00     0.009 A 
ATOM     13  C   UNL     1     -21.494 -40.918  26.516  1.00  0.00     0.001 A 
ATOM     14  C   UNL     1     -22.062 -43.263  26.549  1.00  0.00     0.001 A 
ATOM     15  C   UNL     1     -22.342 -41.948  26.914  1.00  0.00     0.000 A 
ENDBRANCH   9  10
ENDBRANCH   4   9
ENDBRANCH   1   2
BRANCH   1  16
ATOM     16  C   UNL     1     -13.035 -44.712  26.904  1.00  0.00     0.066 C 
ATOM     17  C   UNL     1     -12.295 -43.574  27.596  1.00  0.00     0.166 C 
ATOM     18  C   UNL     1     -12.840 -45.904  27.884  1.00  0.00     0.048 C 
ATOM     19  C   UNL     1     -11.488 -44.099  28.688  1.00  0.00     0.025 A 
ATOM     20  C   UNL     1     -11.774 -45.448  28.826  1.00  0.00    -0.033 A 
ATOM     21  C   UNL     1     -10.572 -43.431  29.480  1.00  0.00     0.062 A 
ATOM     22  C   UNL     1     -11.128 -46.194  29.799  1.00  0.00     0.055 A 
ATOM     23  C   UNL     1      -9.908 -44.171  30.462  1.00  0.00     0.161 A 
ATOM     24  C   UNL     1     -10.184 -45.558  30.622  1.00  0.00     0.161 A 
ATOM     25  O   UNL     1     -12.330 -42.396  27.281  1.00  0.00    -0.294 OA
BRANCH  23  26
ATOM     26  O   UNL     1      -8.971 -43.648  31.319  1.00  0.00    -0.493 OA
ATOM     27  C   UNL     1      -9.407 -43.213  32.599  1.00  0.00     0.278 C 
ENDBRANCH  23  26
BRANCH  24  28
ATOM     28  O   UNL     1      -9.479 -46.192  31.616  1.00  0.00    -0.493 OA
ATOM     29  C   UNL     1      -8.299 -46.894  31.254  1.00  0.00     0.278 C 
ENDBRANCH  24  28
ENDBRANCH   1  16
TORSDOF 6
ENDMDL
