MODEL 1
REMARK VINA RESULT:    -8.857      0.000      0.000
REMARK INTER + INTRA:          -9.116
REMARK INTER:                  -9.116
REMARK INTRA:                   0.000
REMARK UNBOUND:                 0.000
REMARK SMILES Nc1c2c(nc3cc(Cl)ccc13)CCCC2
REMARK SMILES IDX 2 1 3 2 4 3 5 4 6 5 7 6 8 7 9 8 10 9 11 10 12 11 13 12 14 13
REMARK SMILES IDX 15 14 16 15 1 16
REMARK H PARENT 1 17 1 18
ROOT
ATOM      1  C   UNL     1     -17.718 -42.694  24.036  1.00  0.00     0.046 A 
ATOM      2  C   UNL     1     -18.814 -42.125  24.715  1.00  0.00    -0.003 A 
ATOM      3  C   UNL     1     -18.737 -42.021  26.106  1.00  0.00     0.046 A 
ATOM      4  N   UNL     1     -17.637 -42.369  26.813  1.00  0.00    -0.252 NA
ATOM      5  C   UNL     1     -16.559 -42.815  26.159  1.00  0.00     0.074 A 
ATOM      6  C   UNL     1     -15.431 -43.112  26.911  1.00  0.00     0.049 A 
ATOM      7  C   UNL     1     -14.258 -43.558  26.310  1.00  0.00     0.043 A 
ATOM      8  Cl  UNL     1     -12.880 -43.912  27.277  1.00  0.00    -0.084 Cl
ATOM      9  C   UNL     1     -14.192 -43.712  24.934  1.00  0.00     0.021 A 
ATOM     10  C   UNL     1     -15.318 -43.424  24.163  1.00  0.00     0.014 A 
ATOM     11  C   UNL     1     -16.527 -42.982  24.758  1.00  0.00     0.024 A 
ATOM     12  C   UNL     1     -19.863 -41.447  26.927  1.00  0.00     0.056 C 
ATOM     13  C   UNL     1     -21.202 -41.448  26.199  1.00  0.00     0.007 C 
ATOM     14  C   UNL     1     -21.030 -40.855  24.809  1.00  0.00     0.005 C 
ATOM     15  C   UNL     1     -20.068 -41.707  23.981  1.00  0.00     0.039 C 
ENDROOT
BRANCH   1  16
ATOM     16  N   UNL     1     -17.742 -42.789  22.623  1.00  0.00    -0.398 N 
ATOM     17  H   UNL     1     -17.672 -41.891  22.157  1.00  0.00     0.156 HD
ATOM     18  H   UNL     1     -17.060 -43.438  22.245  1.00  0.00     0.156 HD
ENDBRANCH   1  16
TORSDOF 1
ENDMDL
MODEL 2
REMARK VINA RESULT:    -8.819      2.511      5.210
REMARK INTER + INTRA:          -9.076
REMARK INTER:                  -9.076
REMARK INTRA:                   0.000
REMARK UNBOUND:                 0.000
REMARK SMILES Nc1c2c(nc3cc(Cl)ccc13)CCCC2
REMARK SMILES IDX 2 1 3 2 4 3 5 4 6 5 7 6 8 7 9 8 10 9 11 10 12 11 13 12 14 13
REMARK SMILES IDX 15 14 16 15 1 16
REMARK H PARENT 1 17 1 18
ROOT
ATOM      1  C   UNL     1     -17.651 -42.486  24.012  1.00  0.00     0.046 A 
ATOM      2  C   UNL     1     -16.545 -42.979  24.733  1.00  0.00    -0.003 A 
ATOM      3  C   UNL     1     -16.562 -42.842  26.123  1.00  0.00     0.046 A 
ATOM      4  N   UNL     1     -17.614 -42.332  26.804  1.00  0.00    -0.252 NA
ATOM      5  C   UNL     1     -18.705 -41.958  26.127  1.00  0.00     0.074 A 
ATOM      6  C   UNL     1     -19.785 -41.490  26.861  1.00  0.00     0.049 A 
ATOM      7  C   UNL     1     -20.969 -41.102  26.241  1.00  0.00     0.043 A 
ATOM      8  Cl  UNL     1     -22.287 -40.532  27.187  1.00  0.00    -0.084 Cl
ATOM      9  C   UNL     1     -21.093 -41.181  24.863  1.00  0.00     0.021 A 
ATOM     10  C   UNL     1     -20.015 -41.644  24.108  1.00  0.00     0.014 A 
ATOM     11  C   UNL     1     -18.797 -42.030  24.721  1.00  0.00     0.024 A 
ATOM     12  C   UNL     1     -15.418 -43.315  26.985  1.00  0.00     0.056 C 
ATOM     13  C   UNL     1     -14.116 -43.495  26.214  1.00  0.00     0.007 C 
ATOM     14  C   UNL     1     -14.373 -44.307  24.955  1.00  0.00     0.005 C 
ATOM     15  C   UNL     1     -15.342 -43.568  24.032  1.00  0.00     0.039 C 
ENDROOT
BRANCH   1  16
ATOM     16  N   UNL     1     -17.690 -42.634  22.603  1.00  0.00    -0.398 N 
ATOM     17  H   UNL     1     -17.163 -43.432  22.266  1.00  0.00     0.156 HD
ATOM     18  H   UNL     1     -18.629 -42.642  22.218  1.00  0.00     0.156 HD
ENDBRANCH   1  16
TORSDOF 1
ENDMDL
MODEL 3
REMARK VINA RESULT:    -8.670      2.814      5.844
REMARK INTER + INTRA:          -8.923
REMARK INTER:                  -8.923
REMARK INTRA:                   0.000
REMARK UNBOUND:                 0.000
REMARK SMILES Nc1c2c(nc3cc(Cl)ccc13)CCCC2
REMARK SMILES IDX 2 1 3 2 4 3 5 4 6 5 7 6 8 7 9 8 10 9 11 10 12 11 13 12 14 13
REMARK SMILES IDX 15 14 16 15 1 16
REMARK H PARENT 1 17 1 18
ROOT
ATOM      1  C   UNL     1     -17.761 -42.453  26.979  1.00  0.00     0.046 A 
ATOM      2  C   UNL     1     -16.676 -42.798  26.149  1.00  0.00    -0.003 A 
ATOM      3  C   UNL     1     -16.874 -42.757  24.767  1.00  0.00     0.046 A 
ATOM      4  N   UNL     1     -18.026 -42.331  24.197  1.00  0.00    -0.252 NA
ATOM      5  C   UNL     1     -19.020 -41.907  24.984  1.00  0.00     0.074 A 
ATOM      6  C   UNL     1     -20.167 -41.428  24.366  1.00  0.00     0.049 A 
ATOM      7  C   UNL     1     -21.240 -40.944  25.107  1.00  0.00     0.043 A 
ATOM      8  Cl  UNL     1     -22.642 -40.354  24.302  1.00  0.00    -0.084 Cl
ATOM      9  C   UNL     1     -21.183 -40.928  26.491  1.00  0.00     0.021 A 
ATOM     10  C   UNL     1     -20.042 -41.412  27.130  1.00  0.00     0.014 A 
ATOM     11  C   UNL     1     -18.943 -41.922  26.393  1.00  0.00     0.024 A 
ATOM     12  C   UNL     1     -15.785 -43.129  23.792  1.00  0.00     0.056 C 
ATOM     13  C   UNL     1     -14.680 -43.972  24.417  1.00  0.00     0.007 C 
ATOM     14  C   UNL     1     -14.214 -43.328  25.713  1.00  0.00     0.005 C 
ATOM     15  C   UNL     1     -15.360 -43.272  26.723  1.00  0.00     0.039 C 
ENDROOT
BRANCH   1  16
ATOM     16  N   UNL     1     -17.593 -42.450  28.386  1.00  0.00    -0.398 N 
ATOM     17  H   UNL     1     -16.688 -42.102  28.684  1.00  0.00     0.156 HD
ATOM     18  H   UNL     1     -18.337 -41.975  28.886  1.00  0.00     0.156 HD
ENDBRANCH   1  16
TORSDOF 1
ENDMDL
MODEL 4
REMARK VINA RESULT:    -8.553      7.132     10.294
REMARK INTER + INTRA:          -8.803
REMARK INTER:                  -8.803
REMARK INTRA:                   0.000
REMARK UNBOUND:                 0.000
REMARK SMILES Nc1c2c(nc3cc(Cl)ccc13)CCCC2
REMARK SMILES IDX 2 1 3 2 4 3 5 4 6 5 7 6 8 7 9 8 10 9 11 10 12 11 13 12 14 13
REMARK SMILES IDX 15 14 16 15 1 16
REMARK H PARENT 1 17 1 18
ROOT
ATOM      1  C   UNL     1     -11.133 -44.148  31.492  1.00  0.00     0.046 A 
ATOM      2  C   UNL     1      -9.755 -44.090  31.782  1.00  0.00    -0.003 A 
ATOM      3  C   UNL     1      -8.889 -44.840  30.985  1.00  0.00     0.046 A 
ATOM      4  N   UNL     1      -9.303 -45.553  29.911  1.00  0.00    -0.252 NA
ATOM      5  C   UNL     1     -10.597 -45.527  29.575  1.00  0.00     0.074 A 
ATOM      6  C   UNL     1     -10.978 -46.226  28.438  1.00  0.00     0.049 A 
ATOM      7  C   UNL     1     -12.299 -46.233  28.002  1.00  0.00     0.043 A 
ATOM      8  Cl  UNL     1     -12.730 -47.108  26.585  1.00  0.00    -0.084 Cl
ATOM      9  C   UNL     1     -13.269 -45.532  28.700  1.00  0.00     0.021 A 
ATOM     10  C   UNL     1     -12.906 -44.830  29.849  1.00  0.00     0.014 A 
ATOM     11  C   UNL     1     -11.568 -44.822  30.317  1.00  0.00     0.024 A 
ATOM     12  C   UNL     1      -7.401 -44.864  31.225  1.00  0.00     0.056 C 
ATOM     13  C   UNL     1      -7.009 -44.417  32.629  1.00  0.00     0.007 C 
ATOM     14  C   UNL     1      -7.712 -43.111  32.965  1.00  0.00     0.005 C 
ATOM     15  C   UNL     1      -9.228 -43.304  32.962  1.00  0.00     0.039 C 
ENDROOT
BRANCH   1  16
ATOM     16  N   UNL     1     -12.043 -43.377  32.256  1.00  0.00    -0.398 N 
ATOM     17  H   UNL     1     -11.738 -43.222  33.211  1.00  0.00     0.156 HD
ATOM     18  H   UNL     1     -12.302 -42.499  31.820  1.00  0.00     0.156 HD
ENDBRANCH   1  16
TORSDOF 1
ENDMDL
MODEL 5
REMARK VINA RESULT:    -8.523      5.717      9.268
REMARK INTER + INTRA:          -8.772
REMARK INTER:                  -8.772
REMARK INTRA:                   0.000
REMARK UNBOUND:                 0.000
REMARK SMILES Nc1c2c(nc3cc(Cl)ccc13)CCCC2
REMARK SMILES IDX 2 1 3 2 4 3 5 4 6 5 7 6 8 7 9 8 10 9 11 10 12 11 13 12 14 13
REMARK SMILES IDX 15 14 16 15 1 16
REMARK H PARENT 1 17 1 18
ROOT
ATOM      1  C   UNL     1     -11.451 -45.419  30.100  1.00  0.00     0.046 A 
ATOM      2  C   UNL     1     -10.197 -44.892  30.467  1.00  0.00    -0.003 A 
ATOM      3  C   UNL     1      -9.638 -43.910  29.646  1.00  0.00     0.046 A 
ATOM      4  N   UNL     1     -10.275 -43.395  28.569  1.00  0.00    -0.252 NA
ATOM      5  C   UNL     1     -11.508 -43.823  28.279  1.00  0.00     0.074 A 
ATOM      6  C   UNL     1     -12.153 -43.236  27.200  1.00  0.00     0.049 A 
ATOM      7  C   UNL     1     -13.446 -43.603  26.843  1.00  0.00     0.043 A 
ATOM      8  Cl  UNL     1     -14.213 -42.848  25.501  1.00  0.00    -0.084 Cl
ATOM      9  C   UNL     1     -14.124 -44.570  27.568  1.00  0.00     0.021 A 
ATOM     10  C   UNL     1     -13.489 -45.176  28.652  1.00  0.00     0.014 A 
ATOM     11  C   UNL     1     -12.167 -44.825  29.023  1.00  0.00     0.024 A 
ATOM     12  C   UNL     1      -8.291 -43.298  29.938  1.00  0.00     0.056 C 
ATOM     13  C   UNL     1      -7.433 -44.144  30.871  1.00  0.00     0.007 C 
ATOM     14  C   UNL     1      -8.249 -44.555  32.086  1.00  0.00     0.005 C 
ATOM     15  C   UNL     1      -9.438 -45.417  31.665  1.00  0.00     0.039 C 
ENDROOT
BRANCH   1  16
ATOM     16  N   UNL     1     -12.069 -46.393  30.922  1.00  0.00    -0.398 N 
ATOM     17  H   UNL     1     -12.327 -47.238  30.422  1.00  0.00     0.156 HD
ATOM     18  H   UNL     1     -11.538 -46.623  31.755  1.00  0.00     0.156 HD
ENDBRANCH   1  16
TORSDOF 1
ENDMDL
MODEL 6
REMARK VINA RESULT:    -8.515      8.504     10.699
REMARK INTER + INTRA:          -8.764
REMARK INTER:                  -8.764
REMARK INTRA:                   0.000
REMARK UNBOUND:                 0.000
REMARK SMILES Nc1c2c(nc3cc(Cl)ccc13)CCCC2
REMARK SMILES IDX 2 1 3 2 4 3 5 4 6 5 7 6 8 7 9 8 10 9 11 10 12 11 13 12 14 13
REMARK SMILES IDX 15 14 16 15 1 16
REMARK H PARENT 1 17 1 18
ROOT
ATOM      1  C   UNL     1     -11.554 -45.345  31.415  1.00  0.00     0.046 A 
ATOM      2  C   UNL     1     -10.152 -45.274  31.536  1.00  0.00    -0.003 A 
ATOM      3  C   UNL     1      -9.611 -44.172  32.203  1.00  0.00     0.046 A 
ATOM      4  N   UNL     1     -10.370 -43.221  32.797  1.00  0.00    -0.252 NA
ATOM      5  C   UNL     1     -11.701 -43.343  32.769  1.00  0.00     0.074 A 
ATOM      6  C   UNL     1     -12.446 -42.379  33.433  1.00  0.00     0.049 A 
ATOM      7  C   UNL     1     -13.836 -42.441  33.476  1.00  0.00     0.043 A 
ATOM      8  Cl  UNL     1     -14.723 -41.228  34.313  1.00  0.00    -0.084 Cl
ATOM      9  C   UNL     1     -14.508 -43.480  32.852  1.00  0.00     0.021 A 
ATOM     10  C   UNL     1     -13.776 -44.454  32.175  1.00  0.00     0.014 A 
ATOM     11  C   UNL     1     -12.361 -44.401  32.108  1.00  0.00     0.024 A 
ATOM     12  C   UNL     1      -8.123 -43.990  32.368  1.00  0.00     0.056 C 
ATOM     13  C   UNL     1      -7.303 -44.807  31.377  1.00  0.00     0.007 C 
ATOM     14  C   UNL     1      -7.795 -46.246  31.367  1.00  0.00     0.005 C 
ATOM     15  C   UNL     1      -9.250 -46.309  30.904  1.00  0.00     0.039 C 
ENDROOT
BRANCH   1  16
ATOM     16  N   UNL     1     -12.146 -46.462  30.774  1.00  0.00    -0.398 N 
ATOM     17  H   UNL     1     -11.675 -46.732  29.917  1.00  0.00     0.156 HD
ATOM     18  H   UNL     1     -12.266 -47.266  31.381  1.00  0.00     0.156 HD
ENDBRANCH   1  16
TORSDOF 1
ENDMDL
MODEL 7
REMARK VINA RESULT:    -8.477      5.510      7.901
REMARK INTER + INTRA:          -8.725
REMARK INTER:                  -8.725
REMARK INTRA:                   0.000
REMARK UNBOUND:                 0.000
REMARK SMILES Nc1c2c(nc3cc(Cl)ccc13)CCCC2
REMARK SMILES IDX 2 1 3 2 4 3 5 4 6 5 7 6 8 7 9 8 10 9 11 10 12 11 13 12 14 13
REMARK SMILES IDX 15 14 16 15 1 16
REMARK H PARENT 1 17 1 18
ROOT
ATOM      1  C   UNL     1     -12.523 -45.494  29.639  1.00  0.00     0.046 A 
ATOM      2  C   UNL     1     -12.833 -44.707  28.511  1.00  0.00    -0.003 A 
ATOM      3  C   UNL     1     -11.858 -43.821  28.047  1.00  0.00     0.046 A 
ATOM      4  N   UNL     1     -10.616 -43.742  28.580  1.00  0.00    -0.252 NA
ATOM      5  C   UNL     1     -10.289 -44.561  29.585  1.00  0.00     0.074 A 
ATOM      6  C   UNL     1      -8.991 -44.490  30.071  1.00  0.00     0.049 A 
ATOM      7  C   UNL     1      -8.557 -45.322  31.099  1.00  0.00     0.043 A 
ATOM      8  Cl  UNL     1      -6.939 -45.206  31.671  1.00  0.00    -0.084 Cl
ATOM      9  C   UNL     1      -9.421 -46.249  31.659  1.00  0.00     0.021 A 
ATOM     10  C   UNL     1     -10.731 -46.331  31.187  1.00  0.00     0.014 A 
ATOM     11  C   UNL     1     -11.195 -45.482  30.150  1.00  0.00     0.024 A 
ATOM     12  C   UNL     1     -12.098 -42.920  26.862  1.00  0.00     0.056 C 
ATOM     13  C   UNL     1     -13.575 -42.720  26.546  1.00  0.00     0.007 C 
ATOM     14  C   UNL     1     -14.276 -44.069  26.502  1.00  0.00     0.005 C 
ATOM     15  C   UNL     1     -14.199 -44.756  27.865  1.00  0.00     0.039 C 
ENDROOT
BRANCH   1  16
ATOM     16  N   UNL     1     -13.471 -46.428  30.123  1.00  0.00    -0.398 N 
ATOM     17  H   UNL     1     -14.126 -46.031  30.788  1.00  0.00     0.156 HD
ATOM     18  H   UNL     1     -13.968 -46.925  29.391  1.00  0.00     0.156 HD
ENDBRANCH   1  16
TORSDOF 1
ENDMDL
MODEL 8
REMARK VINA RESULT:    -8.315      7.532      9.680
REMARK INTER + INTRA:          -8.558
REMARK INTER:                  -8.558
REMARK INTRA:                   0.000
REMARK UNBOUND:                 0.000
REMARK SMILES Nc1c2c(nc3cc(Cl)ccc13)CCCC2
REMARK SMILES IDX 2 1 3 2 4 3 5 4 6 5 7 6 8 7 9 8 10 9 11 10 12 11 13 12 14 13
REMARK SMILES IDX 15 14 16 15 1 16
REMARK H PARENT 1 17 1 18
ROOT
ATOM      1  C   UNL     1     -11.633 -43.969  31.122  1.00  0.00     0.046 A 
ATOM      2  C   UNL     1     -11.767 -44.889  30.063  1.00  0.00    -0.003 A 
ATOM      3  C   UNL     1     -10.603 -45.459  29.544  1.00  0.00     0.046 A 
ATOM      4  N   UNL     1      -9.372 -45.227  30.059  1.00  0.00    -0.252 NA
ATOM      5  C   UNL     1      -9.256 -44.433  31.128  1.00  0.00     0.074 A 
ATOM      6  C   UNL     1      -7.987 -44.259  31.662  1.00  0.00     0.049 A 
ATOM      7  C   UNL     1      -7.778 -43.470  32.789  1.00  0.00     0.043 A 
ATOM      8  Cl  UNL     1      -6.190 -43.284  33.423  1.00  0.00    -0.084 Cl
ATOM      9  C   UNL     1      -8.845 -42.839  33.408  1.00  0.00     0.021 A 
ATOM     10  C   UNL     1     -10.127 -42.997  32.882  1.00  0.00     0.014 A 
ATOM     11  C   UNL     1     -10.358 -43.785  31.727  1.00  0.00     0.024 A 
ATOM     12  C   UNL     1     -10.635 -46.437  28.397  1.00  0.00     0.056 C 
ATOM     13  C   UNL     1     -11.924 -46.372  27.585  1.00  0.00     0.007 C 
ATOM     14  C   UNL     1     -13.121 -46.412  28.522  1.00  0.00     0.005 C 
ATOM     15  C   UNL     1     -13.114 -45.198  29.450  1.00  0.00     0.039 C 
ENDROOT
BRANCH   1  16
ATOM     16  N   UNL     1     -12.791 -43.392  31.700  1.00  0.00    -0.398 N 
ATOM     17  H   UNL     1     -12.663 -42.425  31.979  1.00  0.00     0.156 HD
ATOM     18  H   UNL     1     -13.625 -43.489  31.130  1.00  0.00     0.156 HD
ENDBRANCH   1  16
TORSDOF 1
ENDMDL
MODEL 9
REMARK VINA RESULT:    -8.203      3.337      6.763
REMARK INTER + INTRA:          -8.443
REMARK INTER:                  -8.443
REMARK INTRA:                   0.000
REMARK UNBOUND:                 0.000
REMARK SMILES Nc1c2c(nc3cc(Cl)ccc13)CCCC2
REMARK SMILES IDX 2 1 3 2 4 3 5 4 6 5 7 6 8 7 9 8 10 9 11 10 12 11 13 12 14 13
REMARK SMILES IDX 15 14 16 15 1 16
REMARK H PARENT 1 17 1 18
ROOT
ATOM      1  C   UNL     1     -15.012 -44.008  28.785  1.00  0.00     0.046 A 
ATOM      2  C   UNL     1     -13.799 -44.685  29.024  1.00  0.00    -0.003 A 
ATOM      3  C   UNL     1     -13.061 -45.109  27.917  1.00  0.00     0.046 A 
ATOM      4  N   UNL     1     -13.418 -44.835  26.641  1.00  0.00    -0.252 NA
ATOM      5  C   UNL     1     -14.515 -44.106  26.417  1.00  0.00     0.074 A 
ATOM      6  C   UNL     1     -14.822 -43.798  25.099  1.00  0.00     0.049 A 
ATOM      7  C   UNL     1     -15.932 -43.023  24.776  1.00  0.00     0.043 A 
ATOM      8  Cl  UNL     1     -16.276 -42.660  23.130  1.00  0.00    -0.084 Cl
ATOM      9  C   UNL     1     -16.759 -42.536  25.775  1.00  0.00     0.021 A 
ATOM     10  C   UNL     1     -16.469 -42.840  27.105  1.00  0.00     0.014 A 
ATOM     11  C   UNL     1     -15.351 -43.639  27.453  1.00  0.00     0.024 A 
ATOM     12  C   UNL     1     -11.762 -45.860  28.065  1.00  0.00     0.056 C 
ATOM     13  C   UNL     1     -11.590 -46.504  29.435  1.00  0.00     0.007 C 
ATOM     14  C   UNL     1     -11.890 -45.484  30.522  1.00  0.00     0.005 C 
ATOM     15  C   UNL     1     -13.340 -45.013  30.427  1.00  0.00     0.039 C 
ENDROOT
BRANCH   1  16
ATOM     16  N   UNL     1     -15.777 -43.532  29.878  1.00  0.00    -0.398 N 
ATOM     17  H   UNL     1     -16.775 -43.668  29.762  1.00  0.00     0.156 HD
ATOM     18  H   UNL     1     -15.473 -43.891  30.777  1.00  0.00     0.156 HD
ENDBRANCH   1  16
TORSDOF 1
ENDMDL
