MODEL 1
REMARK VINA RESULT:   -11.483      0.000      0.000
REMARK INTER + INTRA:         -16.368
REMARK INTER:                 -15.846
REMARK INTRA:                  -0.522
REMARK UNBOUND:                -0.522
REMARK SMILES COc1cc2c(cc1OC)C(O)=C(C[C@H]1CC[N@H+](Cc3ccccc3)CC1)C2
REMARK SMILES IDX 14 1 13 2 11 3 6 4 28 5 7 6 5 7 8 8 4 9 3 10 12 11 9 13
REMARK SMILES IDX 10 14 2 15 1 16 15 17 27 18 16 19 26 20 17 21 18 22 19 24
REMARK SMILES IDX 20 25 21 26 25 27 22 28 24 29 23 30
REMARK H PARENT 12 12 18 23
ROOT
ATOM      1  C   UNL     1     -13.444 -44.047  26.296  1.00  0.00     0.039 C 
ENDROOT
BRANCH   1   2
ATOM      2  C   UNL     1     -14.804 -43.510  25.958  1.00  0.00    -0.023 C 
ATOM      3  C   UNL     1     -15.401 -43.294  24.772  1.00  0.00     0.122 C 
ATOM      4  C   UNL     1     -16.746 -42.774  24.988  1.00  0.00     0.024 A 
ATOM      5  C   UNL     1     -15.739 -43.152  27.103  1.00  0.00     0.071 C 
ATOM      6  C   UNL     1     -17.737 -42.388  24.105  1.00  0.00     0.062 A 
ATOM      7  C   UNL     1     -16.960 -42.686  26.365  1.00  0.00    -0.029 A 
ATOM      8  C   UNL     1     -18.961 -41.925  24.613  1.00  0.00     0.161 A 
ATOM      9  C   UNL     1     -18.153 -42.210  26.890  1.00  0.00     0.055 A 
ATOM     10  C   UNL     1     -19.170 -41.809  26.010  1.00  0.00     0.161 A 
BRANCH   3  11
ATOM     11  O   UNL     1     -14.898 -43.530  23.530  1.00  0.00    -0.507 OA
ATOM     12  H   UNL     1     -14.217 -44.221  23.618  1.00  0.00     0.293 HD
ENDBRANCH   3  11
BRANCH   8  13
ATOM     13  O   UNL     1     -19.846 -41.568  23.624  1.00  0.00    -0.493 OA
ATOM     14  C   UNL     1     -19.282 -40.967  22.462  1.00  0.00     0.278 C 
ENDBRANCH   8  13
BRANCH  10  15
ATOM     15  O   UNL     1     -20.362 -41.279  26.428  1.00  0.00    -0.493 OA
ATOM     16  C   UNL     1     -21.435 -42.169  26.701  1.00  0.00     0.278 C 
ENDBRANCH  10  15
ENDBRANCH   1   2
BRANCH   1  17
ATOM     17  C   UNL     1     -13.143 -44.337  27.779  1.00  0.00     0.004 C 
ATOM     18  C   UNL     1     -13.136 -45.843  28.081  1.00  0.00     0.065 C 
ATOM     19  C   UNL     1     -11.786 -43.743  28.182  1.00  0.00     0.065 C 
ATOM     20  C   UNL     1     -12.842 -46.110  29.550  1.00  0.00     0.262 C 
ATOM     21  C   UNL     1     -11.477 -44.012  29.649  1.00  0.00     0.262 C 
ATOM     22  N   UNL     1     -11.510 -45.493  29.917  1.00  0.00    -0.331 N 
ATOM     23  H   UNL     1     -10.803 -45.938  29.318  1.00  0.00     0.348 HD
BRANCH  22  24
ATOM     24  C   UNL     1     -11.104 -45.803  31.343  1.00  0.00     0.299 C 
BRANCH  24  25
ATOM     25  C   UNL     1      -9.798 -45.166  31.737  1.00  0.00     0.006 A 
ATOM     26  C   UNL     1      -8.579 -45.781  31.415  1.00  0.00     0.009 A 
ATOM     27  C   UNL     1      -9.783 -43.936  32.415  1.00  0.00     0.009 A 
ATOM     28  C   UNL     1      -7.370 -45.173  31.758  1.00  0.00     0.001 A 
ATOM     29  C   UNL     1      -8.571 -43.335  32.756  1.00  0.00     0.001 A 
ATOM     30  C   UNL     1      -7.367 -43.951  32.426  1.00  0.00     0.000 A 
ENDBRANCH  24  25
ENDBRANCH  22  24
ENDBRANCH   1  17
TORSDOF 7
ENDMDL
MODEL 2
REMARK VINA RESULT:   -11.184      1.057      2.351
REMARK INTER + INTRA:         -15.955
REMARK INTER:                 -15.685
REMARK INTRA:                  -0.271
REMARK UNBOUND:                -0.522
REMARK SMILES COc1cc2c(cc1OC)C(O)=C(C[C@H]1CC[N@H+](Cc3ccccc3)CC1)C2
REMARK SMILES IDX 14 1 13 2 11 3 6 4 28 5 7 6 5 7 8 8 4 9 3 10 12 11 9 13
REMARK SMILES IDX 10 14 2 15 1 16 15 17 27 18 16 19 26 20 17 21 18 22 19 24
REMARK SMILES IDX 20 25 21 26 25 27 22 28 24 29 23 30
REMARK H PARENT 12 12 18 23
ROOT
ATOM      1  C   UNL     1     -13.437 -43.874  26.121  1.00  0.00     0.039 C 
ENDROOT
BRANCH   1   2
ATOM      2  C   UNL     1     -14.827 -43.420  25.780  1.00  0.00    -0.023 C 
ATOM      3  C   UNL     1     -15.870 -43.094  26.564  1.00  0.00     0.122 C 
ATOM      4  C   UNL     1     -17.001 -42.694  25.736  1.00  0.00     0.024 A 
ATOM      5  C   UNL     1     -15.184 -43.245  24.311  1.00  0.00     0.071 C 
ATOM      6  C   UNL     1     -18.283 -42.291  26.059  1.00  0.00     0.062 A 
ATOM      7  C   UNL     1     -16.608 -42.778  24.398  1.00  0.00    -0.029 A 
ATOM      8  C   UNL     1     -19.173 -41.953  25.027  1.00  0.00     0.161 A 
ATOM      9  C   UNL     1     -17.477 -42.471  23.361  1.00  0.00     0.055 A 
ATOM     10  C   UNL     1     -18.784 -42.063  23.668  1.00  0.00     0.161 A 
BRANCH   3  11
ATOM     11  O   UNL     1     -15.920 -43.087  27.924  1.00  0.00    -0.507 OA
ATOM     12  H   UNL     1     -15.098 -43.498  28.248  1.00  0.00     0.293 HD
ENDBRANCH   3  11
BRANCH   8  13
ATOM     13  O   UNL     1     -20.411 -41.582  25.494  1.00  0.00    -0.493 OA
ATOM     14  C   UNL     1     -20.481 -41.212  26.867  1.00  0.00     0.278 C 
ENDBRANCH   8  13
BRANCH  10  15
ATOM     15  O   UNL     1     -19.731 -41.787  22.717  1.00  0.00    -0.493 OA
ATOM     16  C   UNL     1     -19.463 -40.751  21.783  1.00  0.00     0.278 C 
ENDBRANCH  10  15
ENDBRANCH   1   2
BRANCH   1  17
ATOM     17  C   UNL     1     -13.153 -44.254  27.586  1.00  0.00     0.004 C 
ATOM     18  C   UNL     1     -13.084 -45.775  27.783  1.00  0.00     0.065 C 
ATOM     19  C   UNL     1     -11.832 -43.631  28.061  1.00  0.00     0.065 C 
ATOM     20  C   UNL     1     -12.808 -46.132  29.236  1.00  0.00     0.262 C 
ATOM     21  C   UNL     1     -11.541 -43.989  29.512  1.00  0.00     0.262 C 
ATOM     22  N   UNL     1     -11.513 -45.486  29.675  1.00  0.00    -0.331 N 
ATOM     23  H   UNL     1     -10.775 -45.856  29.064  1.00  0.00     0.348 HD
BRANCH  22  24
ATOM     24  C   UNL     1     -11.121 -45.877  31.086  1.00  0.00     0.299 C 
BRANCH  24  25
ATOM     25  C   UNL     1      -9.734 -45.429  31.460  1.00  0.00     0.006 A 
ATOM     26  C   UNL     1      -9.539 -44.244  32.185  1.00  0.00     0.009 A 
ATOM     27  C   UNL     1      -8.617 -46.203  31.105  1.00  0.00     0.009 A 
ATOM     28  C   UNL     1      -8.252 -43.846  32.554  1.00  0.00     0.001 A 
ATOM     29  C   UNL     1      -7.334 -45.799  31.475  1.00  0.00     0.001 A 
ATOM     30  C   UNL     1      -7.152 -44.624  32.201  1.00  0.00     0.000 A 
ENDBRANCH  24  25
ENDBRANCH  22  24
ENDBRANCH   1  17
TORSDOF 7
ENDMDL
MODEL 3
REMARK VINA RESULT:   -10.077      2.447      3.869
REMARK INTER + INTRA:         -14.428
REMARK INTER:                 -14.093
REMARK INTRA:                  -0.335
REMARK UNBOUND:                -0.522
REMARK SMILES COc1cc2c(cc1OC)C(O)=C(C[C@H]1CC[N@H+](Cc3ccccc3)CC1)C2
REMARK SMILES IDX 14 1 13 2 11 3 6 4 28 5 7 6 5 7 8 8 4 9 3 10 12 11 9 13
REMARK SMILES IDX 10 14 2 15 1 16 15 17 27 18 16 19 26 20 17 21 18 22 19 24
REMARK SMILES IDX 20 25 21 26 25 27 22 28 24 29 23 30
REMARK H PARENT 12 12 18 23
ROOT
ATOM      1  C   UNL     1     -15.215 -42.514  23.842  1.00  0.00     0.039 C 
ENDROOT
BRANCH   1   2
ATOM      2  C   UNL     1     -16.527 -41.968  23.358  1.00  0.00    -0.023 C 
ATOM      3  C   UNL     1     -16.820 -41.138  22.340  1.00  0.00     0.122 C 
ATOM      4  C   UNL     1     -18.262 -40.931  22.276  1.00  0.00     0.024 A 
ATOM      5  C   UNL     1     -17.795 -42.410  24.073  1.00  0.00     0.071 C 
ATOM      6  C   UNL     1     -19.046 -40.166  21.433  1.00  0.00     0.062 A 
ATOM      7  C   UNL     1     -18.852 -41.679  23.297  1.00  0.00    -0.029 A 
ATOM      8  C   UNL     1     -20.439 -40.168  21.609  1.00  0.00     0.161 A 
ATOM      9  C   UNL     1     -20.224 -41.678  23.503  1.00  0.00     0.055 A 
ATOM     10  C   UNL     1     -21.037 -40.906  22.661  1.00  0.00     0.161 A 
BRANCH   3  11
ATOM     11  O   UNL     1     -15.959 -40.570  21.453  1.00  0.00    -0.507 OA
ATOM     12  H   UNL     1     -16.425 -40.497  20.601  1.00  0.00     0.293 HD
ENDBRANCH   3  11
BRANCH   8  13
ATOM     13  O   UNL     1     -21.088 -39.357  20.709  1.00  0.00    -0.493 OA
ATOM     14  C   UNL     1     -21.553 -39.984  19.518  1.00  0.00     0.278 C 
ENDBRANCH   8  13
BRANCH  10  15
ATOM     15  O   UNL     1     -22.394 -40.798  22.814  1.00  0.00    -0.493 OA
ATOM     16  C   UNL     1     -23.190 -41.952  22.583  1.00  0.00     0.278 C 
ENDBRANCH  10  15
ENDBRANCH   1   2
BRANCH   1  17
ATOM     17  C   UNL     1     -15.229 -43.362  25.128  1.00  0.00     0.004 C 
ATOM     18  C   UNL     1     -14.103 -44.407  25.140  1.00  0.00     0.065 C 
ATOM     19  C   UNL     1     -15.090 -42.467  26.368  1.00  0.00     0.065 C 
ATOM     20  C   UNL     1     -14.135 -45.238  26.414  1.00  0.00     0.262 C 
ATOM     21  C   UNL     1     -15.111 -43.289  27.649  1.00  0.00     0.262 C 
ATOM     22  N   UNL     1     -14.017 -44.324  27.614  1.00  0.00    -0.331 N 
ATOM     23  H   UNL     1     -13.120 -43.832  27.524  1.00  0.00     0.348 HD
BRANCH  22  24
ATOM     24  C   UNL     1     -13.944 -45.090  28.919  1.00  0.00     0.299 C 
BRANCH  24  25
ATOM     25  C   UNL     1     -12.560 -45.592  29.232  1.00  0.00     0.006 A 
ATOM     26  C   UNL     1     -11.698 -45.999  28.202  1.00  0.00     0.009 A 
ATOM     27  C   UNL     1     -12.105 -45.641  30.560  1.00  0.00     0.009 A 
ATOM     28  C   UNL     1     -10.406 -46.437  28.495  1.00  0.00     0.001 A 
ATOM     29  C   UNL     1     -10.813 -46.082  30.847  1.00  0.00     0.001 A 
ATOM     30  C   UNL     1      -9.964 -46.477  29.816  1.00  0.00     0.000 A 
ENDBRANCH  24  25
ENDBRANCH  22  24
ENDBRANCH   1  17
TORSDOF 7
ENDMDL
MODEL 4
REMARK VINA RESULT:    -9.961      3.751     10.288
REMARK INTER + INTRA:         -14.268
REMARK INTER:                 -13.694
REMARK INTRA:                  -0.574
REMARK UNBOUND:                -0.522
REMARK SMILES COc1cc2c(cc1OC)C(O)=C(C[C@H]1CC[N@H+](Cc3ccccc3)CC1)C2
REMARK SMILES IDX 14 1 13 2 11 3 6 4 28 5 7 6 5 7 8 8 4 9 3 10 12 11 9 13
REMARK SMILES IDX 10 14 2 15 1 16 15 17 27 18 16 19 26 20 17 21 18 22 19 24
REMARK SMILES IDX 20 25 21 26 25 27 22 28 24 29 23 30
REMARK H PARENT 12 12 18 23
ROOT
ATOM      1  C   UNL     1     -13.357 -45.432  27.723  1.00  0.00     0.039 C 
ENDROOT
BRANCH   1   2
ATOM      2  C   UNL     1     -12.455 -44.914  28.805  1.00  0.00    -0.023 C 
ATOM      3  C   UNL     1     -12.725 -44.468  30.045  1.00  0.00     0.122 C 
ATOM      4  C   UNL     1     -11.484 -44.096  30.713  1.00  0.00     0.024 A 
ATOM      5  C   UNL     1     -10.957 -44.889  28.539  1.00  0.00     0.071 C 
ATOM      6  C   UNL     1     -11.233 -43.577  31.970  1.00  0.00     0.062 A 
ATOM      7  C   UNL     1     -10.428 -44.340  29.832  1.00  0.00    -0.029 A 
ATOM      8  C   UNL     1      -9.906 -43.320  32.350  1.00  0.00     0.161 A 
ATOM      9  C   UNL     1      -9.111 -44.072  30.177  1.00  0.00     0.055 A 
ATOM     10  C   UNL     1      -8.837 -43.543  31.447  1.00  0.00     0.161 A 
BRANCH   3  11
ATOM     11  O   UNL     1     -13.938 -44.380  30.654  1.00  0.00    -0.507 OA
ATOM     12  H   UNL     1     -14.410 -45.216  30.485  1.00  0.00     0.293 HD
ENDBRANCH   3  11
BRANCH   8  13
ATOM     13  O   UNL     1      -9.809 -42.799  33.618  1.00  0.00    -0.493 OA
ATOM     14  C   UNL     1     -10.935 -42.062  34.084  1.00  0.00     0.278 C 
ENDBRANCH   8  13
BRANCH  10  15
ATOM     15  O   UNL     1      -7.578 -43.197  31.864  1.00  0.00    -0.493 OA
ATOM     16  C   UNL     1      -6.810 -44.168  32.561  1.00  0.00     0.278 C 
ENDBRANCH  10  15
ENDBRANCH   1   2
BRANCH   1  17
ATOM     17  C   UNL     1     -13.711 -44.470  26.572  1.00  0.00     0.004 C 
ATOM     18  C   UNL     1     -14.183 -45.222  25.318  1.00  0.00     0.065 C 
ATOM     19  C   UNL     1     -14.809 -43.488  27.006  1.00  0.00     0.065 C 
ATOM     20  C   UNL     1     -14.523 -44.258  24.192  1.00  0.00     0.262 C 
ATOM     21  C   UNL     1     -15.165 -42.524  25.882  1.00  0.00     0.262 C 
ATOM     22  N   UNL     1     -15.591 -43.294  24.660  1.00  0.00    -0.331 N 
ATOM     23  H   UNL     1     -16.410 -43.860  24.913  1.00  0.00     0.348 HD
BRANCH  22  24
ATOM     24  C   UNL     1     -16.051 -42.362  23.557  1.00  0.00     0.299 C 
BRANCH  24  25
ATOM     25  C   UNL     1     -17.506 -41.993  23.665  1.00  0.00     0.006 A 
ATOM     26  C   UNL     1     -18.135 -41.262  22.646  1.00  0.00     0.009 A 
ATOM     27  C   UNL     1     -18.261 -42.393  24.781  1.00  0.00     0.009 A 
ATOM     28  C   UNL     1     -19.491 -40.946  22.738  1.00  0.00     0.001 A 
ATOM     29  C   UNL     1     -19.615 -42.072  24.867  1.00  0.00     0.001 A 
ATOM     30  C   UNL     1     -20.230 -41.352  23.846  1.00  0.00     0.000 A 
ENDBRANCH  24  25
ENDBRANCH  22  24
ENDBRANCH   1  17
TORSDOF 7
ENDMDL
MODEL 5
REMARK VINA RESULT:    -9.921      2.988      5.875
REMARK INTER + INTRA:         -14.213
REMARK INTER:                 -13.508
REMARK INTRA:                  -0.704
REMARK UNBOUND:                -0.522
REMARK SMILES COc1cc2c(cc1OC)C(O)=C(C[C@H]1CC[N@H+](Cc3ccccc3)CC1)C2
REMARK SMILES IDX 14 1 13 2 11 3 6 4 28 5 7 6 5 7 8 8 4 9 3 10 12 11 9 13
REMARK SMILES IDX 10 14 2 15 1 16 15 17 27 18 16 19 26 20 17 21 18 22 19 24
REMARK SMILES IDX 20 25 21 26 25 27 22 28 24 29 23 30
REMARK H PARENT 12 12 18 23
ROOT
ATOM      1  C   UNL     1     -18.819 -42.775  24.386  1.00  0.00     0.039 C 
ENDROOT
BRANCH   1   2
ATOM      2  C   UNL     1     -19.498 -41.739  23.539  1.00  0.00    -0.023 C 
ATOM      3  C   UNL     1     -19.092 -41.098  22.428  1.00  0.00     0.122 C 
ATOM      4  C   UNL     1     -20.141 -40.193  21.973  1.00  0.00     0.024 A 
ATOM      5  C   UNL     1     -20.906 -41.309  23.922  1.00  0.00     0.071 C 
ATOM      6  C   UNL     1     -20.203 -39.318  20.905  1.00  0.00     0.062 A 
ATOM      7  C   UNL     1     -21.222 -40.309  22.850  1.00  0.00    -0.029 A 
ATOM      8  C   UNL     1     -21.372 -38.564  20.707  1.00  0.00     0.161 A 
ATOM      9  C   UNL     1     -22.378 -39.558  22.687  1.00  0.00     0.055 A 
ATOM     10  C   UNL     1     -22.459 -38.661  21.611  1.00  0.00     0.161 A 
BRANCH   3  11
ATOM     11  O   UNL     1     -17.914 -41.246  21.763  1.00  0.00    -0.507 OA
ATOM     12  H   UNL     1     -17.341 -40.501  22.018  1.00  0.00     0.293 HD
ENDBRANCH   3  11
BRANCH   8  13
ATOM     13  O   UNL     1     -21.288 -37.732  19.617  1.00  0.00    -0.493 OA
ATOM     14  C   UNL     1     -21.968 -38.164  18.442  1.00  0.00     0.278 C 
ENDBRANCH   8  13
BRANCH  10  15
ATOM     15  O   UNL     1     -23.534 -37.840  21.394  1.00  0.00    -0.493 OA
ATOM     16  C   UNL     1     -24.718 -38.410  20.853  1.00  0.00     0.278 C 
ENDBRANCH  10  15
ENDBRANCH   1   2
BRANCH   1  17
ATOM     17  C   UNL     1     -17.449 -42.412  24.990  1.00  0.00     0.004 C 
ATOM     18  C   UNL     1     -17.353 -42.800  26.473  1.00  0.00     0.065 C 
ATOM     19  C   UNL     1     -16.317 -43.108  24.220  1.00  0.00     0.065 C 
ATOM     20  C   UNL     1     -15.996 -42.432  27.054  1.00  0.00     0.262 C 
ATOM     21  C   UNL     1     -14.954 -42.753  24.799  1.00  0.00     0.262 C 
ATOM     22  N   UNL     1     -14.906 -43.116  26.260  1.00  0.00    -0.331 N 
ATOM     23  H   UNL     1     -15.072 -44.126  26.339  1.00  0.00     0.348 HD
BRANCH  22  24
ATOM     24  C   UNL     1     -13.528 -42.872  26.841  1.00  0.00     0.299 C 
BRANCH  24  25
ATOM     25  C   UNL     1     -12.844 -44.136  27.289  1.00  0.00     0.006 A 
ATOM     26  C   UNL     1     -13.349 -45.391  26.919  1.00  0.00     0.009 A 
ATOM     27  C   UNL     1     -11.676 -44.074  28.068  1.00  0.00     0.009 A 
ATOM     28  C   UNL     1     -12.695 -46.559  27.313  1.00  0.00     0.001 A 
ATOM     29  C   UNL     1     -11.028 -45.246  28.460  1.00  0.00     0.001 A 
ATOM     30  C   UNL     1     -11.536 -46.486  28.081  1.00  0.00     0.000 A 
ENDBRANCH  24  25
ENDBRANCH  22  24
ENDBRANCH   1  17
TORSDOF 7
ENDMDL
MODEL 6
REMARK VINA RESULT:    -9.602      2.013      3.213
REMARK INTER + INTRA:         -13.772
REMARK INTER:                 -13.728
REMARK INTRA:                  -0.044
REMARK UNBOUND:                -0.522
REMARK SMILES COc1cc2c(cc1OC)C(O)=C(C[C@H]1CC[N@H+](Cc3ccccc3)CC1)C2
REMARK SMILES IDX 14 1 13 2 11 3 6 4 28 5 7 6 5 7 8 8 4 9 3 10 12 11 9 13
REMARK SMILES IDX 10 14 2 15 1 16 15 17 27 18 16 19 26 20 17 21 18 22 19 24
REMARK SMILES IDX 20 25 21 26 25 27 22 28 24 29 23 30
REMARK H PARENT 12 12 18 23
ROOT
ATOM      1  C   UNL     1     -13.843 -43.242  25.500  1.00  0.00     0.039 C 
ENDROOT
BRANCH   1   2
ATOM      2  C   UNL     1     -15.279 -42.981  25.151  1.00  0.00    -0.023 C 
ATOM      3  C   UNL     1     -16.355 -42.769  25.929  1.00  0.00     0.122 C 
ATOM      4  C   UNL     1     -17.528 -42.541  25.093  1.00  0.00     0.024 A 
ATOM      5  C   UNL     1     -15.655 -42.895  23.679  1.00  0.00     0.071 C 
ATOM      6  C   UNL     1     -18.852 -42.297  25.409  1.00  0.00     0.062 A 
ATOM      7  C   UNL     1     -17.127 -42.613  23.757  1.00  0.00    -0.029 A 
ATOM      8  C   UNL     1     -19.777 -42.106  24.370  1.00  0.00     0.161 A 
ATOM      9  C   UNL     1     -18.028 -42.450  22.714  1.00  0.00     0.055 A 
ATOM     10  C   UNL     1     -19.376 -42.205  23.014  1.00  0.00     0.161 A 
BRANCH   3  11
ATOM     11  O   UNL     1     -16.407 -42.729  27.288  1.00  0.00    -0.507 OA
ATOM     12  H   UNL     1     -16.245 -43.634  27.612  1.00  0.00     0.293 HD
ENDBRANCH   3  11
BRANCH   8  13
ATOM     13  O   UNL     1     -21.052 -41.883  24.830  1.00  0.00    -0.493 OA
ATOM     14  C   UNL     1     -21.559 -40.563  24.668  1.00  0.00     0.278 C 
ENDBRANCH   8  13
BRANCH  10  15
ATOM     15  O   UNL     1     -20.351 -42.080  22.059  1.00  0.00    -0.493 OA
ATOM     16  C   UNL     1     -20.195 -41.074  21.068  1.00  0.00     0.278 C 
ENDBRANCH  10  15
ENDBRANCH   1   2
BRANCH   1  17
ATOM     17  C   UNL     1     -13.513 -43.542  26.975  1.00  0.00     0.004 C 
ATOM     18  C   UNL     1     -13.745 -45.019  27.328  1.00  0.00     0.065 C 
ATOM     19  C   UNL     1     -12.054 -43.179  27.288  1.00  0.00     0.065 C 
ATOM     20  C   UNL     1     -13.419 -45.295  28.788  1.00  0.00     0.262 C 
ATOM     21  C   UNL     1     -11.714 -43.460  28.745  1.00  0.00     0.262 C 
ATOM     22  N   UNL     1     -11.984 -44.907  29.065  1.00  0.00    -0.331 N 
ATOM     23  H   UNL     1     -11.397 -45.481  28.448  1.00  0.00     0.348 HD
BRANCH  22  24
ATOM     24  C   UNL     1     -11.557 -45.245  30.479  1.00  0.00     0.299 C 
BRANCH  24  25
ATOM     25  C   UNL     1     -12.228 -44.390  31.520  1.00  0.00     0.006 A 
ATOM     26  C   UNL     1     -11.515 -43.377  32.179  1.00  0.00     0.009 A 
ATOM     27  C   UNL     1     -13.584 -44.581  31.831  1.00  0.00     0.009 A 
ATOM     28  C   UNL     1     -12.149 -42.568  33.123  1.00  0.00     0.001 A 
ATOM     29  C   UNL     1     -14.212 -43.771  32.776  1.00  0.00     0.001 A 
ATOM     30  C   UNL     1     -13.496 -42.764  33.420  1.00  0.00     0.000 A 
ENDBRANCH  24  25
ENDBRANCH  22  24
ENDBRANCH   1  17
TORSDOF 7
ENDMDL
MODEL 7
REMARK VINA RESULT:    -9.503      3.052      6.215
REMARK INTER + INTRA:         -13.636
REMARK INTER:                 -12.963
REMARK INTRA:                  -0.672
REMARK UNBOUND:                -0.522
REMARK SMILES COc1cc2c(cc1OC)C(O)=C(C[C@H]1CC[N@H+](Cc3ccccc3)CC1)C2
REMARK SMILES IDX 14 1 13 2 11 3 6 4 28 5 7 6 5 7 8 8 4 9 3 10 12 11 9 13
REMARK SMILES IDX 10 14 2 15 1 16 15 17 27 18 16 19 26 20 17 21 18 22 19 24
REMARK SMILES IDX 20 25 21 26 25 27 22 28 24 29 23 30
REMARK H PARENT 12 12 18 23
ROOT
ATOM      1  C   UNL     1     -19.137 -42.721  24.893  1.00  0.00     0.039 C 
ENDROOT
BRANCH   1   2
ATOM      2  C   UNL     1     -19.880 -41.726  24.050  1.00  0.00    -0.023 C 
ATOM      3  C   UNL     1     -21.094 -41.167  24.202  1.00  0.00     0.122 C 
ATOM      4  C   UNL     1     -21.347 -40.237  23.108  1.00  0.00     0.024 A 
ATOM      5  C   UNL     1     -19.193 -41.185  22.805  1.00  0.00     0.071 C 
ATOM      6  C   UNL     1     -22.436 -39.440  22.809  1.00  0.00     0.062 A 
ATOM      7  C   UNL     1     -20.228 -40.238  22.273  1.00  0.00    -0.029 A 
ATOM      8  C   UNL     1     -22.391 -38.623  21.668  1.00  0.00     0.161 A 
ATOM      9  C   UNL     1     -20.170 -39.455  21.128  1.00  0.00     0.055 A 
ATOM     10  C   UNL     1     -21.267 -38.642  20.805  1.00  0.00     0.161 A 
BRANCH   3  11
ATOM     11  O   UNL     1     -21.984 -41.369  25.211  1.00  0.00    -0.507 OA
ATOM     12  H   UNL     1     -22.539 -40.571  25.275  1.00  0.00     0.293 HD
ENDBRANCH   3  11
BRANCH   8  13
ATOM     13  O   UNL     1     -23.544 -37.896  21.491  1.00  0.00    -0.493 OA
ATOM     14  C   UNL     1     -24.654 -38.599  20.944  1.00  0.00     0.278 C 
ENDBRANCH   8  13
BRANCH  10  15
ATOM     15  O   UNL     1     -21.329 -37.874  19.673  1.00  0.00    -0.493 OA
ATOM     16  C   UNL     1     -21.922 -38.437  18.511  1.00  0.00     0.278 C 
ENDBRANCH  10  15
ENDBRANCH   1   2
BRANCH   1  17
ATOM     17  C   UNL     1     -17.696 -42.367  25.306  1.00  0.00     0.004 C 
ATOM     18  C   UNL     1     -17.388 -42.798  26.747  1.00  0.00     0.065 C 
ATOM     19  C   UNL     1     -16.684 -43.031  24.361  1.00  0.00     0.065 C 
ATOM     20  C   UNL     1     -15.963 -42.437  27.139  1.00  0.00     0.262 C 
ATOM     21  C   UNL     1     -15.253 -42.683  24.749  1.00  0.00     0.262 C 
ATOM     22  N   UNL     1     -14.995 -43.090  26.177  1.00  0.00    -0.331 N 
ATOM     23  H   UNL     1     -15.146 -44.103  26.248  1.00  0.00     0.348 HD
BRANCH  22  24
ATOM     24  C   UNL     1     -13.549 -42.854  26.563  1.00  0.00     0.299 C 
BRANCH  24  25
ATOM     25  C   UNL     1     -12.895 -44.066  27.169  1.00  0.00     0.006 A 
ATOM     26  C   UNL     1     -11.781 -43.929  28.012  1.00  0.00     0.009 A 
ATOM     27  C   UNL     1     -13.403 -45.351  26.915  1.00  0.00     0.009 A 
ATOM     28  C   UNL     1     -11.194 -45.053  28.594  1.00  0.00     0.001 A 
ATOM     29  C   UNL     1     -12.810 -46.470  27.498  1.00  0.00     0.001 A 
ATOM     30  C   UNL     1     -11.709 -46.322  28.338  1.00  0.00     0.000 A 
ENDBRANCH  24  25
ENDBRANCH  22  24
ENDBRANCH   1  17
TORSDOF 7
ENDMDL
MODEL 8
REMARK VINA RESULT:    -9.347      2.962      5.541
REMARK INTER + INTRA:         -13.420
REMARK INTER:                 -12.694
REMARK INTRA:                  -0.726
REMARK UNBOUND:                -0.522
REMARK SMILES COc1cc2c(cc1OC)C(O)=C(C[C@H]1CC[N@H+](Cc3ccccc3)CC1)C2
REMARK SMILES IDX 14 1 13 2 11 3 6 4 28 5 7 6 5 7 8 8 4 9 3 10 12 11 9 13
REMARK SMILES IDX 10 14 2 15 1 16 15 17 27 18 16 19 26 20 17 21 18 22 19 24
REMARK SMILES IDX 20 25 21 26 25 27 22 28 24 29 23 30
REMARK H PARENT 12 12 18 23
ROOT
ATOM      1  C   UNL     1     -18.349 -42.801  23.991  1.00  0.00     0.039 C 
ENDROOT
BRANCH   1   2
ATOM      2  C   UNL     1     -19.608 -42.653  24.794  1.00  0.00    -0.023 C 
ATOM      3  C   UNL     1     -20.556 -43.547  25.128  1.00  0.00     0.122 C 
ATOM      4  C   UNL     1     -21.574 -42.900  25.946  1.00  0.00     0.024 A 
ATOM      5  C   UNL     1     -19.919 -41.291  25.396  1.00  0.00     0.071 C 
ATOM      6  C   UNL     1     -22.740 -43.378  26.516  1.00  0.00     0.062 A 
ATOM      7  C   UNL     1     -21.209 -41.562  26.113  1.00  0.00    -0.029 A 
ATOM      8  C   UNL     1     -23.536 -42.505  27.276  1.00  0.00     0.161 A 
ATOM      9  C   UNL     1     -21.992 -40.677  26.841  1.00  0.00     0.055 A 
ATOM     10  C   UNL     1     -23.180 -41.141  27.424  1.00  0.00     0.161 A 
BRANCH   3  11
ATOM     11  O   UNL     1     -20.604 -44.869  24.811  1.00  0.00    -0.507 OA
ATOM     12  H   UNL     1     -20.821 -45.356  25.626  1.00  0.00     0.293 HD
ENDBRANCH   3  11
BRANCH   8  13
ATOM     13  O   UNL     1     -24.664 -43.113  27.771  1.00  0.00    -0.493 OA
ATOM     14  C   UNL     1     -24.500 -43.868  28.966  1.00  0.00     0.278 C 
ENDBRANCH   8  13
BRANCH  10  15
ATOM     15  O   UNL     1     -24.045 -40.336  28.116  1.00  0.00    -0.493 OA
ATOM     16  C   UNL     1     -24.551 -39.178  27.466  1.00  0.00     0.278 C 
ENDBRANCH  10  15
ENDBRANCH   1   2
BRANCH   1  17
ATOM     17  C   UNL     1     -17.019 -42.439  24.680  1.00  0.00     0.004 C 
ATOM     18  C   UNL     1     -17.023 -42.813  26.170  1.00  0.00     0.065 C 
ATOM     19  C   UNL     1     -15.843 -43.147  23.993  1.00  0.00     0.065 C 
ATOM     20  C   UNL     1     -15.705 -42.445  26.835  1.00  0.00     0.262 C 
ATOM     21  C   UNL     1     -14.519 -42.792  24.656  1.00  0.00     0.262 C 
ATOM     22  N   UNL     1     -14.568 -43.142  26.120  1.00  0.00    -0.331 N 
ATOM     23  H   UNL     1     -14.745 -44.151  26.198  1.00  0.00     0.348 HD
BRANCH  22  24
ATOM     24  C   UNL     1     -13.231 -42.899  26.789  1.00  0.00     0.299 C 
BRANCH  24  25
ATOM     25  C   UNL     1     -12.612 -44.152  27.346  1.00  0.00     0.006 A 
ATOM     26  C   UNL     1     -13.194 -45.405  27.101  1.00  0.00     0.009 A 
ATOM     27  C   UNL     1     -11.431 -44.086  28.104  1.00  0.00     0.009 A 
ATOM     28  C   UNL     1     -12.602 -46.568  27.597  1.00  0.00     0.001 A 
ATOM     29  C   UNL     1     -10.845 -45.252  28.597  1.00  0.00     0.001 A 
ATOM     30  C   UNL     1     -11.428 -46.491  28.343  1.00  0.00     0.000 A 
ENDBRANCH  24  25
ENDBRANCH  22  24
ENDBRANCH   1  17
TORSDOF 7
ENDMDL
MODEL 9
REMARK VINA RESULT:    -9.070      1.765      3.107
REMARK INTER + INTRA:         -13.039
REMARK INTER:                 -12.558
REMARK INTRA:                  -0.481
REMARK UNBOUND:                -0.522
REMARK SMILES COc1cc2c(cc1OC)C(O)=C(C[C@H]1CC[N@H+](Cc3ccccc3)CC1)C2
REMARK SMILES IDX 14 1 13 2 11 3 6 4 28 5 7 6 5 7 8 8 4 9 3 10 12 11 9 13
REMARK SMILES IDX 10 14 2 15 1 16 15 17 27 18 16 19 26 20 17 21 18 22 19 24
REMARK SMILES IDX 20 25 21 26 25 27 22 28 24 29 23 30
REMARK H PARENT 12 12 18 23
ROOT
ATOM      1  C   UNL     1     -15.686 -42.800  24.774  1.00  0.00     0.039 C 
ENDROOT
BRANCH   1   2
ATOM      2  C   UNL     1     -17.112 -42.357  24.929  1.00  0.00    -0.023 C 
ATOM      3  C   UNL     1     -18.023 -41.969  24.018  1.00  0.00     0.122 C 
ATOM      4  C   UNL     1     -19.281 -41.657  24.685  1.00  0.00     0.024 A 
ATOM      5  C   UNL     1     -17.712 -42.349  26.327  1.00  0.00     0.071 C 
ATOM      6  C   UNL     1     -20.495 -41.209  24.199  1.00  0.00     0.062 A 
ATOM      7  C   UNL     1     -19.111 -41.878  26.054  1.00  0.00    -0.029 A 
ATOM      8  C   UNL     1     -21.553 -40.998  25.098  1.00  0.00     0.161 A 
ATOM      9  C   UNL     1     -20.136 -41.655  26.962  1.00  0.00     0.055 A 
ATOM     10  C   UNL     1     -21.375 -41.196  26.490  1.00  0.00     0.161 A 
BRANCH   3  11
ATOM     11  O   UNL     1     -17.870 -41.888  22.669  1.00  0.00    -0.507 OA
ATOM     12  H   UNL     1     -17.005 -41.474  22.498  1.00  0.00     0.293 HD
ENDBRANCH   3  11
BRANCH   8  13
ATOM     13  O   UNL     1     -22.693 -40.545  24.478  1.00  0.00    -0.493 OA
ATOM     14  C   UNL     1     -22.624 -40.398  23.063  1.00  0.00     0.278 C 
ENDBRANCH   8  13
BRANCH  10  15
ATOM     15  O   UNL     1     -22.431 -40.898  27.309  1.00  0.00    -0.493 OA
ATOM     16  C   UNL     1     -23.460 -41.866  27.460  1.00  0.00     0.278 C 
ENDBRANCH  10  15
ENDBRANCH   1   2
BRANCH   1  17
ATOM     17  C   UNL     1     -15.199 -43.954  25.671  1.00  0.00     0.004 C 
ATOM     18  C   UNL     1     -14.174 -44.846  24.955  1.00  0.00     0.065 C 
ATOM     19  C   UNL     1     -14.567 -43.407  26.960  1.00  0.00     0.065 C 
ATOM     20  C   UNL     1     -13.707 -45.982  25.853  1.00  0.00     0.262 C 
ATOM     21  C   UNL     1     -14.088 -44.536  27.863  1.00  0.00     0.262 C 
ATOM     22  N   UNL     1     -13.111 -45.409  27.120  1.00  0.00    -0.331 N 
ATOM     23  H   UNL     1     -12.318 -44.823  26.835  1.00  0.00     0.348 HD
BRANCH  22  24
ATOM     24  C   UNL     1     -12.535 -46.480  28.023  1.00  0.00     0.299 C 
BRANCH  24  25
ATOM     25  C   UNL     1     -11.668 -45.925  29.120  1.00  0.00     0.006 A 
ATOM     26  C   UNL     1     -12.116 -45.917  30.450  1.00  0.00     0.009 A 
ATOM     27  C   UNL     1     -10.387 -45.425  28.830  1.00  0.00     0.009 A 
ATOM     28  C   UNL     1     -11.297 -45.425  31.468  1.00  0.00     0.001 A 
ATOM     29  C   UNL     1      -9.574 -44.934  29.852  1.00  0.00     0.001 A 
ATOM     30  C   UNL     1     -10.028 -44.937  31.169  1.00  0.00     0.000 A 
ENDBRANCH  24  25
ENDBRANCH  22  24
ENDBRANCH   1  17
TORSDOF 7
ENDMDL
