MODEL 1
REMARK VINA RESULT:    -7.895      0.000      0.000
REMARK INTER + INTRA:         -10.911
REMARK INTER:                 -10.433
REMARK INTRA:                  -0.478
REMARK UNBOUND:                -0.478
REMARK SMILES COc1ccc([C@@H](C)NS(N)(=O)=O)cc1OC
REMARK SMILES IDX 7 1 8 2 6 3 3 4 4 5 15 6 5 7 14 8 2 9 1 10 16 11 17 12 9 13
REMARK SMILES IDX 10 15 12 16 13 17 11 18
REMARK H PARENT 9 14 11 19 11 20
ROOT
ATOM      1  C   UNL     1     -12.383 -45.222  28.775  1.00  0.00     0.098 C 
ATOM      2  C   UNL     1     -12.475 -46.272  27.662  1.00  0.00     0.031 C 
ENDROOT
BRANCH   1   3
ATOM      3  C   UNL     1     -11.267 -44.211  28.574  1.00  0.00    -0.026 A 
ATOM      4  C   UNL     1      -9.112 -42.415  28.217  1.00  0.00     0.160 A 
ATOM      5  C   UNL     1     -10.281 -42.283  27.462  1.00  0.00     0.051 A 
ATOM      6  C   UNL     1      -9.006 -43.468  29.145  1.00  0.00     0.161 A 
ATOM      7  C   UNL     1     -11.342 -43.178  27.632  1.00  0.00     0.009 A 
ATOM      8  C   UNL     1     -10.081 -44.349  29.317  1.00  0.00     0.055 A 
BRANCH   4   9
ATOM      9  O   UNL     1      -8.023 -41.586  28.113  1.00  0.00    -0.493 OA
ATOM     10  C   UNL     1      -7.560 -41.263  26.811  1.00  0.00     0.278 C 
ENDBRANCH   4   9
BRANCH   6  11
ATOM     11  O   UNL     1      -7.825 -43.546  29.841  1.00  0.00    -0.493 OA
ATOM     12  C   UNL     1      -7.905 -43.551  31.260  1.00  0.00     0.278 C 
ENDBRANCH   6  11
ENDBRANCH   1   3
BRANCH   1  13
ATOM     13  N   UNL     1     -12.212 -45.943  30.054  1.00  0.00    -0.195 NA
ATOM     14  H   UNL     1     -11.279 -45.804  30.449  1.00  0.00     0.143 HD
BRANCH  13  15
ATOM     15  S   UNL     1     -13.337 -45.691  31.254  1.00  0.00     0.274 S 
ATOM     16  O   UNL     1     -13.856 -46.982  31.619  1.00  0.00    -0.195 OA
ATOM     17  O   UNL     1     -12.815 -44.741  32.201  1.00  0.00    -0.195 OA
BRANCH  15  18
ATOM     18  N   UNL     1     -14.481 -44.930  30.337  1.00  0.00    -0.216 NA
ATOM     19  H   UNL     1     -14.555 -43.932  30.495  1.00  0.00     0.138 HD
ATOM     20  H   UNL     1     -14.482 -45.253  29.372  1.00  0.00     0.138 HD
ENDBRANCH  15  18
ENDBRANCH  13  15
ENDBRANCH   1  13
TORSDOF 6
ENDMDL
MODEL 2
REMARK VINA RESULT:    -7.470      2.563      3.676
REMARK INTER + INTRA:         -10.349
REMARK INTER:                  -9.873
REMARK INTRA:                  -0.476
REMARK UNBOUND:                -0.478
REMARK SMILES COc1ccc([C@@H](C)NS(N)(=O)=O)cc1OC
REMARK SMILES IDX 7 1 8 2 6 3 3 4 4 5 15 6 5 7 14 8 2 9 1 10 16 11 17 12 9 13
REMARK SMILES IDX 10 15 12 16 13 17 11 18
REMARK H PARENT 9 14 11 19 11 20
ROOT
ATOM      1  C   UNL     1     -12.222 -45.361  29.757  1.00  0.00     0.098 C 
ATOM      2  C   UNL     1     -13.012 -46.171  30.791  1.00  0.00     0.031 C 
ENDROOT
BRANCH   1   3
ATOM      3  C   UNL     1     -10.907 -44.810  30.284  1.00  0.00    -0.026 A 
ATOM      4  C   UNL     1      -8.484 -43.685  31.210  1.00  0.00     0.160 A 
ATOM      5  C   UNL     1      -9.224 -44.549  32.023  1.00  0.00     0.051 A 
ATOM      6  C   UNL     1      -8.968 -43.359  29.930  1.00  0.00     0.161 A 
ATOM      7  C   UNL     1     -10.427 -45.098  31.568  1.00  0.00     0.009 A 
ATOM      8  C   UNL     1     -10.167 -43.926  29.479  1.00  0.00     0.055 A 
BRANCH   4   9
ATOM      9  O   UNL     1      -7.297 -43.101  31.576  1.00  0.00    -0.493 OA
ATOM     10  C   UNL     1      -6.927 -43.158  32.946  1.00  0.00     0.278 C 
ENDBRANCH   4   9
BRANCH   6  11
ATOM     11  O   UNL     1      -8.198 -42.495  29.192  1.00  0.00    -0.493 OA
ATOM     12  C   UNL     1      -8.570 -42.286  27.836  1.00  0.00     0.278 C 
ENDBRANCH   6  11
ENDBRANCH   1   3
BRANCH   1  13
ATOM     13  N   UNL     1     -13.096 -44.265  29.288  1.00  0.00    -0.195 NA
ATOM     14  H   UNL     1     -12.688 -43.346  29.469  1.00  0.00     0.143 HD
BRANCH  13  15
ATOM     15  S   UNL     1     -13.627 -44.305  27.711  1.00  0.00     0.274 S 
ATOM     16  O   UNL     1     -13.163 -45.544  27.145  1.00  0.00    -0.195 OA
ATOM     17  O   UNL     1     -14.995 -43.865  27.660  1.00  0.00    -0.195 OA
BRANCH  15  18
ATOM     18  N   UNL     1     -12.672 -43.094  27.119  1.00  0.00    -0.216 NA
ATOM     19  H   UNL     1     -13.140 -42.203  27.008  1.00  0.00     0.138 HD
ATOM     20  H   UNL     1     -11.747 -43.088  27.543  1.00  0.00     0.138 HD
ENDBRANCH  15  18
ENDBRANCH  13  15
ENDBRANCH   1  13
TORSDOF 6
ENDMDL
MODEL 3
REMARK VINA RESULT:    -7.393      2.715      3.579
REMARK INTER + INTRA:         -10.248
REMARK INTER:                  -9.874
REMARK INTRA:                  -0.374
REMARK UNBOUND:                -0.478
REMARK SMILES COc1ccc([C@@H](C)NS(N)(=O)=O)cc1OC
REMARK SMILES IDX 7 1 8 2 6 3 3 4 4 5 15 6 5 7 14 8 2 9 1 10 16 11 17 12 9 13
REMARK SMILES IDX 10 15 12 16 13 17 11 18
REMARK H PARENT 9 14 11 19 11 20
ROOT
ATOM      1  C   UNL     1     -12.129 -44.952  27.741  1.00  0.00     0.098 C 
ATOM      2  C   UNL     1     -12.293 -46.473  27.656  1.00  0.00     0.031 C 
ENDROOT
BRANCH   1   3
ATOM      3  C   UNL     1     -10.960 -44.508  28.605  1.00  0.00    -0.026 A 
ATOM      4  C   UNL     1      -8.806 -43.572  30.178  1.00  0.00     0.160 A 
ATOM      5  C   UNL     1      -9.621 -44.611  30.635  1.00  0.00     0.051 A 
ATOM      6  C   UNL     1      -9.080 -42.976  28.933  1.00  0.00     0.161 A 
ATOM      7  C   UNL     1     -10.693 -45.067  29.860  1.00  0.00     0.009 A 
ATOM      8  C   UNL     1     -10.147 -43.450  28.160  1.00  0.00     0.055 A 
BRANCH   4   9
ATOM      9  O   UNL     1      -7.737 -43.062  30.872  1.00  0.00    -0.493 OA
ATOM     10  C   UNL     1      -7.638 -43.370  32.254  1.00  0.00     0.278 C 
ENDBRANCH   4   9
BRANCH   6  11
ATOM     11  O   UNL     1      -8.247 -41.952  28.554  1.00  0.00    -0.493 OA
ATOM     12  C   UNL     1      -8.034 -41.768  27.161  1.00  0.00     0.278 C 
ENDBRANCH   6  11
ENDBRANCH   1   3
BRANCH   1  13
ATOM     13  N   UNL     1     -13.399 -44.395  28.253  1.00  0.00    -0.195 NA
ATOM     14  H   UNL     1     -13.245 -43.727  29.011  1.00  0.00     0.143 HD
BRANCH  13  15
ATOM     15  S   UNL     1     -14.458 -43.720  27.160  1.00  0.00     0.274 S 
ATOM     16  O   UNL     1     -14.545 -44.627  26.047  1.00  0.00    -0.195 OA
ATOM     17  O   UNL     1     -15.601 -43.205  27.865  1.00  0.00    -0.195 OA
BRANCH  15  18
ATOM     18  N   UNL     1     -13.519 -42.442  26.695  1.00  0.00    -0.216 NA
ATOM     19  H   UNL     1     -12.752 -42.683  26.080  1.00  0.00     0.138 HD
ATOM     20  H   UNL     1     -14.072 -41.622  26.456  1.00  0.00     0.138 HD
ENDBRANCH  15  18
ENDBRANCH  13  15
ENDBRANCH   1  13
TORSDOF 6
ENDMDL
MODEL 4
REMARK VINA RESULT:    -7.227      2.062      3.471
REMARK INTER + INTRA:         -10.028
REMARK INTER:                  -9.673
REMARK INTRA:                  -0.355
REMARK UNBOUND:                -0.478
REMARK SMILES COc1ccc([C@@H](C)NS(N)(=O)=O)cc1OC
REMARK SMILES IDX 7 1 8 2 6 3 3 4 4 5 15 6 5 7 14 8 2 9 1 10 16 11 17 12 9 13
REMARK SMILES IDX 10 15 12 16 13 17 11 18
REMARK H PARENT 9 14 11 19 11 20
ROOT
ATOM      1  C   UNL     1     -12.767 -44.544  30.457  1.00  0.00     0.098 C 
ATOM      2  C   UNL     1     -13.017 -45.888  29.764  1.00  0.00     0.031 C 
ENDROOT
BRANCH   1   3
ATOM      3  C   UNL     1     -11.299 -44.256  30.725  1.00  0.00    -0.026 A 
ATOM      4  C   UNL     1      -8.584 -43.611  31.180  1.00  0.00     0.160 A 
ATOM      5  C   UNL     1      -9.288 -44.405  32.089  1.00  0.00     0.051 A 
ATOM      6  C   UNL     1      -9.245 -43.113  30.042  1.00  0.00     0.161 A 
ATOM      7  C   UNL     1     -10.634 -44.715  31.868  1.00  0.00     0.009 A 
ATOM      8  C   UNL     1     -10.589 -43.442  29.824  1.00  0.00     0.055 A 
BRANCH   4   9
ATOM      9  O   UNL     1      -7.265 -43.257  31.318  1.00  0.00    -0.493 OA
ATOM     10  C   UNL     1      -6.739 -43.166  32.634  1.00  0.00     0.278 C 
ENDBRANCH   4   9
BRANCH   6  11
ATOM     11  O   UNL     1      -8.496 -42.330  29.199  1.00  0.00    -0.493 OA
ATOM     12  C   UNL     1      -8.842 -42.340  27.820  1.00  0.00     0.278 C 
ENDBRANCH   6  11
ENDBRANCH   1   3
BRANCH   1  13
ATOM     13  N   UNL     1     -13.538 -44.544  31.718  1.00  0.00    -0.195 NA
ATOM     14  H   UNL     1     -13.007 -44.949  32.491  1.00  0.00     0.143 HD
BRANCH  13  15
ATOM     15  S   UNL     1     -14.203 -43.107  32.231  1.00  0.00     0.274 S 
ATOM     16  O   UNL     1     -13.112 -42.195  32.450  1.00  0.00    -0.195 OA
ATOM     17  O   UNL     1     -15.351 -42.800  31.420  1.00  0.00    -0.195 OA
BRANCH  15  18
ATOM     18  N   UNL     1     -14.736 -43.618  33.709  1.00  0.00    -0.216 NA
ATOM     19  H   UNL     1     -15.197 -44.520  33.703  1.00  0.00     0.138 HD
ATOM     20  H   UNL     1     -14.058 -43.442  34.447  1.00  0.00     0.138 HD
ENDBRANCH  15  18
ENDBRANCH  13  15
ENDBRANCH   1  13
TORSDOF 6
ENDMDL
MODEL 5
REMARK VINA RESULT:    -7.136      4.555      5.337
REMARK INTER + INTRA:          -9.908
REMARK INTER:                  -9.594
REMARK INTRA:                  -0.313
REMARK UNBOUND:                -0.478
REMARK SMILES COc1ccc([C@@H](C)NS(N)(=O)=O)cc1OC
REMARK SMILES IDX 7 1 8 2 6 3 3 4 4 5 15 6 5 7 14 8 2 9 1 10 16 11 17 12 9 13
REMARK SMILES IDX 10 15 12 16 13 17 11 18
REMARK H PARENT 9 14 11 19 11 20
ROOT
ATOM      1  C   UNL     1     -14.664 -43.924  26.651  1.00  0.00     0.098 C 
ATOM      2  C   UNL     1     -15.617 -43.325  27.691  1.00  0.00     0.031 C 
ENDROOT
BRANCH   1   3
ATOM      3  C   UNL     1     -13.372 -44.464  27.243  1.00  0.00    -0.026 A 
ATOM      4  C   UNL     1     -10.967 -45.376  28.418  1.00  0.00     0.160 A 
ATOM      5  C   UNL     1     -11.940 -46.284  27.992  1.00  0.00     0.051 A 
ATOM      6  C   UNL     1     -11.204 -43.996  28.279  1.00  0.00     0.161 A 
ATOM      7  C   UNL     1     -13.134 -45.832  27.419  1.00  0.00     0.009 A 
ATOM      8  C   UNL     1     -12.396 -43.555  27.691  1.00  0.00     0.055 A 
BRANCH   4   9
ATOM      9  O   UNL     1      -9.772 -45.731  28.990  1.00  0.00    -0.493 OA
ATOM     10  C   UNL     1      -9.805 -46.304  30.289  1.00  0.00     0.278 C 
ENDBRANCH   4   9
BRANCH   6  11
ATOM     11  O   UNL     1     -10.212 -43.162  28.731  1.00  0.00    -0.493 OA
ATOM     12  C   UNL     1      -9.458 -42.456  27.754  1.00  0.00     0.278 C 
ENDBRANCH   6  11
ENDBRANCH   1   3
BRANCH   1  13
ATOM     13  N   UNL     1     -14.382 -42.876  25.649  1.00  0.00    -0.195 NA
ATOM     14  H   UNL     1     -13.400 -42.871  25.366  1.00  0.00     0.143 HD
BRANCH  13  15
ATOM     15  S   UNL     1     -15.326 -42.826  24.279  1.00  0.00     0.274 S 
ATOM     16  O   UNL     1     -14.978 -43.976  23.489  1.00  0.00    -0.195 OA
ATOM     17  O   UNL     1     -16.675 -42.485  24.645  1.00  0.00    -0.195 OA
BRANCH  15  18
ATOM     18  N   UNL     1     -14.632 -41.503  23.573  1.00  0.00    -0.216 NA
ATOM     19  H   UNL     1     -14.376 -40.765  24.218  1.00  0.00     0.138 HD
ATOM     20  H   UNL     1     -13.955 -41.756  22.857  1.00  0.00     0.138 HD
ENDBRANCH  15  18
ENDBRANCH  13  15
ENDBRANCH   1  13
TORSDOF 6
ENDMDL
MODEL 6
REMARK VINA RESULT:    -7.077      3.392      4.254
REMARK INTER + INTRA:          -9.830
REMARK INTER:                  -9.361
REMARK INTRA:                  -0.469
REMARK UNBOUND:                -0.478
REMARK SMILES COc1ccc([C@@H](C)NS(N)(=O)=O)cc1OC
REMARK SMILES IDX 7 1 8 2 6 3 3 4 4 5 15 6 5 7 14 8 2 9 1 10 16 11 17 12 9 13
REMARK SMILES IDX 10 15 12 16 13 17 11 18
REMARK H PARENT 9 14 11 19 11 20
ROOT
ATOM      1  C   UNL     1     -12.582 -45.590  27.345  1.00  0.00     0.098 C 
ATOM      2  C   UNL     1     -12.863 -46.937  26.671  1.00  0.00     0.031 C 
ENDROOT
BRANCH   1   3
ATOM      3  C   UNL     1     -11.600 -45.676  28.502  1.00  0.00    -0.026 A 
ATOM      4  C   UNL     1      -9.863 -45.832  30.728  1.00  0.00     0.160 A 
ATOM      5  C   UNL     1      -9.587 -46.546  29.559  1.00  0.00     0.051 A 
ATOM      6  C   UNL     1     -11.030 -45.049  30.798  1.00  0.00     0.161 A 
ATOM      7  C   UNL     1     -10.452 -46.476  28.461  1.00  0.00     0.009 A 
ATOM      8  C   UNL     1     -11.881 -44.975  29.688  1.00  0.00     0.055 A 
BRANCH   4   9
ATOM      9  O   UNL     1      -9.073 -45.845  31.850  1.00  0.00    -0.493 OA
ATOM     10  C   UNL     1      -7.714 -45.460  31.706  1.00  0.00     0.278 C 
ENDBRANCH   4   9
BRANCH   6  11
ATOM     11  O   UNL     1     -11.246 -44.386  31.981  1.00  0.00    -0.493 OA
ATOM     12  C   UNL     1     -12.046 -43.212  31.934  1.00  0.00     0.278 C 
ENDBRANCH   6  11
ENDBRANCH   1   3
BRANCH   1  13
ATOM     13  N   UNL     1     -13.877 -45.040  27.799  1.00  0.00    -0.195 NA
ATOM     14  H   UNL     1     -13.856 -44.777  28.786  1.00  0.00     0.143 HD
BRANCH  13  15
ATOM     15  S   UNL     1     -14.544 -43.786  26.933  1.00  0.00     0.274 S 
ATOM     16  O   UNL     1     -14.738 -44.262  25.589  1.00  0.00    -0.195 OA
ATOM     17  O   UNL     1     -15.576 -43.163  27.718  1.00  0.00    -0.195 OA
BRANCH  15  18
ATOM     18  N   UNL     1     -13.227 -42.788  26.927  1.00  0.00    -0.216 NA
ATOM     19  H   UNL     1     -13.436 -41.811  27.096  1.00  0.00     0.138 HD
ATOM     20  H   UNL     1     -12.434 -43.190  27.421  1.00  0.00     0.138 HD
ENDBRANCH  15  18
ENDBRANCH  13  15
ENDBRANCH   1  13
TORSDOF 6
ENDMDL
MODEL 7
REMARK VINA RESULT:    -7.045      4.098      5.780
REMARK INTER + INTRA:          -9.788
REMARK INTER:                  -9.445
REMARK INTRA:                  -0.343
REMARK UNBOUND:                -0.478
REMARK SMILES COc1ccc([C@@H](C)NS(N)(=O)=O)cc1OC
REMARK SMILES IDX 7 1 8 2 6 3 3 4 4 5 15 6 5 7 14 8 2 9 1 10 16 11 17 12 9 13
REMARK SMILES IDX 10 15 12 16 13 17 11 18
REMARK H PARENT 9 14 11 19 11 20
ROOT
ATOM      1  C   UNL     1     -10.433 -45.364  31.130  1.00  0.00     0.098 C 
ATOM      2  C   UNL     1     -11.006 -46.061  29.892  1.00  0.00     0.031 C 
ENDROOT
BRANCH   1   3
ATOM      3  C   UNL     1     -11.422 -44.448  31.832  1.00  0.00    -0.026 A 
ATOM      4  C   UNL     1     -13.185 -42.656  33.125  1.00  0.00     0.160 A 
ATOM      5  C   UNL     1     -13.677 -43.644  32.267  1.00  0.00     0.051 A 
ATOM      6  C   UNL     1     -11.797 -42.544  33.323  1.00  0.00     0.161 A 
ATOM      7  C   UNL     1     -12.804 -44.524  31.621  1.00  0.00     0.009 A 
ATOM      8  C   UNL     1     -10.932 -43.440  32.682  1.00  0.00     0.055 A 
BRANCH   4   9
ATOM      9  O   UNL     1     -13.968 -41.751  33.797  1.00  0.00    -0.493 OA
ATOM     10  C   UNL     1     -15.268 -41.494  33.287  1.00  0.00     0.278 C 
ENDBRANCH   4   9
BRANCH   6  11
ATOM     11  O   UNL     1     -11.383 -41.543  34.167  1.00  0.00    -0.493 OA
ATOM     12  C   UNL     1     -10.100 -41.682  34.763  1.00  0.00     0.278 C 
ENDBRANCH   6  11
ENDBRANCH   1   3
BRANCH   1  13
ATOM     13  N   UNL     1      -9.235 -44.611  30.703  1.00  0.00    -0.195 NA
ATOM     14  H   UNL     1      -9.393 -43.601  30.718  1.00  0.00     0.143 HD
BRANCH  13  15
ATOM     15  S   UNL     1      -7.792 -44.930  31.468  1.00  0.00     0.274 S 
ATOM     16  O   UNL     1      -7.700 -44.024  32.582  1.00  0.00    -0.195 OA
ATOM     17  O   UNL     1      -7.619 -46.354  31.579  1.00  0.00    -0.195 OA
BRANCH  15  18
ATOM     18  N   UNL     1      -6.780 -44.377  30.285  1.00  0.00    -0.216 NA
ATOM     19  H   UNL     1      -5.846 -44.147  30.601  1.00  0.00     0.138 HD
ATOM     20  H   UNL     1      -6.866 -44.910  29.423  1.00  0.00     0.138 HD
ENDBRANCH  15  18
ENDBRANCH  13  15
ENDBRANCH   1  13
TORSDOF 6
ENDMDL
MODEL 8
REMARK VINA RESULT:    -6.994      4.857      5.640
REMARK INTER + INTRA:          -9.721
REMARK INTER:                  -9.306
REMARK INTRA:                  -0.415
REMARK UNBOUND:                -0.478
REMARK SMILES COc1ccc([C@@H](C)NS(N)(=O)=O)cc1OC
REMARK SMILES IDX 7 1 8 2 6 3 3 4 4 5 15 6 5 7 14 8 2 9 1 10 16 11 17 12 9 13
REMARK SMILES IDX 10 15 12 16 13 17 11 18
REMARK H PARENT 9 14 11 19 11 20
ROOT
ATOM      1  C   UNL     1     -15.164 -43.328  26.514  1.00  0.00     0.098 C 
ATOM      2  C   UNL     1     -16.249 -42.819  27.469  1.00  0.00     0.031 C 
ENDROOT
BRANCH   1   3
ATOM      3  C   UNL     1     -13.839 -43.629  27.195  1.00  0.00    -0.026 A 
ATOM      4  C   UNL     1     -11.398 -44.303  28.452  1.00  0.00     0.160 A 
ATOM      5  C   UNL     1     -11.474 -43.209  27.585  1.00  0.00     0.051 A 
ATOM      6  C   UNL     1     -12.546 -45.084  28.678  1.00  0.00     0.161 A 
ATOM      7  C   UNL     1     -12.680 -42.882  26.956  1.00  0.00     0.009 A 
ATOM      8  C   UNL     1     -13.751 -44.739  28.054  1.00  0.00     0.055 A 
BRANCH   4   9
ATOM      9  O   UNL     1     -10.259 -44.695  29.108  1.00  0.00    -0.493 OA
ATOM     10  C   UNL     1      -9.791 -43.876  30.170  1.00  0.00     0.278 C 
ENDBRANCH   4   9
BRANCH   6  11
ATOM     11  O   UNL     1     -12.396 -46.151  29.530  1.00  0.00    -0.493 OA
ATOM     12  C   UNL     1     -13.222 -46.183  30.686  1.00  0.00     0.278 C 
ENDBRANCH   6  11
ENDBRANCH   1   3
BRANCH   1  13
ATOM     13  N   UNL     1     -14.989 -42.311  25.456  1.00  0.00    -0.195 NA
ATOM     14  H   UNL     1     -14.006 -42.063  25.323  1.00  0.00     0.143 HD
BRANCH  13  15
ATOM     15  S   UNL     1     -15.665 -42.606  23.964  1.00  0.00     0.274 S 
ATOM     16  O   UNL     1     -15.095 -43.835  23.482  1.00  0.00    -0.195 OA
ATOM     17  O   UNL     1     -17.079 -42.349  24.025  1.00  0.00    -0.195 OA
BRANCH  15  18
ATOM     18  N   UNL     1     -14.950 -41.363  23.141  1.00  0.00    -0.216 NA
ATOM     19  H   UNL     1     -14.941 -41.473  22.135  1.00  0.00     0.138 HD
ATOM     20  H   UNL     1     -15.212 -40.453  23.512  1.00  0.00     0.138 HD
ENDBRANCH  15  18
ENDBRANCH  13  15
ENDBRANCH   1  13
TORSDOF 6
ENDMDL
MODEL 9
REMARK VINA RESULT:    -6.960      3.757      5.608
REMARK INTER + INTRA:          -9.676
REMARK INTER:                  -9.301
REMARK INTRA:                  -0.376
REMARK UNBOUND:                -0.478
REMARK SMILES COc1ccc([C@@H](C)NS(N)(=O)=O)cc1OC
REMARK SMILES IDX 7 1 8 2 6 3 3 4 4 5 15 6 5 7 14 8 2 9 1 10 16 11 17 12 9 13
REMARK SMILES IDX 10 15 12 16 13 17 11 18
REMARK H PARENT 9 14 11 19 11 20
ROOT
ATOM      1  C   UNL     1      -9.810 -44.869  30.842  1.00  0.00     0.098 C 
ATOM      2  C   UNL     1      -9.915 -46.395  30.934  1.00  0.00     0.031 C 
ENDROOT
BRANCH   1   3
ATOM      3  C   UNL     1     -10.868 -44.132  31.648  1.00  0.00    -0.026 A 
ATOM      4  C   UNL     1     -12.765 -42.666  33.147  1.00  0.00     0.160 A 
ATOM      5  C   UNL     1     -13.178 -43.559  32.155  1.00  0.00     0.051 A 
ATOM      6  C   UNL     1     -11.389 -42.483  33.380  1.00  0.00     0.161 A 
ATOM      7  C   UNL     1     -12.239 -44.277  31.407  1.00  0.00     0.009 A 
ATOM      8  C   UNL     1     -10.458 -43.217  32.635  1.00  0.00     0.055 A 
BRANCH   4   9
ATOM      9  O   UNL     1     -13.615 -41.922  33.925  1.00  0.00    -0.493 OA
ATOM     10  C   UNL     1     -14.914 -41.654  33.417  1.00  0.00     0.278 C 
ENDBRANCH   4   9
BRANCH   6  11
ATOM     11  O   UNL     1     -11.054 -41.581  34.359  1.00  0.00    -0.493 OA
ATOM     12  C   UNL     1      -9.731 -41.640  34.875  1.00  0.00     0.278 C 
ENDBRANCH   6  11
ENDBRANCH   1   3
BRANCH   1  13
ATOM     13  N   UNL     1      -9.892 -44.502  29.413  1.00  0.00    -0.195 NA
ATOM     14  H   UNL     1     -10.856 -44.508  29.071  1.00  0.00     0.143 HD
BRANCH  13  15
ATOM     15  S   UNL     1      -9.168 -43.086  28.923  1.00  0.00     0.274 S 
ATOM     16  O   UNL     1      -8.187 -42.751  29.920  1.00  0.00    -0.195 OA
ATOM     17  O   UNL     1      -8.884 -43.161  27.515  1.00  0.00    -0.195 OA
BRANCH  15  18
ATOM     18  N   UNL     1     -10.464 -42.083  29.135  1.00  0.00    -0.216 NA
ATOM     19  H   UNL     1     -10.387 -41.188  28.667  1.00  0.00     0.138 HD
ATOM     20  H   UNL     1     -11.350 -42.575  29.063  1.00  0.00     0.138 HD
ENDBRANCH  15  18
ENDBRANCH  13  15
ENDBRANCH   1  13
TORSDOF 6
ENDMDL
