MODEL 1
REMARK VINA RESULT:   -11.251      0.000      0.000
REMARK INTER + INTRA:         -17.423
REMARK INTER:                 -16.841
REMARK INTRA:                  -0.582
REMARK UNBOUND:                -0.582
REMARK SMILES COc1cc2c(cc1OC)SC(=C(O)CCc1cc[n+](Cc3ccccc3)cc1)C2
REMARK SMILES IDX 15 1 13 2 14 3 12 5 30 6 11 7 5 8 6 9 4 10 7 11 3 12 8 13
REMARK SMILES IDX 2 14 1 15 9 16 10 17 16 18 17 19 18 20 29 21 19 22 28 23
REMARK SMILES IDX 20 24 21 25 22 26 23 27 27 28 24 29 26 30 25 31
REMARK H PARENT 14 4
ROOT
ATOM      1  C   UNL     1     -14.578 -43.723  26.007  1.00  0.00     0.080 C 
ENDROOT
BRANCH   1   2
ATOM      2  C   UNL     1     -15.259 -43.530  24.673  1.00  0.00     0.103 C 
BRANCH   2   3
ATOM      3  O   UNL     1     -14.569 -44.087  23.604  1.00  0.00    -0.511 OA
ATOM      4  H   UNL     1     -14.722 -43.492  22.841  1.00  0.00     0.293 HD
ENDBRANCH   2   3
BRANCH   2   5
ATOM      5  C   UNL     1     -16.408 -42.851  24.491  1.00  0.00     0.032 C 
ATOM      6  C   UNL     1     -17.475 -42.619  25.543  1.00  0.00     0.083 C 
ATOM      7  S   UNL     1     -16.827 -42.170  22.922  1.00  0.00    -0.090 SA
ATOM      8  C   UNL     1     -18.621 -41.926  24.864  1.00  0.00    -0.025 A 
ATOM      9  C   UNL     1     -18.412 -41.631  23.518  1.00  0.00     0.020 A 
ATOM     10  C   UNL     1     -19.817 -41.574  25.473  1.00  0.00     0.055 A 
ATOM     11  C   UNL     1     -19.389 -40.994  22.760  1.00  0.00     0.066 A 
ATOM     12  C   UNL     1     -20.805 -40.912  24.731  1.00  0.00     0.161 A 
ATOM     13  C   UNL     1     -20.605 -40.637  23.359  1.00  0.00     0.161 A 
BRANCH  12  14
ATOM     14  O   UNL     1     -21.938 -40.642  25.457  1.00  0.00    -0.493 OA
ATOM     15  C   UNL     1     -21.819 -40.788  26.869  1.00  0.00     0.278 C 
ENDBRANCH  12  14
BRANCH  13  16
ATOM     16  O   UNL     1     -21.642 -40.056  22.678  1.00  0.00    -0.493 OA
ATOM     17  C   UNL     1     -21.411 -39.619  21.345  1.00  0.00     0.278 C 
ENDBRANCH  13  16
ENDBRANCH   2   5
ENDBRANCH   1   2
BRANCH   1  18
ATOM     18  C   UNL     1     -13.852 -45.070  26.135  1.00  0.00     0.044 C 
BRANCH  18  19
ATOM     19  C   UNL     1     -13.260 -45.321  27.503  1.00  0.00    -0.036 A 
ATOM     20  C   UNL     1     -13.834 -44.753  28.640  1.00  0.00     0.074 A 
ATOM     21  C   UNL     1     -12.158 -46.161  27.661  1.00  0.00     0.074 A 
ATOM     22  C   UNL     1     -13.309 -45.041  29.894  1.00  0.00     0.308 A 
ATOM     23  C   UNL     1     -11.666 -46.420  28.935  1.00  0.00     0.308 A 
ATOM     24  N   UNL     1     -12.240 -45.861  30.024  1.00  0.00    -0.201 N 
BRANCH  24  25
ATOM     25  C   UNL     1     -11.716 -46.170  31.377  1.00  0.00     0.393 C 
BRANCH  25  26
ATOM     26  C   UNL     1     -10.295 -45.695  31.534  1.00  0.00     0.017 A 
ATOM     27  C   UNL     1      -9.225 -46.543  31.202  1.00  0.00     0.010 A 
ATOM     28  C   UNL     1     -10.015 -44.402  32.003  1.00  0.00     0.010 A 
ATOM     29  C   UNL     1      -7.907 -46.109  31.351  1.00  0.00     0.001 A 
ATOM     30  C   UNL     1      -8.695 -43.974  32.151  1.00  0.00     0.001 A 
ATOM     31  C   UNL     1      -7.643 -44.827  31.827  1.00  0.00     0.000 A 
ENDBRANCH  25  26
ENDBRANCH  24  25
ENDBRANCH  18  19
ENDBRANCH   1  18
TORSDOF 9
ENDMDL
MODEL 2
REMARK VINA RESULT:   -11.049      1.248      2.417
REMARK INTER + INTRA:         -17.122
REMARK INTER:                 -16.441
REMARK INTRA:                  -0.680
REMARK UNBOUND:                -0.582
REMARK SMILES COc1cc2c(cc1OC)SC(=C(O)CCc1cc[n+](Cc3ccccc3)cc1)C2
REMARK SMILES IDX 15 1 13 2 14 3 12 5 30 6 11 7 5 8 6 9 4 10 7 11 3 12 8 13
REMARK SMILES IDX 2 14 1 15 9 16 10 17 16 18 17 19 18 20 29 21 19 22 28 23
REMARK SMILES IDX 20 24 21 25 22 26 23 27 27 28 24 29 26 30 25 31
REMARK H PARENT 14 4
ROOT
ATOM      1  C   UNL     1     -13.739 -43.483  26.391  1.00  0.00     0.080 C 
ENDROOT
BRANCH   1   2
ATOM      2  C   UNL     1     -14.669 -43.019  25.296  1.00  0.00     0.103 C 
BRANCH   2   3
ATOM      3  O   UNL     1     -14.047 -42.842  24.067  1.00  0.00    -0.511 OA
ATOM      4  H   UNL     1     -14.631 -43.263  23.402  1.00  0.00     0.293 HD
ENDBRANCH   2   3
BRANCH   2   5
ATOM      5  C   UNL     1     -15.978 -42.751  25.466  1.00  0.00     0.032 C 
ATOM      6  C   UNL     1     -16.973 -42.458  24.359  1.00  0.00     0.083 C 
ATOM      7  S   UNL     1     -16.691 -42.666  27.075  1.00  0.00    -0.090 SA
ATOM      8  C   UNL     1     -18.274 -42.100  25.019  1.00  0.00    -0.025 A 
ATOM      9  C   UNL     1     -18.265 -42.176  26.411  1.00  0.00     0.020 A 
ATOM     10  C   UNL     1     -19.430 -41.722  24.352  1.00  0.00     0.055 A 
ATOM     11  C   UNL     1     -19.398 -41.869  27.156  1.00  0.00     0.066 A 
ATOM     12  C   UNL     1     -20.589 -41.430  25.085  1.00  0.00     0.161 A 
ATOM     13  C   UNL     1     -20.574 -41.479  26.498  1.00  0.00     0.161 A 
BRANCH  12  14
ATOM     14  O   UNL     1     -21.649 -41.056  24.297  1.00  0.00    -0.493 OA
ATOM     15  C   UNL     1     -21.361 -40.882  22.913  1.00  0.00     0.278 C 
ENDBRANCH  12  14
BRANCH  13  16
ATOM     16  O   UNL     1     -21.719 -41.108  27.152  1.00  0.00    -0.493 OA
ATOM     17  C   UNL     1     -22.776 -42.054  27.247  1.00  0.00     0.278 C 
ENDBRANCH  13  16
ENDBRANCH   2   5
ENDBRANCH   1   2
BRANCH   1  18
ATOM     18  C   UNL     1     -13.824 -44.991  26.669  1.00  0.00     0.044 C 
BRANCH  18  19
ATOM     19  C   UNL     1     -13.095 -45.427  27.919  1.00  0.00    -0.036 A 
ATOM     20  C   UNL     1     -11.878 -46.105  27.831  1.00  0.00     0.074 A 
ATOM     21  C   UNL     1     -13.597 -45.120  29.183  1.00  0.00     0.074 A 
ATOM     22  C   UNL     1     -11.196 -46.446  28.992  1.00  0.00     0.308 A 
ATOM     23  C   UNL     1     -12.879 -45.483  30.317  1.00  0.00     0.308 A 
ATOM     24  N   UNL     1     -11.702 -46.136  30.208  1.00  0.00    -0.201 N 
BRANCH  24  25
ATOM     25  C   UNL     1     -10.938 -46.493  31.430  1.00  0.00     0.393 C 
BRANCH  25  26
ATOM     26  C   UNL     1      -9.747 -45.589  31.612  1.00  0.00     0.017 A 
ATOM     27  C   UNL     1      -8.451 -46.063  31.349  1.00  0.00     0.010 A 
ATOM     28  C   UNL     1      -9.909 -44.260  32.038  1.00  0.00     0.010 A 
ATOM     29  C   UNL     1      -7.345 -45.231  31.523  1.00  0.00     0.001 A 
ATOM     30  C   UNL     1      -8.798 -43.433  32.210  1.00  0.00     0.001 A 
ATOM     31  C   UNL     1      -7.519 -43.919  31.955  1.00  0.00     0.000 A 
ENDBRANCH  25  26
ENDBRANCH  24  25
ENDBRANCH  18  19
ENDBRANCH   1  18
TORSDOF 9
ENDMDL
MODEL 3
REMARK VINA RESULT:   -10.826      1.014      2.445
REMARK INTER + INTRA:         -16.788
REMARK INTER:                 -16.192
REMARK INTRA:                  -0.596
REMARK UNBOUND:                -0.582
REMARK SMILES COc1cc2c(cc1OC)SC(=C(O)CCc1cc[n+](Cc3ccccc3)cc1)C2
REMARK SMILES IDX 15 1 13 2 14 3 12 5 30 6 11 7 5 8 6 9 4 10 7 11 3 12 8 13
REMARK SMILES IDX 2 14 1 15 9 16 10 17 16 18 17 19 18 20 29 21 19 22 28 23
REMARK SMILES IDX 20 24 21 25 22 26 23 27 27 28 24 29 26 30 25 31
REMARK H PARENT 14 4
ROOT
ATOM      1  C   UNL     1     -14.924 -43.445  26.176  1.00  0.00     0.080 C 
ENDROOT
BRANCH   1   2
ATOM      2  C   UNL     1     -15.252 -42.911  24.802  1.00  0.00     0.103 C 
BRANCH   2   3
ATOM      3  O   UNL     1     -14.152 -42.816  23.958  1.00  0.00    -0.511 OA
ATOM      4  H   UNL     1     -13.418 -42.467  24.505  1.00  0.00     0.293 HD
ENDBRANCH   2   3
BRANCH   2   5
ATOM      5  C   UNL     1     -16.477 -42.515  24.406  1.00  0.00     0.032 C 
ATOM      6  C   UNL     1     -16.831 -41.960  23.040  1.00  0.00     0.083 C 
ATOM      7  S   UNL     1     -17.851 -42.561  25.508  1.00  0.00    -0.090 SA
ATOM      8  C   UNL     1     -18.271 -41.542  23.093  1.00  0.00    -0.025 A 
ATOM      9  C   UNL     1     -18.913 -41.803  24.302  1.00  0.00     0.020 A 
ATOM     10  C   UNL     1     -18.968 -40.944  22.052  1.00  0.00     0.055 A 
ATOM     11  C   UNL     1     -20.248 -41.466  24.496  1.00  0.00     0.066 A 
ATOM     12  C   UNL     1     -20.321 -40.616  22.222  1.00  0.00     0.161 A 
ATOM     13  C   UNL     1     -20.965 -40.855  23.457  1.00  0.00     0.161 A 
BRANCH  12  14
ATOM     14  O   UNL     1     -20.875 -40.017  21.119  1.00  0.00    -0.493 OA
ATOM     15  C   UNL     1     -19.953 -39.491  20.170  1.00  0.00     0.278 C 
ENDBRANCH  12  14
BRANCH  13  16
ATOM     16  O   UNL     1     -22.266 -40.441  23.577  1.00  0.00    -0.493 OA
ATOM     17  C   UNL     1     -22.794 -40.250  24.883  1.00  0.00     0.278 C 
ENDBRANCH  13  16
ENDBRANCH   2   5
ENDBRANCH   1   2
BRANCH   1  18
ATOM     18  C   UNL     1     -14.045 -44.704  26.150  1.00  0.00     0.044 C 
BRANCH  18  19
ATOM     19  C   UNL     1     -13.546 -45.131  27.511  1.00  0.00    -0.036 A 
ATOM     20  C   UNL     1     -12.424 -45.953  27.630  1.00  0.00     0.074 A 
ATOM     21  C   UNL     1     -14.164 -44.675  28.675  1.00  0.00     0.074 A 
ATOM     22  C   UNL     1     -11.947 -46.288  28.892  1.00  0.00     0.308 A 
ATOM     23  C   UNL     1     -13.652 -45.037  29.915  1.00  0.00     0.308 A 
ATOM     24  N   UNL     1     -12.563 -45.832  30.007  1.00  0.00    -0.201 N 
BRANCH  24  25
ATOM     25  C   UNL     1     -12.017 -46.186  31.340  1.00  0.00     0.393 C 
BRANCH  25  26
ATOM     26  C   UNL     1     -10.586 -45.736  31.481  1.00  0.00     0.017 A 
ATOM     27  C   UNL     1     -10.295 -44.423  31.887  1.00  0.00     0.010 A 
ATOM     28  C   UNL     1      -9.524 -46.616  31.220  1.00  0.00     0.010 A 
ATOM     29  C   UNL     1      -8.971 -43.999  32.013  1.00  0.00     0.001 A 
ATOM     30  C   UNL     1      -8.202 -46.187  31.348  1.00  0.00     0.001 A 
ATOM     31  C   UNL     1      -7.927 -44.880  31.741  1.00  0.00     0.000 A 
ENDBRANCH  25  26
ENDBRANCH  24  25
ENDBRANCH  18  19
ENDBRANCH   1  18
TORSDOF 9
ENDMDL
MODEL 4
REMARK VINA RESULT:    -9.524      2.011      3.230
REMARK INTER + INTRA:         -14.839
REMARK INTER:                 -13.953
REMARK INTRA:                  -0.887
REMARK UNBOUND:                -0.582
REMARK SMILES COc1cc2c(cc1OC)SC(=C(O)CCc1cc[n+](Cc3ccccc3)cc1)C2
REMARK SMILES IDX 15 1 13 2 14 3 12 5 30 6 11 7 5 8 6 9 4 10 7 11 3 12 8 13
REMARK SMILES IDX 2 14 1 15 9 16 10 17 16 18 17 19 18 20 29 21 19 22 28 23
REMARK SMILES IDX 20 24 21 25 22 26 23 27 27 28 24 29 26 30 25 31
REMARK H PARENT 14 4
ROOT
ATOM      1  C   UNL     1     -14.918 -43.562  24.559  1.00  0.00     0.080 C 
ENDROOT
BRANCH   1   2
ATOM      2  C   UNL     1     -15.831 -42.524  23.953  1.00  0.00     0.103 C 
BRANCH   2   3
ATOM      3  O   UNL     1     -15.255 -41.806  22.913  1.00  0.00    -0.511 OA
ATOM      4  H   UNL     1     -15.994 -41.372  22.439  1.00  0.00     0.293 HD
ENDBRANCH   2   3
BRANCH   2   5
ATOM      5  C   UNL     1     -17.080 -42.259  24.382  1.00  0.00     0.032 C 
ATOM      6  C   UNL     1     -18.208 -41.701  23.536  1.00  0.00     0.083 C 
ATOM      7  S   UNL     1     -17.539 -42.505  26.066  1.00  0.00    -0.090 SA
ATOM      8  C   UNL     1     -19.370 -41.456  24.454  1.00  0.00    -0.025 A 
ATOM      9  C   UNL     1     -19.159 -41.834  25.779  1.00  0.00     0.020 A 
ATOM     10  C   UNL     1     -20.586 -40.907  24.075  1.00  0.00     0.055 A 
ATOM     11  C   UNL     1     -20.146 -41.662  26.743  1.00  0.00     0.066 A 
ATOM     12  C   UNL     1     -21.602 -40.746  25.028  1.00  0.00     0.161 A 
ATOM     13  C   UNL     1     -21.379 -41.103  26.378  1.00  0.00     0.161 A 
BRANCH  12  14
ATOM     14  O   UNL     1     -22.741 -40.177  24.516  1.00  0.00    -0.493 OA
ATOM     15  C   UNL     1     -23.678 -41.078  23.936  1.00  0.00     0.278 C 
ENDBRANCH  12  14
BRANCH  13  16
ATOM     16  O   UNL     1     -22.388 -40.848  27.269  1.00  0.00    -0.493 OA
ATOM     17  C   UNL     1     -23.334 -41.878  27.527  1.00  0.00     0.278 C 
ENDBRANCH  13  16
ENDBRANCH   2   5
ENDBRANCH   1   2
BRANCH   1  18
ATOM     18  C   UNL     1     -13.654 -42.968  25.198  1.00  0.00     0.044 C 
BRANCH  18  19
ATOM     19  C   UNL     1     -13.336 -43.531  26.565  1.00  0.00    -0.036 A 
ATOM     20  C   UNL     1     -14.209 -44.423  27.187  1.00  0.00     0.074 A 
ATOM     21  C   UNL     1     -12.143 -43.207  27.210  1.00  0.00     0.074 A 
ATOM     22  C   UNL     1     -13.872 -44.972  28.418  1.00  0.00     0.308 A 
ATOM     23  C   UNL     1     -11.847 -43.781  28.441  1.00  0.00     0.308 A 
ATOM     24  N   UNL     1     -12.707 -44.645  29.024  1.00  0.00    -0.201 N 
BRANCH  24  25
ATOM     25  C   UNL     1     -12.362 -45.266  30.327  1.00  0.00     0.393 C 
BRANCH  25  26
ATOM     26  C   UNL     1     -12.495 -44.277  31.455  1.00  0.00     0.017 A 
ATOM     27  C   UNL     1     -13.764 -43.937  31.953  1.00  0.00     0.010 A 
ATOM     28  C   UNL     1     -11.359 -43.688  32.034  1.00  0.00     0.010 A 
ATOM     29  C   UNL     1     -13.891 -43.017  32.994  1.00  0.00     0.001 A 
ATOM     30  C   UNL     1     -11.493 -42.768  33.075  1.00  0.00     0.001 A 
ATOM     31  C   UNL     1     -12.757 -42.432  33.552  1.00  0.00     0.000 A 
ENDBRANCH  25  26
ENDBRANCH  24  25
ENDBRANCH  18  19
ENDBRANCH   1  18
TORSDOF 9
ENDMDL
MODEL 5
REMARK VINA RESULT:    -9.358      2.623      4.259
REMARK INTER + INTRA:         -14.590
REMARK INTER:                 -13.975
REMARK INTRA:                  -0.615
REMARK UNBOUND:                -0.582
REMARK SMILES COc1cc2c(cc1OC)SC(=C(O)CCc1cc[n+](Cc3ccccc3)cc1)C2
REMARK SMILES IDX 15 1 13 2 14 3 12 5 30 6 11 7 5 8 6 9 4 10 7 11 3 12 8 13
REMARK SMILES IDX 2 14 1 15 9 16 10 17 16 18 17 19 18 20 29 21 19 22 28 23
REMARK SMILES IDX 20 24 21 25 22 26 23 27 27 28 24 29 26 30 25 31
REMARK H PARENT 14 4
ROOT
ATOM      1  C   UNL     1     -17.406 -42.166  23.385  1.00  0.00     0.080 C 
ENDROOT
BRANCH   1   2
ATOM      2  C   UNL     1     -17.733 -41.129  22.337  1.00  0.00     0.103 C 
BRANCH   2   3
ATOM      3  O   UNL     1     -16.653 -40.773  21.541  1.00  0.00    -0.511 OA
ATOM      4  H   UNL     1     -16.449 -41.558  20.991  1.00  0.00     0.293 HD
ENDBRANCH   2   3
BRANCH   2   5
ATOM      5  C   UNL     1     -18.940 -40.548  22.185  1.00  0.00     0.032 C 
ATOM      6  C   UNL     1     -20.067 -40.570  23.199  1.00  0.00     0.083 C 
ATOM      7  S   UNL     1     -19.365 -39.703  20.700  1.00  0.00    -0.090 SA
ATOM      8  C   UNL     1     -21.251 -39.908  22.557  1.00  0.00    -0.025 A 
ATOM      9  C   UNL     1     -21.020 -39.411  21.276  1.00  0.00     0.020 A 
ATOM     10  C   UNL     1     -22.501 -39.764  23.142  1.00  0.00     0.055 A 
ATOM     11  C   UNL     1     -22.028 -38.776  20.557  1.00  0.00     0.066 A 
ATOM     12  C   UNL     1     -23.523 -39.107  22.442  1.00  0.00     0.161 A 
ATOM     13  C   UNL     1     -23.298 -38.627  21.132  1.00  0.00     0.161 A 
BRANCH  12  14
ATOM     14  O   UNL     1     -24.706 -39.053  23.135  1.00  0.00    -0.493 OA
ATOM     15  C   UNL     1     -24.831 -39.966  24.221  1.00  0.00     0.278 C 
ENDBRANCH  12  14
BRANCH  13  16
ATOM     16  O   UNL     1     -24.363 -38.063  20.479  1.00  0.00    -0.493 OA
ATOM     17  C   UNL     1     -24.124 -36.924  19.662  1.00  0.00     0.278 C 
ENDBRANCH  13  16
ENDBRANCH   2   5
ENDBRANCH   1   2
BRANCH   1  18
ATOM     18  C   UNL     1     -15.906 -42.474  23.492  1.00  0.00     0.044 C 
BRANCH  18  19
ATOM     19  C   UNL     1     -15.499 -43.088  24.812  1.00  0.00    -0.036 A 
ATOM     20  C   UNL     1     -14.569 -44.128  24.856  1.00  0.00     0.074 A 
ATOM     21  C   UNL     1     -16.007 -42.598  26.015  1.00  0.00     0.074 A 
ATOM     22  C   UNL     1     -14.166 -44.640  26.083  1.00  0.00     0.308 A 
ATOM     23  C   UNL     1     -15.575 -43.142  27.219  1.00  0.00     0.308 A 
ATOM     24  N   UNL     1     -14.671 -44.147  27.238  1.00  0.00    -0.201 N 
BRANCH  24  25
ATOM     25  C   UNL     1     -14.204 -44.697  28.534  1.00  0.00     0.393 C 
BRANCH  25  26
ATOM     26  C   UNL     1     -12.718 -44.948  28.516  1.00  0.00     0.017 A 
ATOM     27  C   UNL     1     -11.818 -43.871  28.564  1.00  0.00     0.010 A 
ATOM     28  C   UNL     1     -12.209 -46.256  28.462  1.00  0.00     0.010 A 
ATOM     29  C   UNL     1     -10.442 -44.098  28.542  1.00  0.00     0.001 A 
ATOM     30  C   UNL     1     -10.831 -46.477  28.440  1.00  0.00     0.001 A 
ATOM     31  C   UNL     1      -9.950 -45.400  28.478  1.00  0.00     0.000 A 
ENDBRANCH  25  26
ENDBRANCH  24  25
ENDBRANCH  18  19
ENDBRANCH   1  18
TORSDOF 9
ENDMDL
MODEL 6
REMARK VINA RESULT:    -9.305      2.435      4.165
REMARK INTER + INTRA:         -14.511
REMARK INTER:                 -13.707
REMARK INTRA:                  -0.804
REMARK UNBOUND:                -0.582
REMARK SMILES COc1cc2c(cc1OC)SC(=C(O)CCc1cc[n+](Cc3ccccc3)cc1)C2
REMARK SMILES IDX 15 1 13 2 14 3 12 5 30 6 11 7 5 8 6 9 4 10 7 11 3 12 8 13
REMARK SMILES IDX 2 14 1 15 9 16 10 17 16 18 17 19 18 20 29 21 19 22 28 23
REMARK SMILES IDX 20 24 21 25 22 26 23 27 27 28 24 29 26 30 25 31
REMARK H PARENT 14 4
ROOT
ATOM      1  C   UNL     1     -17.303 -42.862  23.129  1.00  0.00     0.080 C 
ENDROOT
BRANCH   1   2
ATOM      2  C   UNL     1     -18.214 -41.697  22.828  1.00  0.00     0.103 C 
BRANCH   2   3
ATOM      3  O   UNL     1     -17.769 -40.888  21.791  1.00  0.00    -0.511 OA
ATOM      4  H   UNL     1     -17.028 -41.370  21.367  1.00  0.00     0.293 HD
ENDBRANCH   2   3
BRANCH   2   5
ATOM      5  C   UNL     1     -19.343 -41.412  23.507  1.00  0.00     0.032 C 
ATOM      6  C   UNL     1     -20.586 -40.765  22.927  1.00  0.00     0.083 C 
ATOM      7  S   UNL     1     -19.476 -41.737  25.233  1.00  0.00    -0.090 SA
ATOM      8  C   UNL     1     -21.534 -40.531  24.067  1.00  0.00    -0.025 A 
ATOM      9  C   UNL     1     -21.087 -40.991  25.304  1.00  0.00     0.020 A 
ATOM     10  C   UNL     1     -22.773 -39.916  23.962  1.00  0.00     0.055 A 
ATOM     11  C   UNL     1     -21.860 -40.839  26.451  1.00  0.00     0.066 A 
ATOM     12  C   UNL     1     -23.576 -39.773  25.103  1.00  0.00     0.161 A 
ATOM     13  C   UNL     1     -23.112 -40.215  26.363  1.00  0.00     0.161 A 
BRANCH  12  14
ATOM     14  O   UNL     1     -24.764 -39.134  24.853  1.00  0.00    -0.493 OA
ATOM     15  C   UNL     1     -25.856 -39.973  24.491  1.00  0.00     0.278 C 
ENDBRANCH  12  14
BRANCH  13  16
ATOM     16  O   UNL     1     -23.916 -39.975  27.446  1.00  0.00    -0.493 OA
ATOM     17  C   UNL     1     -23.694 -38.790  28.200  1.00  0.00     0.278 C 
ENDBRANCH  13  16
ENDBRANCH   2   5
ENDBRANCH   1   2
BRANCH   1  18
ATOM     18  C   UNL     1     -15.875 -42.441  23.506  1.00  0.00     0.044 C 
BRANCH  18  19
ATOM     19  C   UNL     1     -15.384 -43.032  24.808  1.00  0.00    -0.036 A 
ATOM     20  C   UNL     1     -15.827 -42.524  26.030  1.00  0.00     0.074 A 
ATOM     21  C   UNL     1     -14.518 -44.125  24.815  1.00  0.00     0.074 A 
ATOM     22  C   UNL     1     -15.408 -43.118  27.214  1.00  0.00     0.308 A 
ATOM     23  C   UNL     1     -14.125 -44.686  26.025  1.00  0.00     0.308 A 
ATOM     24  N   UNL     1     -14.568 -44.179  27.197  1.00  0.00    -0.201 N 
BRANCH  24  25
ATOM     25  C   UNL     1     -14.158 -44.807  28.476  1.00  0.00     0.393 C 
BRANCH  25  26
ATOM     26  C   UNL     1     -12.666 -45.012  28.530  1.00  0.00     0.017 A 
ATOM     27  C   UNL     1     -12.130 -46.310  28.531  1.00  0.00     0.010 A 
ATOM     28  C   UNL     1     -11.789 -43.916  28.571  1.00  0.00     0.010 A 
ATOM     29  C   UNL     1     -10.749 -46.505  28.587  1.00  0.00     0.001 A 
ATOM     30  C   UNL     1     -10.409 -44.117  28.627  1.00  0.00     0.001 A 
ATOM     31  C   UNL     1      -9.891 -45.409  28.637  1.00  0.00     0.000 A 
ENDBRANCH  25  26
ENDBRANCH  24  25
ENDBRANCH  18  19
ENDBRANCH   1  18
TORSDOF 9
ENDMDL
MODEL 7
REMARK VINA RESULT:    -8.937      3.110      6.102
REMARK INTER + INTRA:         -13.960
REMARK INTER:                 -13.428
REMARK INTRA:                  -0.532
REMARK UNBOUND:                -0.582
REMARK SMILES COc1cc2c(cc1OC)SC(=C(O)CCc1cc[n+](Cc3ccccc3)cc1)C2
REMARK SMILES IDX 15 1 13 2 14 3 12 5 30 6 11 7 5 8 6 9 4 10 7 11 3 12 8 13
REMARK SMILES IDX 2 14 1 15 9 16 10 17 16 18 17 19 18 20 29 21 19 22 28 23
REMARK SMILES IDX 20 24 21 25 22 26 23 27 27 28 24 29 26 30 25 31
REMARK H PARENT 14 4
ROOT
ATOM      1  C   UNL     1     -19.092 -41.560  23.711  1.00  0.00     0.080 C 
ENDROOT
BRANCH   1   2
ATOM      2  C   UNL     1     -19.709 -41.813  22.356  1.00  0.00     0.103 C 
BRANCH   2   3
ATOM      3  O   UNL     1     -19.380 -43.047  21.810  1.00  0.00    -0.511 OA
ATOM      4  H   UNL     1     -18.493 -43.273  22.160  1.00  0.00     0.293 HD
ENDBRANCH   2   3
BRANCH   2   5
ATOM      5  C   UNL     1     -20.478 -40.931  21.688  1.00  0.00     0.032 C 
ATOM      6  C   UNL     1     -20.394 -40.629  20.204  1.00  0.00     0.083 C 
ATOM      7  S   UNL     1     -21.687 -39.959  22.522  1.00  0.00    -0.090 SA
ATOM      8  C   UNL     1     -21.349 -39.504  19.929  1.00  0.00    -0.025 A 
ATOM      9  C   UNL     1     -22.081 -39.073  21.034  1.00  0.00     0.020 A 
ATOM     10  C   UNL     1     -21.539 -38.902  18.693  1.00  0.00     0.055 A 
ATOM     11  C   UNL     1     -23.001 -38.035  20.928  1.00  0.00     0.066 A 
ATOM     12  C   UNL     1     -22.478 -37.869  18.562  1.00  0.00     0.161 A 
ATOM     13  C   UNL     1     -23.201 -37.412  19.687  1.00  0.00     0.161 A 
BRANCH  12  14
ATOM     14  O   UNL     1     -22.547 -37.358  17.290  1.00  0.00    -0.493 OA
ATOM     15  C   UNL     1     -23.604 -37.859  16.477  1.00  0.00     0.278 C 
ENDBRANCH  12  14
BRANCH  13  16
ATOM     16  O   UNL     1     -24.045 -36.349  19.502  1.00  0.00    -0.493 OA
ATOM     17  C   UNL     1     -25.446 -36.586  19.552  1.00  0.00     0.278 C 
ENDBRANCH  13  16
ENDBRANCH   2   5
ENDBRANCH   1   2
BRANCH   1  18
ATOM     18  C   UNL     1     -18.591 -42.836  24.403  1.00  0.00     0.044 C 
BRANCH  18  19
ATOM     19  C   UNL     1     -17.197 -42.717  24.975  1.00  0.00    -0.036 A 
ATOM     20  C   UNL     1     -16.991 -42.732  26.354  1.00  0.00     0.074 A 
ATOM     21  C   UNL     1     -16.086 -42.637  24.136  1.00  0.00     0.074 A 
ATOM     22  C   UNL     1     -15.697 -42.678  26.858  1.00  0.00     0.308 A 
ATOM     23  C   UNL     1     -14.810 -42.584  24.685  1.00  0.00     0.308 A 
ATOM     24  N   UNL     1     -14.633 -42.603  26.025  1.00  0.00    -0.201 N 
BRANCH  24  25
ATOM     25  C   UNL     1     -13.263 -42.572  26.591  1.00  0.00     0.393 C 
BRANCH  25  26
ATOM     26  C   UNL     1     -12.871 -43.915  27.148  1.00  0.00     0.017 A 
ATOM     27  C   UNL     1     -11.916 -44.004  28.175  1.00  0.00     0.010 A 
ATOM     28  C   UNL     1     -13.455 -45.096  26.661  1.00  0.00     0.010 A 
ATOM     29  C   UNL     1     -11.546 -45.247  28.690  1.00  0.00     0.001 A 
ATOM     30  C   UNL     1     -13.080 -46.336  27.180  1.00  0.00     0.001 A 
ATOM     31  C   UNL     1     -12.126 -46.411  28.191  1.00  0.00     0.000 A 
ENDBRANCH  25  26
ENDBRANCH  24  25
ENDBRANCH  18  19
ENDBRANCH   1  18
TORSDOF 9
ENDMDL
MODEL 8
REMARK VINA RESULT:    -8.870      3.229      5.789
REMARK INTER + INTRA:         -13.860
REMARK INTER:                 -13.236
REMARK INTRA:                  -0.624
REMARK UNBOUND:                -0.582
REMARK SMILES COc1cc2c(cc1OC)SC(=C(O)CCc1cc[n+](Cc3ccccc3)cc1)C2
REMARK SMILES IDX 15 1 13 2 14 3 12 5 30 6 11 7 5 8 6 9 4 10 7 11 3 12 8 13
REMARK SMILES IDX 2 14 1 15 9 16 10 17 16 18 17 19 18 20 29 21 19 22 28 23
REMARK SMILES IDX 20 24 21 25 22 26 23 27 27 28 24 29 26 30 25 31
REMARK H PARENT 14 4
ROOT
ATOM      1  C   UNL     1     -20.514 -41.341  26.404  1.00  0.00     0.080 C 
ENDROOT
BRANCH   1   2
ATOM      2  C   UNL     1     -21.250 -42.071  25.305  1.00  0.00     0.103 C 
BRANCH   2   3
ATOM      3  O   UNL     1     -21.735 -43.316  25.684  1.00  0.00    -0.511 OA
ATOM      4  H   UNL     1     -22.399 -43.567  25.008  1.00  0.00     0.293 HD
ENDBRANCH   2   3
BRANCH   2   5
ATOM      5  C   UNL     1     -21.406 -41.607  24.050  1.00  0.00     0.032 C 
ATOM      6  C   UNL     1     -20.918 -40.268  23.533  1.00  0.00     0.083 C 
ATOM      7  S   UNL     1     -22.277 -42.539  22.835  1.00  0.00    -0.090 SA
ATOM      8  C   UNL     1     -21.419 -40.129  22.125  1.00  0.00    -0.025 A 
ATOM      9  C   UNL     1     -22.125 -41.230  21.644  1.00  0.00     0.020 A 
ATOM     10  C   UNL     1     -21.223 -39.021  21.313  1.00  0.00     0.055 A 
ATOM     11  C   UNL     1     -22.652 -41.240  20.356  1.00  0.00     0.066 A 
ATOM     12  C   UNL     1     -21.729 -39.022  20.005  1.00  0.00     0.161 A 
ATOM     13  C   UNL     1     -22.468 -40.126  19.525  1.00  0.00     0.161 A 
BRANCH  12  14
ATOM     14  O   UNL     1     -21.474 -37.857  19.325  1.00  0.00    -0.493 OA
ATOM     15  C   UNL     1     -22.482 -36.855  19.413  1.00  0.00     0.278 C 
ENDBRANCH  12  14
BRANCH  13  16
ATOM     16  O   UNL     1     -22.996 -40.028  18.264  1.00  0.00    -0.493 OA
ATOM     17  C   UNL     1     -24.409 -39.950  18.131  1.00  0.00     0.278 C 
ENDBRANCH  13  16
ENDBRANCH   2   5
ENDBRANCH   1   2
BRANCH   1  18
ATOM     18  C   UNL     1     -19.652 -42.263  27.279  1.00  0.00     0.044 C 
BRANCH  18  19
ATOM     19  C   UNL     1     -18.220 -42.391  26.812  1.00  0.00    -0.036 A 
ATOM     20  C   UNL     1     -17.174 -42.438  27.734  1.00  0.00     0.074 A 
ATOM     21  C   UNL     1     -17.920 -42.512  25.456  1.00  0.00     0.074 A 
ATOM     22  C   UNL     1     -15.870 -42.613  27.287  1.00  0.00     0.308 A 
ATOM     23  C   UNL     1     -16.600 -42.684  25.055  1.00  0.00     0.308 A 
ATOM     24  N   UNL     1     -15.602 -42.730  25.966  1.00  0.00    -0.201 N 
BRANCH  24  25
ATOM     25  C   UNL     1     -14.203 -42.940  25.520  1.00  0.00     0.393 C 
BRANCH  25  26
ATOM     26  C   UNL     1     -13.418 -43.726  26.537  1.00  0.00     0.017 A 
ATOM     27  C   UNL     1     -13.713 -45.081  26.767  1.00  0.00     0.010 A 
ATOM     28  C   UNL     1     -12.377 -43.127  27.265  1.00  0.00     0.010 A 
ATOM     29  C   UNL     1     -12.993 -45.811  27.712  1.00  0.00     0.001 A 
ATOM     30  C   UNL     1     -11.660 -43.863  28.210  1.00  0.00     0.001 A 
ATOM     31  C   UNL     1     -11.969 -45.202  28.434  1.00  0.00     0.000 A 
ENDBRANCH  25  26
ENDBRANCH  24  25
ENDBRANCH  18  19
ENDBRANCH   1  18
TORSDOF 9
ENDMDL
MODEL 9
REMARK VINA RESULT:    -8.472      3.703      6.843
REMARK INTER + INTRA:         -13.264
REMARK INTER:                 -12.662
REMARK INTRA:                  -0.602
REMARK UNBOUND:                -0.582
REMARK SMILES COc1cc2c(cc1OC)SC(=C(O)CCc1cc[n+](Cc3ccccc3)cc1)C2
REMARK SMILES IDX 15 1 13 2 14 3 12 5 30 6 11 7 5 8 6 9 4 10 7 11 3 12 8 13
REMARK SMILES IDX 2 14 1 15 9 16 10 17 16 18 17 19 18 20 29 21 19 22 28 23
REMARK SMILES IDX 20 24 21 25 22 26 23 27 27 28 24 29 26 30 25 31
REMARK H PARENT 14 4
ROOT
ATOM      1  C   UNL     1     -20.381 -41.897  25.370  1.00  0.00     0.080 C 
ENDROOT
BRANCH   1   2
ATOM      2  C   UNL     1     -21.843 -42.217  25.568  1.00  0.00     0.103 C 
BRANCH   2   3
ATOM      3  O   UNL     1     -22.317 -43.223  24.736  1.00  0.00    -0.511 OA
ATOM      4  H   UNL     1     -21.528 -43.713  24.425  1.00  0.00     0.293 HD
ENDBRANCH   2   3
BRANCH   2   5
ATOM      5  C   UNL     1     -22.656 -41.579  26.433  1.00  0.00     0.032 C 
ATOM      6  C   UNL     1     -22.700 -40.081  26.666  1.00  0.00     0.083 C 
ATOM      7  S   UNL     1     -23.772 -42.470  27.463  1.00  0.00    -0.090 SA
ATOM      8  C   UNL     1     -23.660 -39.838  27.795  1.00  0.00    -0.025 A 
ATOM      9  C   UNL     1     -24.284 -40.982  28.288  1.00  0.00     0.020 A 
ATOM     10  C   UNL     1     -23.950 -38.598  28.344  1.00  0.00     0.055 A 
ATOM     11  C   UNL     1     -25.195 -40.910  29.337  1.00  0.00     0.066 A 
ATOM     12  C   UNL     1     -24.882 -38.502  29.387  1.00  0.00     0.161 A 
ATOM     13  C   UNL     1     -25.495 -39.664  29.907  1.00  0.00     0.161 A 
BRANCH  12  14
ATOM     14  O   UNL     1     -25.057 -37.219  29.842  1.00  0.00    -0.493 OA
ATOM     15  C   UNL     1     -23.956 -36.656  30.548  1.00  0.00     0.278 C 
ENDBRANCH  12  14
BRANCH  13  16
ATOM     16  O   UNL     1     -26.338 -39.505  30.976  1.00  0.00    -0.493 OA
ATOM     17  C   UNL     1     -27.738 -39.595  30.748  1.00  0.00     0.278 C 
ENDBRANCH  13  16
ENDBRANCH   2   5
ENDBRANCH   1   2
BRANCH   1  18
ATOM     18  C   UNL     1     -19.516 -42.199  26.602  1.00  0.00     0.044 C 
BRANCH  18  19
ATOM     19  C   UNL     1     -18.051 -42.405  26.288  1.00  0.00    -0.036 A 
ATOM     20  C   UNL     1     -17.111 -42.498  27.314  1.00  0.00     0.074 A 
ATOM     21  C   UNL     1     -17.618 -42.555  24.971  1.00  0.00     0.074 A 
ATOM     22  C   UNL     1     -15.778 -42.744  27.006  1.00  0.00     0.308 A 
ATOM     23  C   UNL     1     -16.274 -42.799  24.711  1.00  0.00     0.308 A 
ATOM     24  N   UNL     1     -15.381 -42.888  25.721  1.00  0.00    -0.201 N 
BRANCH  24  25
ATOM     25  C   UNL     1     -13.955 -43.174  25.424  1.00  0.00     0.393 C 
BRANCH  25  26
ATOM     26  C   UNL     1     -13.298 -43.908  26.564  1.00  0.00     0.017 A 
ATOM     27  C   UNL     1     -13.656 -45.236  26.851  1.00  0.00     0.010 A 
ATOM     28  C   UNL     1     -12.314 -43.286  27.349  1.00  0.00     0.010 A 
ATOM     29  C   UNL     1     -13.054 -45.917  27.910  1.00  0.00     0.001 A 
ATOM     30  C   UNL     1     -11.715 -43.973  28.407  1.00  0.00     0.001 A 
ATOM     31  C   UNL     1     -12.087 -45.285  28.687  1.00  0.00     0.000 A 
ENDBRANCH  25  26
ENDBRANCH  24  25
ENDBRANCH  18  19
ENDBRANCH   1  18
TORSDOF 9
ENDMDL
