MODEL 1
REMARK VINA RESULT:   -10.062      0.000      0.000
REMARK INTER + INTRA:         -15.997
REMARK INTER:                 -15.062
REMARK INTRA:                  -0.935
REMARK UNBOUND:                -0.935
REMARK SMILES COc1cc2c(cc1OC)S[C@@H](C(O)=CCc1cc[n+](Cc3ccsc3)cc1)C2
REMARK SMILES IDX 15 1 13 2 14 3 12 5 29 6 11 7 5 8 6 9 4 10 7 11 3 12 8 13
REMARK SMILES IDX 2 14 1 15 9 16 10 17 16 18 17 19 18 20 28 21 19 22 27 23
REMARK SMILES IDX 20 24 21 25 22 26 23 27 26 28 24 29 25 30
REMARK H PARENT 14 4
ROOT
ATOM      1  C   UNL     1     -12.088 -45.431  28.073  1.00  0.00     0.020 C 
ENDROOT
BRANCH   1   2
ATOM      2  C   UNL     1     -11.206 -46.148  28.788  1.00  0.00     0.102 C 
BRANCH   2   3
ATOM      3  O   UNL     1     -10.010 -46.530  28.198  1.00  0.00    -0.511 OA
ATOM      4  H   UNL     1     -10.203 -47.203  27.516  1.00  0.00     0.293 HD
ENDBRANCH   2   3
BRANCH   2   5
ATOM      5  C   UNL     1     -11.446 -46.544  30.239  1.00  0.00     0.121 C 
ATOM      6  C   UNL     1     -10.518 -45.815  31.234  1.00  0.00     0.059 C 
ATOM      7  S   UNL     1     -13.171 -46.137  30.704  1.00  0.00    -0.114 SA
ATOM      8  C   UNL     1     -11.291 -44.685  31.853  1.00  0.00    -0.029 A 
ATOM      9  C   UNL     1     -12.673 -44.763  31.700  1.00  0.00     0.015 A 
ATOM     10  C   UNL     1     -10.723 -43.647  32.588  1.00  0.00     0.055 A 
ATOM     11  C   UNL     1     -13.518 -43.817  32.263  1.00  0.00     0.065 A 
ATOM     12  C   UNL     1     -11.556 -42.675  33.157  1.00  0.00     0.161 A 
ATOM     13  C   UNL     1     -12.961 -42.764  32.997  1.00  0.00     0.161 A 
BRANCH  12  14
ATOM     14  O   UNL     1     -11.105 -41.603  33.888  1.00  0.00    -0.493 OA
ATOM     15  C   UNL     1      -9.815 -41.694  34.474  1.00  0.00     0.278 C 
ENDBRANCH  12  14
BRANCH  13  16
ATOM     16  O   UNL     1     -13.696 -41.764  33.586  1.00  0.00    -0.493 OA
ATOM     17  C   UNL     1     -15.072 -41.669  33.247  1.00  0.00     0.278 C 
ENDBRANCH  13  16
ENDBRANCH   2   5
ENDBRANCH   1   2
BRANCH   1  18
ATOM     18  C   UNL     1     -12.926 -45.973  26.950  1.00  0.00     0.067 C 
BRANCH  18  19
ATOM     19  C   UNL     1     -13.949 -44.966  26.476  1.00  0.00    -0.032 A 
ATOM     20  C   UNL     1     -14.594 -44.111  27.368  1.00  0.00     0.075 A 
ATOM     21  C   UNL     1     -14.238 -44.850  25.115  1.00  0.00     0.075 A 
ATOM     22  C   UNL     1     -15.506 -43.178  26.889  1.00  0.00     0.308 A 
ATOM     23  C   UNL     1     -15.155 -43.902  24.680  1.00  0.00     0.308 A 
ATOM     24  N   UNL     1     -15.772 -43.086  25.564  1.00  0.00    -0.201 N 
BRANCH  24  25
ATOM     25  C   UNL     1     -16.745 -42.075  25.080  1.00  0.00     0.394 C 
BRANCH  25  26
ATOM     26  C   UNL     1     -18.133 -42.458  25.489  1.00  0.00     0.027 A 
ATOM     27  C   UNL     1     -18.750 -42.106  26.739  1.00  0.00     0.022 A 
ATOM     28  C   UNL     1     -18.999 -43.213  24.716  1.00  0.00     0.075 A 
ATOM     29  C   UNL     1     -20.037 -42.583  26.849  1.00  0.00     0.065 A 
ATOM     30  S   UNL     1     -20.516 -43.460  25.465  1.00  0.00    -0.152 S 
ENDBRANCH  25  26
ENDBRANCH  24  25
ENDBRANCH  18  19
ENDBRANCH   1  18
TORSDOF 9
ENDMDL
MODEL 2
REMARK VINA RESULT:    -9.660      4.016      9.305
REMARK INTER + INTRA:         -15.394
REMARK INTER:                 -14.560
REMARK INTRA:                  -0.835
REMARK UNBOUND:                -0.935
REMARK SMILES COc1cc2c(cc1OC)S[C@@H](C(O)=CCc1cc[n+](Cc3ccsc3)cc1)C2
REMARK SMILES IDX 15 1 13 2 14 3 12 5 29 6 11 7 5 8 6 9 4 10 7 11 3 12 8 13
REMARK SMILES IDX 2 14 1 15 9 16 10 17 16 18 17 19 18 20 28 21 19 22 27 23
REMARK SMILES IDX 20 24 21 25 22 26 23 27 26 28 24 29 25 30
REMARK H PARENT 14 4
ROOT
ATOM      1  C   UNL     1     -14.418 -44.610  26.318  1.00  0.00     0.020 C 
ENDROOT
BRANCH   1   2
ATOM      2  C   UNL     1     -14.762 -43.859  25.259  1.00  0.00     0.102 C 
BRANCH   2   3
ATOM      3  O   UNL     1     -14.497 -44.331  23.981  1.00  0.00    -0.511 OA
ATOM      4  H   UNL     1     -14.269 -43.570  23.411  1.00  0.00     0.293 HD
ENDBRANCH   2   3
BRANCH   2   5
ATOM      5  C   UNL     1     -15.459 -42.511  25.393  1.00  0.00     0.121 C 
ATOM      6  C   UNL     1     -16.634 -42.330  24.410  1.00  0.00     0.059 C 
ATOM      7  S   UNL     1     -16.135 -42.342  27.087  1.00  0.00    -0.114 SA
ATOM      8  C   UNL     1     -17.913 -42.593  25.155  1.00  0.00    -0.029 A 
ATOM      9  C   UNL     1     -17.802 -42.570  26.543  1.00  0.00     0.015 A 
ATOM     10  C   UNL     1     -19.154 -42.791  24.553  1.00  0.00     0.055 A 
ATOM     11  C   UNL     1     -18.908 -42.746  27.360  1.00  0.00     0.065 A 
ATOM     12  C   UNL     1     -20.284 -42.980  25.359  1.00  0.00     0.161 A 
ATOM     13  C   UNL     1     -20.160 -42.952  26.770  1.00  0.00     0.161 A 
BRANCH  12  14
ATOM     14  O   UNL     1     -21.550 -43.196  24.874  1.00  0.00    -0.493 OA
ATOM     15  C   UNL     1     -21.862 -44.493  24.385  1.00  0.00     0.278 C 
ENDBRANCH  12  14
BRANCH  13  16
ATOM     16  O   UNL     1     -21.321 -43.153  27.477  1.00  0.00    -0.493 OA
ATOM     17  C   UNL     1     -21.478 -44.394  28.149  1.00  0.00     0.278 C 
ENDBRANCH  13  16
ENDBRANCH   2   5
ENDBRANCH   1   2
BRANCH   1  18
ATOM     18  C   UNL     1     -13.386 -45.701  26.297  1.00  0.00     0.067 C 
BRANCH  18  19
ATOM     19  C   UNL     1     -12.724 -45.874  27.646  1.00  0.00    -0.032 A 
ATOM     20  C   UNL     1     -11.444 -46.412  27.763  1.00  0.00     0.075 A 
ATOM     21  C   UNL     1     -13.378 -45.453  28.805  1.00  0.00     0.075 A 
ATOM     22  C   UNL     1     -10.858 -46.526  29.019  1.00  0.00     0.308 A 
ATOM     23  C   UNL     1     -12.754 -45.583  30.039  1.00  0.00     0.308 A 
ATOM     24  N   UNL     1     -11.514 -46.114  30.129  1.00  0.00    -0.201 N 
BRANCH  24  25
ATOM     25  C   UNL     1     -10.860 -46.240  31.455  1.00  0.00     0.394 C 
BRANCH  25  26
ATOM     26  C   UNL     1      -9.525 -45.564  31.438  1.00  0.00     0.027 A 
ATOM     27  C   UNL     1      -8.260 -46.241  31.350  1.00  0.00     0.022 A 
ATOM     28  C   UNL     1      -9.338 -44.194  31.517  1.00  0.00     0.075 A 
ATOM     29  C   UNL     1      -7.191 -45.372  31.347  1.00  0.00     0.065 A 
ATOM     30  S   UNL     1      -7.690 -43.743  31.456  1.00  0.00    -0.152 S 
ENDBRANCH  25  26
ENDBRANCH  24  25
ENDBRANCH  18  19
ENDBRANCH   1  18
TORSDOF 9
ENDMDL
MODEL 3
REMARK VINA RESULT:    -9.641      1.401      1.922
REMARK INTER + INTRA:         -15.366
REMARK INTER:                 -15.014
REMARK INTRA:                  -0.352
REMARK UNBOUND:                -0.935
REMARK SMILES COc1cc2c(cc1OC)S[C@@H](C(O)=CCc1cc[n+](Cc3ccsc3)cc1)C2
REMARK SMILES IDX 15 1 13 2 14 3 12 5 29 6 11 7 5 8 6 9 4 10 7 11 3 12 8 13
REMARK SMILES IDX 2 14 1 15 9 16 10 17 16 18 17 19 18 20 28 21 19 22 27 23
REMARK SMILES IDX 20 24 21 25 22 26 23 27 26 28 24 29 25 30
REMARK H PARENT 14 4
ROOT
ATOM      1  C   UNL     1     -13.319 -44.669  28.196  1.00  0.00     0.020 C 
ENDROOT
BRANCH   1   2
ATOM      2  C   UNL     1     -12.618 -45.736  28.613  1.00  0.00     0.102 C 
BRANCH   2   3
ATOM      3  O   UNL     1     -11.900 -46.477  27.685  1.00  0.00    -0.511 OA
ATOM      4  H   UNL     1     -11.035 -46.045  27.548  1.00  0.00     0.293 HD
ENDBRANCH   2   3
BRANCH   2   5
ATOM      5  C   UNL     1     -12.551 -46.160  30.075  1.00  0.00     0.121 C 
ATOM      6  C   UNL     1     -11.113 -46.208  30.632  1.00  0.00     0.059 C 
ATOM      7  S   UNL     1     -13.493 -44.969  31.099  1.00  0.00    -0.114 SA
ATOM      8  C   UNL     1     -10.875 -44.952  31.422  1.00  0.00    -0.029 A 
ATOM      9  C   UNL     1     -12.026 -44.251  31.775  1.00  0.00     0.015 A 
ATOM     10  C   UNL     1      -9.625 -44.510  31.848  1.00  0.00     0.055 A 
ATOM     11  C   UNL     1     -11.963 -43.101  32.547  1.00  0.00     0.065 A 
ATOM     12  C   UNL     1      -9.537 -43.345  32.622  1.00  0.00     0.161 A 
ATOM     13  C   UNL     1     -10.714 -42.640  32.976  1.00  0.00     0.161 A 
BRANCH  12  14
ATOM     14  O   UNL     1      -8.359 -42.812  33.083  1.00  0.00    -0.493 OA
ATOM     15  C   UNL     1      -7.153 -43.496  32.773  1.00  0.00     0.278 C 
ENDBRANCH  12  14
BRANCH  13  16
ATOM     16  O   UNL     1     -10.529 -41.507  33.731  1.00  0.00    -0.493 OA
ATOM     17  C   UNL     1     -10.562 -41.642  35.144  1.00  0.00     0.278 C 
ENDBRANCH  13  16
ENDBRANCH   2   5
ENDBRANCH   1   2
BRANCH   1  18
ATOM     18  C   UNL     1     -13.065 -43.921  26.918  1.00  0.00     0.067 C 
BRANCH  18  19
ATOM     19  C   UNL     1     -14.353 -43.548  26.220  1.00  0.00    -0.032 A 
ATOM     20  C   UNL     1     -15.458 -43.087  26.933  1.00  0.00     0.075 A 
ATOM     21  C   UNL     1     -14.442 -43.623  24.829  1.00  0.00     0.075 A 
ATOM     22  C   UNL     1     -16.615 -42.724  26.251  1.00  0.00     0.308 A 
ATOM     23  C   UNL     1     -15.616 -43.249  24.188  1.00  0.00     0.308 A 
ATOM     24  N   UNL     1     -16.678 -42.809  24.901  1.00  0.00    -0.201 N 
BRANCH  24  25
ATOM     25  C   UNL     1     -17.922 -42.408  24.200  1.00  0.00     0.394 C 
BRANCH  25  26
ATOM     26  C   UNL     1     -19.100 -42.557  25.112  1.00  0.00     0.027 A 
ATOM     27  C   UNL     1     -19.473 -41.619  26.136  1.00  0.00     0.022 A 
ATOM     28  C   UNL     1     -19.977 -43.629  25.093  1.00  0.00     0.075 A 
ATOM     29  C   UNL     1     -20.604 -42.003  26.821  1.00  0.00     0.065 A 
ATOM     30  S   UNL     1     -21.224 -43.488  26.253  1.00  0.00    -0.152 S 
ENDBRANCH  25  26
ENDBRANCH  24  25
ENDBRANCH  18  19
ENDBRANCH   1  18
TORSDOF 9
ENDMDL
MODEL 4
REMARK VINA RESULT:    -9.595      2.011      3.409
REMARK INTER + INTRA:         -15.297
REMARK INTER:                 -14.487
REMARK INTRA:                  -0.810
REMARK UNBOUND:                -0.935
REMARK SMILES COc1cc2c(cc1OC)S[C@@H](C(O)=CCc1cc[n+](Cc3ccsc3)cc1)C2
REMARK SMILES IDX 15 1 13 2 14 3 12 5 29 6 11 7 5 8 6 9 4 10 7 11 3 12 8 13
REMARK SMILES IDX 2 14 1 15 9 16 10 17 16 18 17 19 18 20 28 21 19 22 27 23
REMARK SMILES IDX 20 24 21 25 22 26 23 27 26 28 24 29 25 30
REMARK H PARENT 14 4
ROOT
ATOM      1  C   UNL     1     -14.159 -44.563  26.301  1.00  0.00     0.020 C 
ENDROOT
BRANCH   1   2
ATOM      2  C   UNL     1     -13.296 -44.430  27.322  1.00  0.00     0.102 C 
BRANCH   2   3
ATOM      3  O   UNL     1     -12.663 -43.210  27.516  1.00  0.00    -0.511 OA
ATOM      4  H   UNL     1     -12.067 -43.048  26.759  1.00  0.00     0.293 HD
ENDBRANCH   2   3
BRANCH   2   5
ATOM      5  C   UNL     1     -12.995 -45.557  28.302  1.00  0.00     0.121 C 
ATOM      6  C   UNL     1     -11.494 -45.897  28.400  1.00  0.00     0.059 C 
ATOM      7  S   UNL     1     -13.555 -45.073  29.977  1.00  0.00    -0.114 SA
ATOM      8  C   UNL     1     -10.944 -45.242  29.636  1.00  0.00    -0.029 A 
ATOM      9  C   UNL     1     -11.903 -44.823  30.556  1.00  0.00     0.015 A 
ATOM     10  C   UNL     1      -9.589 -45.095  29.918  1.00  0.00     0.055 A 
ATOM     11  C   UNL     1     -11.542 -44.247  31.765  1.00  0.00     0.065 A 
ATOM     12  C   UNL     1      -9.201 -44.508  31.129  1.00  0.00     0.161 A 
ATOM     13  C   UNL     1     -10.183 -44.087  32.059  1.00  0.00     0.161 A 
BRANCH  12  14
ATOM     14  O   UNL     1      -7.896 -44.301  31.505  1.00  0.00    -0.493 OA
ATOM     15  C   UNL     1      -7.083 -45.442  31.736  1.00  0.00     0.278 C 
ENDBRANCH  12  14
BRANCH  13  16
ATOM     16  O   UNL     1      -9.709 -43.517  33.216  1.00  0.00    -0.493 OA
ATOM     17  C   UNL     1     -10.438 -42.427  33.762  1.00  0.00     0.278 C 
ENDBRANCH  13  16
ENDBRANCH   2   5
ENDBRANCH   1   2
BRANCH   1  18
ATOM     18  C   UNL     1     -14.642 -43.437  25.433  1.00  0.00     0.067 C 
BRANCH  18  19
ATOM     19  C   UNL     1     -16.016 -42.960  25.844  1.00  0.00    -0.032 A 
ATOM     20  C   UNL     1     -17.021 -42.745  24.903  1.00  0.00     0.075 A 
ATOM     21  C   UNL     1     -16.314 -42.764  27.194  1.00  0.00     0.075 A 
ATOM     22  C   UNL     1     -18.282 -42.335  25.325  1.00  0.00     0.308 A 
ATOM     23  C   UNL     1     -17.587 -42.357  27.571  1.00  0.00     0.308 A 
ATOM     24  N   UNL     1     -18.546 -42.149  26.640  1.00  0.00    -0.201 N 
BRANCH  24  25
ATOM     25  C   UNL     1     -19.902 -41.720  27.061  1.00  0.00     0.394 C 
BRANCH  25  26
ATOM     26  C   UNL     1     -20.858 -42.868  26.968  1.00  0.00     0.027 A 
ATOM     27  C   UNL     1     -20.797 -44.058  27.771  1.00  0.00     0.022 A 
ATOM     28  C   UNL     1     -21.923 -42.934  26.084  1.00  0.00     0.075 A 
ATOM     29  C   UNL     1     -21.807 -44.948  27.481  1.00  0.00     0.065 A 
ATOM     30  S   UNL     1     -22.832 -44.373  26.244  1.00  0.00    -0.152 S 
ENDBRANCH  25  26
ENDBRANCH  24  25
ENDBRANCH  18  19
ENDBRANCH   1  18
TORSDOF 9
ENDMDL
MODEL 5
REMARK VINA RESULT:    -9.373      1.443      2.378
REMARK INTER + INTRA:         -14.965
REMARK INTER:                 -13.908
REMARK INTRA:                  -1.056
REMARK UNBOUND:                -0.935
REMARK SMILES COc1cc2c(cc1OC)S[C@@H](C(O)=CCc1cc[n+](Cc3ccsc3)cc1)C2
REMARK SMILES IDX 15 1 13 2 14 3 12 5 29 6 11 7 5 8 6 9 4 10 7 11 3 12 8 13
REMARK SMILES IDX 2 14 1 15 9 16 10 17 16 18 17 19 18 20 28 21 19 22 27 23
REMARK SMILES IDX 20 24 21 25 22 26 23 27 26 28 24 29 25 30
REMARK H PARENT 14 4
ROOT
ATOM      1  C   UNL     1     -11.990 -46.232  28.529  1.00  0.00     0.020 C 
ENDROOT
BRANCH   1   2
ATOM      2  C   UNL     1     -10.700 -45.865  28.615  1.00  0.00     0.102 C 
BRANCH   2   3
ATOM      3  O   UNL     1      -9.715 -46.840  28.546  1.00  0.00    -0.511 OA
ATOM      4  H   UNL     1      -9.824 -47.443  29.308  1.00  0.00     0.293 HD
ENDBRANCH   2   3
BRANCH   2   5
ATOM      5  C   UNL     1     -10.262 -44.414  28.759  1.00  0.00     0.121 C 
ATOM      6  C   UNL     1     -11.375 -43.489  29.296  1.00  0.00     0.059 C 
ATOM      7  S   UNL     1      -8.859 -44.315  29.932  1.00  0.00    -0.114 SA
ATOM      8  C   UNL     1     -11.135 -43.269  30.763  1.00  0.00    -0.029 A 
ATOM      9  C   UNL     1      -9.856 -43.602  31.206  1.00  0.00     0.015 A 
ATOM     10  C   UNL     1     -12.063 -42.720  31.644  1.00  0.00     0.055 A 
ATOM     11  C   UNL     1      -9.475 -43.404  32.525  1.00  0.00     0.065 A 
ATOM     12  C   UNL     1     -11.702 -42.520  32.982  1.00  0.00     0.161 A 
ATOM     13  C   UNL     1     -10.399 -42.860  33.423  1.00  0.00     0.161 A 
BRANCH  12  14
ATOM     14  O   UNL     1     -12.539 -41.999  33.938  1.00  0.00    -0.493 OA
ATOM     15  C   UNL     1     -13.929 -42.265  33.820  1.00  0.00     0.278 C 
ENDBRANCH  12  14
BRANCH  13  16
ATOM     16  O   UNL     1     -10.138 -42.634  34.753  1.00  0.00    -0.493 OA
ATOM     17  C   UNL     1      -8.913 -41.999  35.087  1.00  0.00     0.278 C 
ENDBRANCH  13  16
ENDBRANCH   2   5
ENDBRANCH   1   2
BRANCH   1  18
ATOM     18  C   UNL     1     -12.710 -46.545  27.248  1.00  0.00     0.067 C 
BRANCH  18  19
ATOM     19  C   UNL     1     -13.614 -45.412  26.820  1.00  0.00    -0.032 A 
ATOM     20  C   UNL     1     -14.188 -44.549  27.752  1.00  0.00     0.075 A 
ATOM     21  C   UNL     1     -13.859 -45.186  25.464  1.00  0.00     0.075 A 
ATOM     22  C   UNL     1     -14.990 -43.500  27.316  1.00  0.00     0.308 A 
ATOM     23  C   UNL     1     -14.664 -44.125  25.072  1.00  0.00     0.308 A 
ATOM     24  N   UNL     1     -15.215 -43.303  25.995  1.00  0.00    -0.201 N 
BRANCH  24  25
ATOM     25  C   UNL     1     -16.068 -42.171  25.558  1.00  0.00     0.394 C 
BRANCH  25  26
ATOM     26  C   UNL     1     -17.512 -42.501  25.771  1.00  0.00     0.027 A 
ATOM     27  C   UNL     1     -18.204 -42.397  27.027  1.00  0.00     0.022 A 
ATOM     28  C   UNL     1     -18.367 -42.960  24.783  1.00  0.00     0.075 A 
ATOM     29  C   UNL     1     -19.530 -42.758  26.934  1.00  0.00     0.065 A 
ATOM     30  S   UNL     1     -19.957 -43.227  25.350  1.00  0.00    -0.152 S 
ENDBRANCH  25  26
ENDBRANCH  24  25
ENDBRANCH  18  19
ENDBRANCH   1  18
TORSDOF 9
ENDMDL
MODEL 6
REMARK VINA RESULT:    -9.282      3.108      4.957
REMARK INTER + INTRA:         -14.829
REMARK INTER:                 -13.960
REMARK INTRA:                  -0.868
REMARK UNBOUND:                -0.935
REMARK SMILES COc1cc2c(cc1OC)S[C@@H](C(O)=CCc1cc[n+](Cc3ccsc3)cc1)C2
REMARK SMILES IDX 15 1 13 2 14 3 12 5 29 6 11 7 5 8 6 9 4 10 7 11 3 12 8 13
REMARK SMILES IDX 2 14 1 15 9 16 10 17 16 18 17 19 18 20 28 21 19 22 27 23
REMARK SMILES IDX 20 24 21 25 22 26 23 27 26 28 24 29 25 30
REMARK H PARENT 14 4
ROOT
ATOM      1  C   UNL     1     -15.661 -43.140  27.722  1.00  0.00     0.020 C 
ENDROOT
BRANCH   1   2
ATOM      2  C   UNL     1     -14.958 -43.909  28.570  1.00  0.00     0.102 C 
BRANCH   2   3
ATOM      3  O   UNL     1     -15.282 -43.897  29.919  1.00  0.00    -0.511 OA
ATOM      4  H   UNL     1     -16.237 -43.707  30.006  1.00  0.00     0.293 HD
ENDBRANCH   2   3
BRANCH   2   5
ATOM      5  C   UNL     1     -13.827 -44.822  28.114  1.00  0.00     0.121 C 
ATOM      6  C   UNL     1     -12.784 -44.108  27.230  1.00  0.00     0.059 C 
ATOM      7  S   UNL     1     -12.944 -45.478  29.578  1.00  0.00    -0.114 SA
ATOM      8  C   UNL     1     -11.598 -43.767  28.088  1.00  0.00    -0.029 A 
ATOM      9  C   UNL     1     -11.533 -44.449  29.301  1.00  0.00     0.015 A 
ATOM     10  C   UNL     1     -10.580 -42.891  27.720  1.00  0.00     0.055 A 
ATOM     11  C   UNL     1     -10.469 -44.274  30.173  1.00  0.00     0.065 A 
ATOM     12  C   UNL     1      -9.500 -42.692  28.589  1.00  0.00     0.161 A 
ATOM     13  C   UNL     1      -9.443 -43.391  29.820  1.00  0.00     0.161 A 
BRANCH  12  14
ATOM     14  O   UNL     1      -8.451 -41.843  28.335  1.00  0.00    -0.493 OA
ATOM     15  C   UNL     1      -8.010 -41.715  26.991  1.00  0.00     0.278 C 
ENDBRANCH  12  14
BRANCH  13  16
ATOM     16  O   UNL     1      -8.350 -43.127  30.609  1.00  0.00    -0.493 OA
ATOM     17  C   UNL     1      -8.275 -43.774  31.871  1.00  0.00     0.278 C 
ENDBRANCH  13  16
ENDBRANCH   2   5
ENDBRANCH   1   2
BRANCH   1  18
ATOM     18  C   UNL     1     -16.915 -42.395  28.078  1.00  0.00     0.067 C 
BRANCH  18  19
ATOM     19  C   UNL     1     -17.913 -42.400  26.943  1.00  0.00    -0.032 A 
ATOM     20  C   UNL     1     -17.514 -42.622  25.626  1.00  0.00     0.075 A 
ATOM     21  C   UNL     1     -19.273 -42.223  27.206  1.00  0.00     0.075 A 
ATOM     22  C   UNL     1     -18.467 -42.650  24.614  1.00  0.00     0.308 A 
ATOM     23  C   UNL     1     -20.191 -42.261  26.165  1.00  0.00     0.308 A 
ATOM     24  N   UNL     1     -19.781 -42.471  24.893  1.00  0.00    -0.201 N 
BRANCH  24  25
ATOM     25  C   UNL     1     -20.776 -42.515  23.794  1.00  0.00     0.394 C 
BRANCH  25  26
ATOM     26  C   UNL     1     -20.509 -41.417  22.813  1.00  0.00     0.027 A 
ATOM     27  C   UNL     1     -20.712 -40.017  23.069  1.00  0.00     0.022 A 
ATOM     28  C   UNL     1     -20.041 -41.611  21.525  1.00  0.00     0.075 A 
ATOM     29  C   UNL     1     -20.379 -39.226  21.992  1.00  0.00     0.065 A 
ATOM     30  S   UNL     1     -19.827 -40.148  20.667  1.00  0.00    -0.152 S 
ENDBRANCH  25  26
ENDBRANCH  24  25
ENDBRANCH  18  19
ENDBRANCH   1  18
TORSDOF 9
ENDMDL
MODEL 7
REMARK VINA RESULT:    -9.242      2.648      3.917
REMARK INTER + INTRA:         -14.769
REMARK INTER:                 -14.376
REMARK INTRA:                  -0.393
REMARK UNBOUND:                -0.935
REMARK SMILES COc1cc2c(cc1OC)S[C@@H](C(O)=CCc1cc[n+](Cc3ccsc3)cc1)C2
REMARK SMILES IDX 15 1 13 2 14 3 12 5 29 6 11 7 5 8 6 9 4 10 7 11 3 12 8 13
REMARK SMILES IDX 2 14 1 15 9 16 10 17 16 18 17 19 18 20 28 21 19 22 27 23
REMARK SMILES IDX 20 24 21 25 22 26 23 27 26 28 24 29 25 30
REMARK H PARENT 14 4
ROOT
ATOM      1  C   UNL     1     -14.536 -44.276  26.326  1.00  0.00     0.020 C 
ENDROOT
BRANCH   1   2
ATOM      2  C   UNL     1     -13.513 -44.254  27.197  1.00  0.00     0.102 C 
BRANCH   2   3
ATOM      3  O   UNL     1     -12.734 -43.110  27.295  1.00  0.00    -0.511 OA
ATOM      4  H   UNL     1     -12.935 -42.534  26.532  1.00  0.00     0.293 HD
ENDBRANCH   2   3
BRANCH   2   5
ATOM      5  C   UNL     1     -13.181 -45.427  28.110  1.00  0.00     0.121 C 
ATOM      6  C   UNL     1     -11.675 -45.759  28.155  1.00  0.00     0.059 C 
ATOM      7  S   UNL     1     -13.705 -45.036  29.821  1.00  0.00    -0.114 SA
ATOM      8  C   UNL     1     -11.101 -45.163  29.411  1.00  0.00    -0.029 A 
ATOM      9  C   UNL     1     -12.041 -44.802  30.373  1.00  0.00     0.015 A 
ATOM     10  C   UNL     1      -9.741 -45.018  29.669  1.00  0.00     0.055 A 
ATOM     11  C   UNL     1     -11.657 -44.286  31.601  1.00  0.00     0.065 A 
ATOM     12  C   UNL     1      -9.329 -44.492  30.900  1.00  0.00     0.161 A 
ATOM     13  C   UNL     1     -10.293 -44.128  31.872  1.00  0.00     0.161 A 
BRANCH  12  14
ATOM     14  O   UNL     1      -8.018 -44.293  31.255  1.00  0.00    -0.493 OA
ATOM     15  C   UNL     1      -7.196 -45.438  31.429  1.00  0.00     0.278 C 
ENDBRANCH  12  14
BRANCH  13  16
ATOM     16  O   UNL     1      -9.796 -43.615  33.046  1.00  0.00    -0.493 OA
ATOM     17  C   UNL     1     -10.410 -42.446  33.568  1.00  0.00     0.278 C 
ENDBRANCH  13  16
ENDBRANCH   2   5
ENDBRANCH   1   2
BRANCH   1  18
ATOM     18  C   UNL     1     -14.616 -43.448  25.075  1.00  0.00     0.067 C 
BRANCH  18  19
ATOM     19  C   UNL     1     -16.012 -42.921  24.838  1.00  0.00    -0.032 A 
ATOM     20  C   UNL     1     -16.478 -42.649  23.553  1.00  0.00     0.075 A 
ATOM     21  C   UNL     1     -16.882 -42.734  25.915  1.00  0.00     0.075 A 
ATOM     22  C   UNL     1     -17.780 -42.194  23.374  1.00  0.00     0.308 A 
ATOM     23  C   UNL     1     -18.175 -42.280  25.690  1.00  0.00     0.308 A 
ATOM     24  N   UNL     1     -18.603 -42.018  24.435  1.00  0.00    -0.201 N 
BRANCH  24  25
ATOM     25  C   UNL     1     -19.990 -41.539  24.213  1.00  0.00     0.394 C 
BRANCH  25  26
ATOM     26  C   UNL     1     -20.139 -41.019  22.818  1.00  0.00     0.027 A 
ATOM     27  C   UNL     1     -19.925 -39.654  22.421  1.00  0.00     0.022 A 
ATOM     28  C   UNL     1     -20.515 -41.788  21.729  1.00  0.00     0.075 A 
ATOM     29  C   UNL     1     -20.126 -39.455  21.072  1.00  0.00     0.065 A 
ATOM     30  S   UNL     1     -20.577 -40.894  20.273  1.00  0.00    -0.152 S 
ENDBRANCH  25  26
ENDBRANCH  24  25
ENDBRANCH  18  19
ENDBRANCH   1  18
TORSDOF 9
ENDMDL
MODEL 8
REMARK VINA RESULT:    -9.146      4.831     10.377
REMARK INTER + INTRA:         -14.626
REMARK INTER:                 -13.783
REMARK INTRA:                  -0.843
REMARK UNBOUND:                -0.935
REMARK SMILES COc1cc2c(cc1OC)S[C@@H](C(O)=CCc1cc[n+](Cc3ccsc3)cc1)C2
REMARK SMILES IDX 15 1 13 2 14 3 12 5 29 6 11 7 5 8 6 9 4 10 7 11 3 12 8 13
REMARK SMILES IDX 2 14 1 15 9 16 10 17 16 18 17 19 18 20 28 21 19 22 27 23
REMARK SMILES IDX 20 24 21 25 22 26 23 27 26 28 24 29 25 30
REMARK H PARENT 14 4
ROOT
ATOM      1  C   UNL     1     -15.216 -42.888  25.998  1.00  0.00     0.020 C 
ENDROOT
BRANCH   1   2
ATOM      2  C   UNL     1     -16.520 -42.750  25.705  1.00  0.00     0.102 C 
BRANCH   2   3
ATOM      3  O   UNL     1     -17.340 -42.061  26.587  1.00  0.00    -0.511 OA
ATOM      4  H   UNL     1     -17.102 -42.322  27.498  1.00  0.00     0.293 HD
ENDBRANCH   2   3
BRANCH   2   5
ATOM      5  C   UNL     1     -17.142 -43.296  24.427  1.00  0.00     0.121 C 
ATOM      6  C   UNL     1     -18.685 -43.260  24.433  1.00  0.00     0.059 C 
ATOM      7  S   UNL     1     -16.579 -42.296  22.999  1.00  0.00    -0.114 SA
ATOM      8  C   UNL     1     -19.128 -42.063  23.639  1.00  0.00    -0.029 A 
ATOM      9  C   UNL     1     -18.151 -41.508  22.816  1.00  0.00     0.015 A 
ATOM     10  C   UNL     1     -20.421 -41.546  23.642  1.00  0.00     0.055 A 
ATOM     11  C   UNL     1     -18.431 -40.431  21.988  1.00  0.00     0.065 A 
ATOM     12  C   UNL     1     -20.724 -40.453  22.820  1.00  0.00     0.161 A 
ATOM     13  C   UNL     1     -19.724 -39.896  21.985  1.00  0.00     0.161 A 
BRANCH  12  14
ATOM     14  O   UNL     1     -21.959 -39.855  22.753  1.00  0.00    -0.493 OA
ATOM     15  C   UNL     1     -22.853 -40.057  23.838  1.00  0.00     0.278 C 
ENDBRANCH  12  14
BRANCH  13  16
ATOM     16  O   UNL     1     -20.111 -38.824  21.219  1.00  0.00    -0.493 OA
ATOM     17  C   UNL     1     -20.156 -39.000  19.811  1.00  0.00     0.278 C 
ENDBRANCH  13  16
ENDBRANCH   2   5
ENDBRANCH   1   2
BRANCH   1  18
ATOM     18  C   UNL     1     -14.431 -44.159  25.841  1.00  0.00     0.067 C 
BRANCH  18  19
ATOM     19  C   UNL     1     -14.000 -44.721  27.177  1.00  0.00    -0.032 A 
ATOM     20  C   UNL     1     -12.991 -45.677  27.270  1.00  0.00     0.075 A 
ATOM     21  C   UNL     1     -14.585 -44.253  28.355  1.00  0.00     0.075 A 
ATOM     22  C   UNL     1     -12.601 -46.147  28.520  1.00  0.00     0.308 A 
ATOM     23  C   UNL     1     -14.164 -44.748  29.582  1.00  0.00     0.308 A 
ATOM     24  N   UNL     1     -13.187 -45.680  29.649  1.00  0.00    -0.201 N 
BRANCH  24  25
ATOM     25  C   UNL     1     -12.746 -46.193  30.969  1.00  0.00     0.394 C 
BRANCH  25  26
ATOM     26  C   UNL     1     -11.368 -45.698  31.280  1.00  0.00     0.027 A 
ATOM     27  C   UNL     1     -10.168 -46.483  31.179  1.00  0.00     0.022 A 
ATOM     28  C   UNL     1     -11.075 -44.417  31.718  1.00  0.00     0.075 A 
ATOM     29  C   UNL     1      -9.038 -45.772  31.519  1.00  0.00     0.065 A 
ATOM     30  S   UNL     1      -9.402 -44.167  31.969  1.00  0.00    -0.152 S 
ENDBRANCH  25  26
ENDBRANCH  24  25
ENDBRANCH  18  19
ENDBRANCH   1  18
TORSDOF 9
ENDMDL
