MODEL 1
REMARK VINA RESULT:   -12.125      0.000      0.000
REMARK INTER + INTRA:         -17.032
REMARK INTER:                 -16.378
REMARK INTRA:                  -0.654
REMARK UNBOUND:                -0.654
REMARK SMILES COc1cc2c(cc1OC)C(=O)/C(=C/c1cc[n+](Cc3ccccc3F)cc1)C2
REMARK SMILES IDX 15 1 16 2 17 3 18 4 27 5 28 6 14 7 13 8 3 9 4 10 8 11 5 12
REMARK SMILES IDX 7 13 6 14 29 15 11 16 12 17 2 18 1 19 9 20 10 21 19 22 20 23
REMARK SMILES IDX 21 24 25 25 22 26 24 27 23 28 26 29
REMARK H PARENT
ROOT
ATOM      1  C   UNL     1     -13.100 -44.320  27.841  1.00  0.00    -0.013 A 
ATOM      2  C   UNL     1     -11.919 -43.658  28.164  1.00  0.00     0.079 A 
ATOM      3  C   UNL     1     -11.422 -43.731  29.460  1.00  0.00     0.309 A 
ATOM      4  N   UNL     1     -12.080 -44.433  30.413  1.00  0.00    -0.201 N 
ATOM      5  C   UNL     1     -13.234 -45.076  30.119  1.00  0.00     0.309 A 
ATOM      6  C   UNL     1     -13.766 -45.033  28.834  1.00  0.00     0.079 A 
ENDROOT
BRANCH   1   7
ATOM      7  C   UNL     1     -13.638 -44.209  26.487  1.00  0.00     0.016 C 
BRANCH   7   8
ATOM      8  C   UNL     1     -14.814 -43.647  26.174  1.00  0.00     0.005 C 
ATOM      9  C   UNL     1     -19.027 -41.776  25.212  1.00  0.00     0.161 A 
ATOM     10  C   UNL     1     -18.204 -42.106  26.301  1.00  0.00     0.055 A 
ATOM     11  C   UNL     1     -18.593 -42.021  23.877  1.00  0.00     0.161 A 
ATOM     12  C   UNL     1     -16.966 -42.674  26.049  1.00  0.00    -0.028 A 
ATOM     13  C   UNL     1     -17.341 -42.595  23.639  1.00  0.00     0.063 A 
ATOM     14  C   UNL     1     -16.560 -42.906  24.736  1.00  0.00     0.030 A 
ATOM     15  C   UNL     1     -15.923 -43.102  27.039  1.00  0.00     0.076 C 
ATOM     16  C   UNL     1     -15.226 -43.511  24.742  1.00  0.00     0.189 C 
ATOM     17  O   UNL     1     -14.579 -43.841  23.769  1.00  0.00    -0.289 OA
BRANCH   9  18
ATOM     18  O   UNL     1     -20.272 -41.209  25.333  1.00  0.00    -0.493 OA
ATOM     19  C   UNL     1     -20.875 -41.187  26.618  1.00  0.00     0.278 C 
ENDBRANCH   9  18
BRANCH  11  20
ATOM     20  O   UNL     1     -19.475 -41.660  22.888  1.00  0.00    -0.493 OA
ATOM     21  C   UNL     1     -19.110 -40.583  22.037  1.00  0.00     0.278 C 
ENDBRANCH  11  20
ENDBRANCH   7   8
ENDBRANCH   1   7
BRANCH   4  22
ATOM     22  C   UNL     1     -11.538 -44.488  31.795  1.00  0.00     0.396 C 
BRANCH  22  23
ATOM     23  C   UNL     1     -10.057 -44.735  31.786  1.00  0.00     0.052 A 
ATOM     24  C   UNL     1      -9.141 -43.739  32.153  1.00  0.00     0.013 A 
ATOM     25  C   UNL     1      -9.567 -45.988  31.406  1.00  0.00     0.132 A 
ATOM     26  C   UNL     1      -7.770 -44.008  32.139  1.00  0.00     0.001 A 
ATOM     27  C   UNL     1      -8.205 -46.263  31.391  1.00  0.00     0.040 A 
ATOM     28  C   UNL     1      -7.303 -45.268  31.760  1.00  0.00     0.003 A 
ATOM     29  F   UNL     1     -10.432 -46.948  31.052  1.00  0.00    -0.206 F 
ENDBRANCH  22  23
ENDBRANCH   4  22
TORSDOF 6
ENDMDL
MODEL 2
REMARK VINA RESULT:   -12.054      0.843      1.509
REMARK INTER + INTRA:         -16.936
REMARK INTER:                 -16.352
REMARK INTRA:                  -0.584
REMARK UNBOUND:                -0.654
REMARK SMILES COc1cc2c(cc1OC)C(=O)/C(=C/c1cc[n+](Cc3ccccc3F)cc1)C2
REMARK SMILES IDX 15 1 16 2 17 3 18 4 27 5 28 6 14 7 13 8 3 9 4 10 8 11 5 12
REMARK SMILES IDX 7 13 6 14 29 15 11 16 12 17 2 18 1 19 9 20 10 21 19 22 20 23
REMARK SMILES IDX 21 24 25 25 22 26 24 27 23 28 26 29
REMARK H PARENT
ROOT
ATOM      1  C   UNL     1     -13.118 -44.196  27.690  1.00  0.00    -0.013 A 
ATOM      2  C   UNL     1     -13.838 -45.017  28.552  1.00  0.00     0.079 A 
ATOM      3  C   UNL     1     -13.365 -45.246  29.839  1.00  0.00     0.309 A 
ATOM      4  N   UNL     1     -12.208 -44.684  30.259  1.00  0.00    -0.201 N 
ATOM      5  C   UNL     1     -11.489 -43.890  29.431  1.00  0.00     0.309 A 
ATOM      6  C   UNL     1     -11.926 -43.630  28.137  1.00  0.00     0.079 A 
ENDROOT
BRANCH   1   7
ATOM      7  C   UNL     1     -13.598 -43.989  26.325  1.00  0.00     0.016 C 
BRANCH   7   8
ATOM      8  C   UNL     1     -14.801 -43.494  26.003  1.00  0.00     0.005 C 
ATOM      9  C   UNL     1     -19.106 -41.856  25.020  1.00  0.00     0.161 A 
ATOM     10  C   UNL     1     -18.245 -42.075  26.108  1.00  0.00     0.055 A 
ATOM     11  C   UNL     1     -18.694 -42.180  23.695  1.00  0.00     0.161 A 
ATOM     12  C   UNL     1     -16.992 -42.613  25.865  1.00  0.00    -0.028 A 
ATOM     13  C   UNL     1     -17.426 -42.723  23.466  1.00  0.00     0.063 A 
ATOM     14  C   UNL     1     -16.608 -42.925  24.562  1.00  0.00     0.030 A 
ATOM     15  C   UNL     1     -15.910 -42.930  26.855  1.00  0.00     0.076 C 
ATOM     16  C   UNL     1     -15.252 -43.478  24.576  1.00  0.00     0.189 C 
ATOM     17  O   UNL     1     -14.615 -43.853  23.613  1.00  0.00    -0.289 OA
BRANCH   9  18
ATOM     18  O   UNL     1     -20.368 -41.327  25.133  1.00  0.00    -0.493 OA
ATOM     19  C   UNL     1     -20.957 -41.271  26.423  1.00  0.00     0.278 C 
ENDBRANCH   9  18
BRANCH  11  20
ATOM     20  O   UNL     1     -19.611 -41.925  22.706  1.00  0.00    -0.493 OA
ATOM     21  C   UNL     1     -19.377 -40.811  21.857  1.00  0.00     0.278 C 
ENDBRANCH  11  20
ENDBRANCH   7   8
ENDBRANCH   1   7
BRANCH   4  22
ATOM     22  C   UNL     1     -11.714 -44.951  31.634  1.00  0.00     0.396 C 
BRANCH  22  23
ATOM     23  C   UNL     1     -10.232 -45.186  31.641  1.00  0.00     0.052 A 
ATOM     24  C   UNL     1      -9.671 -46.372  31.144  1.00  0.00     0.013 A 
ATOM     25  C   UNL     1      -9.377 -44.205  32.151  1.00  0.00     0.132 A 
ATOM     26  C   UNL     1      -8.285 -46.552  31.160  1.00  0.00     0.001 A 
ATOM     27  C   UNL     1      -7.999 -44.377  32.169  1.00  0.00     0.040 A 
ATOM     28  C   UNL     1      -7.451 -45.556  31.670  1.00  0.00     0.003 A 
ATOM     29  F   UNL     1      -9.901 -43.069  32.631  1.00  0.00    -0.206 F 
ENDBRANCH  22  23
ENDBRANCH   4  22
TORSDOF 6
ENDMDL
MODEL 3
REMARK VINA RESULT:   -11.042      1.326      2.558
REMARK INTER + INTRA:         -15.569
REMARK INTER:                 -15.419
REMARK INTRA:                  -0.149
REMARK UNBOUND:                -0.654
REMARK SMILES COc1cc2c(cc1OC)C(=O)/C(=C/c1cc[n+](Cc3ccccc3F)cc1)C2
REMARK SMILES IDX 15 1 16 2 17 3 18 4 27 5 28 6 14 7 13 8 3 9 4 10 8 11 5 12
REMARK SMILES IDX 7 13 6 14 29 15 11 16 12 17 2 18 1 19 9 20 10 21 19 22 20 23
REMARK SMILES IDX 21 24 25 25 22 26 24 27 23 28 26 29
REMARK H PARENT
ROOT
ATOM      1  C   UNL     1     -12.989 -43.914  27.077  1.00  0.00    -0.013 A 
ATOM      2  C   UNL     1     -13.504 -45.185  27.310  1.00  0.00     0.079 A 
ATOM      3  C   UNL     1     -13.066 -45.914  28.409  1.00  0.00     0.309 A 
ATOM      4  N   UNL     1     -12.138 -45.403  29.251  1.00  0.00    -0.201 N 
ATOM      5  C   UNL     1     -11.618 -44.172  29.035  1.00  0.00     0.309 A 
ATOM      6  C   UNL     1     -12.031 -43.405  27.950  1.00  0.00     0.079 A 
ENDROOT
BRANCH   1   7
ATOM      7  C   UNL     1     -13.424 -43.166  25.900  1.00  0.00     0.016 C 
BRANCH   7   8
ATOM      8  C   UNL     1     -14.697 -43.030  25.505  1.00  0.00     0.005 C 
ATOM      9  C   UNL     1     -19.110 -42.441  23.969  1.00  0.00     0.161 A 
ATOM     10  C   UNL     1     -17.821 -42.733  23.495  1.00  0.00     0.055 A 
ATOM     11  C   UNL     1     -19.337 -42.223  25.358  1.00  0.00     0.161 A 
ATOM     12  C   UNL     1     -16.779 -42.804  24.405  1.00  0.00    -0.028 A 
ATOM     13  C   UNL     1     -18.276 -42.297  26.265  1.00  0.00     0.063 A 
ATOM     14  C   UNL     1     -17.022 -42.587  25.761  1.00  0.00     0.030 A 
ATOM     15  C   UNL     1     -15.333 -43.102  24.139  1.00  0.00     0.076 C 
ATOM     16  C   UNL     1     -15.766 -42.713  26.504  1.00  0.00     0.189 C 
ATOM     17  O   UNL     1     -15.620 -42.584  27.701  1.00  0.00    -0.289 OA
BRANCH   9  18
ATOM     18  O   UNL     1     -20.221 -42.346  23.167  1.00  0.00    -0.493 OA
ATOM     19  C   UNL     1     -20.222 -41.367  22.138  1.00  0.00     0.278 C 
ENDBRANCH   9  18
BRANCH  11  20
ATOM     20  O   UNL     1     -20.634 -41.945  25.713  1.00  0.00    -0.493 OA
ATOM     21  C   UNL     1     -20.848 -41.095  26.831  1.00  0.00     0.278 C 
ENDBRANCH  11  20
ENDBRANCH   7   8
ENDBRANCH   1   7
BRANCH   4  22
ATOM     22  C   UNL     1     -11.674 -46.204  30.413  1.00  0.00     0.396 C 
BRANCH  22  23
ATOM     23  C   UNL     1     -10.414 -45.632  30.996  1.00  0.00     0.052 A 
ATOM     24  C   UNL     1      -9.150 -46.134  30.656  1.00  0.00     0.013 A 
ATOM     25  C   UNL     1     -10.490 -44.569  31.901  1.00  0.00     0.132 A 
ATOM     26  C   UNL     1      -7.999 -45.571  31.214  1.00  0.00     0.001 A 
ATOM     27  C   UNL     1      -9.350 -44.004  32.458  1.00  0.00     0.040 A 
ATOM     28  C   UNL     1      -8.098 -44.507  32.112  1.00  0.00     0.003 A 
ATOM     29  F   UNL     1     -11.693 -44.081  32.236  1.00  0.00    -0.206 F 
ENDBRANCH  22  23
ENDBRANCH   4  22
TORSDOF 6
ENDMDL
MODEL 4
REMARK VINA RESULT:   -10.440      2.578      4.273
REMARK INTER + INTRA:         -14.756
REMARK INTER:                 -14.173
REMARK INTRA:                  -0.583
REMARK UNBOUND:                -0.654
REMARK SMILES COc1cc2c(cc1OC)C(=O)/C(=C/c1cc[n+](Cc3ccccc3F)cc1)C2
REMARK SMILES IDX 15 1 16 2 17 3 18 4 27 5 28 6 14 7 13 8 3 9 4 10 8 11 5 12
REMARK SMILES IDX 7 13 6 14 29 15 11 16 12 17 2 18 1 19 9 20 10 21 19 22 20 23
REMARK SMILES IDX 21 24 25 25 22 26 24 27 23 28 26 29
REMARK H PARENT
ROOT
ATOM      1  C   UNL     1     -15.572 -43.133  24.497  1.00  0.00    -0.013 A 
ATOM      2  C   UNL     1     -15.873 -42.584  25.740  1.00  0.00     0.079 A 
ATOM      3  C   UNL     1     -15.298 -43.122  26.886  1.00  0.00     0.309 A 
ATOM      4  N   UNL     1     -14.457 -44.178  26.805  1.00  0.00    -0.201 N 
ATOM      5  C   UNL     1     -14.161 -44.731  25.606  1.00  0.00     0.309 A 
ATOM      6  C   UNL     1     -14.709 -44.223  24.433  1.00  0.00     0.079 A 
ENDROOT
BRANCH   1   7
ATOM      7  C   UNL     1     -16.207 -42.589  23.299  1.00  0.00     0.016 C 
BRANCH   7   8
ATOM      8  C   UNL     1     -17.421 -42.022  23.264  1.00  0.00     0.005 C 
ATOM      9  C   UNL     1     -21.766 -40.207  23.158  1.00  0.00     0.161 A 
ATOM     10  C   UNL     1     -21.000 -41.162  23.846  1.00  0.00     0.055 A 
ATOM     11  C   UNL     1     -21.187 -39.436  22.109  1.00  0.00     0.161 A 
ATOM     12  C   UNL     1     -19.674 -41.337  23.483  1.00  0.00    -0.028 A 
ATOM     13  C   UNL     1     -19.848 -39.624  21.754  1.00  0.00     0.063 A 
ATOM     14  C   UNL     1     -19.127 -40.572  22.454  1.00  0.00     0.030 A 
ATOM     15  C   UNL     1     -18.669 -42.283  24.070  1.00  0.00     0.076 C 
ATOM     16  C   UNL     1     -17.724 -40.948  22.266  1.00  0.00     0.189 C 
ATOM     17  O   UNL     1     -16.954 -40.480  21.454  1.00  0.00    -0.289 OA
BRANCH   9  18
ATOM     18  O   UNL     1     -23.086 -39.942  23.426  1.00  0.00    -0.493 OA
ATOM     19  C   UNL     1     -24.037 -40.967  23.181  1.00  0.00     0.278 C 
ENDBRANCH   9  18
BRANCH  11  20
ATOM     20  O   UNL     1     -22.023 -38.530  21.504  1.00  0.00    -0.493 OA
ATOM     21  C   UNL     1     -22.110 -38.553  20.086  1.00  0.00     0.278 C 
ENDBRANCH  11  20
ENDBRANCH   7   8
ENDBRANCH   1   7
BRANCH   4  22
ATOM     22  C   UNL     1     -13.864 -44.746  28.043  1.00  0.00     0.396 C 
BRANCH  22  23
ATOM     23  C   UNL     1     -12.408 -44.397  28.154  1.00  0.00     0.052 A 
ATOM     24  C   UNL     1     -11.931 -43.115  27.848  1.00  0.00     0.013 A 
ATOM     25  C   UNL     1     -11.494 -45.368  28.575  1.00  0.00     0.132 A 
ATOM     26  C   UNL     1     -10.569 -42.825  27.970  1.00  0.00     0.001 A 
ATOM     27  C   UNL     1     -10.139 -45.087  28.700  1.00  0.00     0.040 A 
ATOM     28  C   UNL     1      -9.675 -43.809  28.396  1.00  0.00     0.003 A 
ATOM     29  F   UNL     1     -11.936 -46.598  28.869  1.00  0.00    -0.206 F 
ENDBRANCH  22  23
ENDBRANCH   4  22
TORSDOF 6
ENDMDL
MODEL 5
REMARK VINA RESULT:   -10.322      4.151      9.902
REMARK INTER + INTRA:         -14.597
REMARK INTER:                 -13.713
REMARK INTRA:                  -0.884
REMARK UNBOUND:                -0.654
REMARK SMILES COc1cc2c(cc1OC)C(=O)/C(=C/c1cc[n+](Cc3ccccc3F)cc1)C2
REMARK SMILES IDX 15 1 16 2 17 3 18 4 27 5 28 6 14 7 13 8 3 9 4 10 8 11 5 12
REMARK SMILES IDX 7 13 6 14 29 15 11 16 12 17 2 18 1 19 9 20 10 21 19 22 20 23
REMARK SMILES IDX 21 24 25 25 22 26 24 27 23 28 26 29
REMARK H PARENT
ROOT
ATOM      1  C   UNL     1     -15.121 -43.074  25.883  1.00  0.00    -0.013 A 
ATOM      2  C   UNL     1     -15.691 -42.802  27.123  1.00  0.00     0.079 A 
ATOM      3  C   UNL     1     -17.034 -42.450  27.200  1.00  0.00     0.309 A 
ATOM      4  N   UNL     1     -17.789 -42.362  26.080  1.00  0.00    -0.201 N 
ATOM      5  C   UNL     1     -17.250 -42.614  24.865  1.00  0.00     0.309 A 
ATOM      6  C   UNL     1     -15.912 -42.973  24.741  1.00  0.00     0.079 A 
ENDROOT
BRANCH   1   7
ATOM      7  C   UNL     1     -13.700 -43.406  25.802  1.00  0.00     0.016 C 
BRANCH   7   8
ATOM      8  C   UNL     1     -12.878 -43.517  26.854  1.00  0.00     0.005 C 
ATOM      9  C   UNL     1      -9.848 -43.822  30.447  1.00  0.00     0.161 A 
ATOM     10  C   UNL     1     -10.295 -42.915  29.472  1.00  0.00     0.055 A 
ATOM     11  C   UNL     1     -10.392 -45.138  30.514  1.00  0.00     0.161 A 
ATOM     12  C   UNL     1     -11.273 -43.327  28.581  1.00  0.00    -0.028 A 
ATOM     13  C   UNL     1     -11.377 -45.539  29.607  1.00  0.00     0.063 A 
ATOM     14  C   UNL     1     -11.792 -44.619  28.663  1.00  0.00     0.030 A 
ATOM     15  C   UNL     1     -11.904 -42.543  27.469  1.00  0.00     0.076 C 
ATOM     16  C   UNL     1     -12.798 -44.803  27.615  1.00  0.00     0.189 C 
ATOM     17  O   UNL     1     -13.443 -45.809  27.404  1.00  0.00    -0.289 OA
BRANCH   9  18
ATOM     18  O   UNL     1      -8.888 -43.532  31.385  1.00  0.00    -0.493 OA
ATOM     19  C   UNL     1      -7.527 -43.579  30.985  1.00  0.00     0.278 C 
ENDBRANCH   9  18
BRANCH  11  20
ATOM     20  O   UNL     1      -9.885 -45.942  31.505  1.00  0.00    -0.493 OA
ATOM     21  C   UNL     1      -8.952 -46.946  31.131  1.00  0.00     0.278 C 
ENDBRANCH  11  20
ENDBRANCH   7   8
ENDBRANCH   1   7
BRANCH   4  22
ATOM     22  C   UNL     1     -19.220 -41.973  26.184  1.00  0.00     0.396 C 
BRANCH  22  23
ATOM     23  C   UNL     1     -20.088 -43.168  26.448  1.00  0.00     0.052 A 
ATOM     24  C   UNL     1     -20.380 -43.593  27.752  1.00  0.00     0.013 A 
ATOM     25  C   UNL     1     -20.626 -43.884  25.375  1.00  0.00     0.132 A 
ATOM     26  C   UNL     1     -21.199 -44.707  27.959  1.00  0.00     0.001 A 
ATOM     27  C   UNL     1     -21.441 -44.991  25.573  1.00  0.00     0.040 A 
ATOM     28  C   UNL     1     -21.729 -45.404  26.872  1.00  0.00     0.003 A 
ATOM     29  F   UNL     1     -20.352 -43.489  24.124  1.00  0.00    -0.206 F 
ENDBRANCH  22  23
ENDBRANCH   4  22
TORSDOF 6
ENDMDL
MODEL 6
REMARK VINA RESULT:    -9.802      3.072      5.777
REMARK INTER + INTRA:         -13.894
REMARK INTER:                 -13.579
REMARK INTRA:                  -0.315
REMARK UNBOUND:                -0.654
REMARK SMILES COc1cc2c(cc1OC)C(=O)/C(=C/c1cc[n+](Cc3ccccc3F)cc1)C2
REMARK SMILES IDX 15 1 16 2 17 3 18 4 27 5 28 6 14 7 13 8 3 9 4 10 8 11 5 12
REMARK SMILES IDX 7 13 6 14 29 15 11 16 12 17 2 18 1 19 9 20 10 21 19 22 20 23
REMARK SMILES IDX 21 24 25 25 22 26 24 27 23 28 26 29
REMARK H PARENT
ROOT
ATOM      1  C   UNL     1     -17.357 -42.809  25.289  1.00  0.00    -0.013 A 
ATOM      2  C   UNL     1     -16.341 -42.851  24.340  1.00  0.00     0.079 A 
ATOM      3  C   UNL     1     -15.014 -42.797  24.751  1.00  0.00     0.309 A 
ATOM      4  N   UNL     1     -14.702 -42.696  26.064  1.00  0.00    -0.201 N 
ATOM      5  C   UNL     1     -15.677 -42.644  27.001  1.00  0.00     0.309 A 
ATOM      6  C   UNL     1     -17.018 -42.699  26.636  1.00  0.00     0.079 A 
ENDROOT
BRANCH   1   7
ATOM      7  C   UNL     1     -18.751 -42.827  24.851  1.00  0.00     0.016 C 
BRANCH   7   8
ATOM      8  C   UNL     1     -19.295 -41.957  23.989  1.00  0.00     0.005 C 
ATOM      9  C   UNL     1     -21.037 -38.803  20.956  1.00  0.00     0.161 A 
ATOM     10  C   UNL     1     -19.885 -39.571  21.187  1.00  0.00     0.055 A 
ATOM     11  C   UNL     1     -22.151 -38.886  21.841  1.00  0.00     0.161 A 
ATOM     12  C   UNL     1     -19.856 -40.409  22.290  1.00  0.00    -0.028 A 
ATOM     13  C   UNL     1     -22.107 -39.736  22.950  1.00  0.00     0.063 A 
ATOM     14  C   UNL     1     -20.956 -40.476  23.144  1.00  0.00     0.030 A 
ATOM     15  C   UNL     1     -18.749 -41.320  22.735  1.00  0.00     0.076 C 
ATOM     16  C   UNL     1     -20.673 -41.424  24.224  1.00  0.00     0.189 C 
ATOM     17  O   UNL     1     -21.415 -41.718  25.138  1.00  0.00    -0.289 OA
BRANCH   9  18
ATOM     18  O   UNL     1     -21.186 -37.939  19.899  1.00  0.00    -0.493 OA
ATOM     19  C   UNL     1     -21.735 -38.447  18.693  1.00  0.00     0.278 C 
ENDBRANCH   9  18
BRANCH  11  20
ATOM     20  O   UNL     1     -23.226 -38.093  21.522  1.00  0.00    -0.493 OA
ATOM     21  C   UNL     1     -24.489 -38.722  21.360  1.00  0.00     0.278 C 
ENDBRANCH  11  20
ENDBRANCH   7   8
ENDBRANCH   1   7
BRANCH   4  22
ATOM     22  C   UNL     1     -13.277 -42.628  26.481  1.00  0.00     0.396 C 
BRANCH  22  23
ATOM     23  C   UNL     1     -12.830 -43.924  27.093  1.00  0.00     0.052 A 
ATOM     24  C   UNL     1     -13.461 -45.139  26.789  1.00  0.00     0.013 A 
ATOM     25  C   UNL     1     -11.758 -43.932  27.989  1.00  0.00     0.132 A 
ATOM     26  C   UNL     1     -13.012 -46.327  27.374  1.00  0.00     0.001 A 
ATOM     27  C   UNL     1     -11.305 -45.109  28.573  1.00  0.00     0.040 A 
ATOM     28  C   UNL     1     -11.936 -46.312  28.263  1.00  0.00     0.003 A 
ATOM     29  F   UNL     1     -11.148 -42.777  28.289  1.00  0.00    -0.206 F 
ENDBRANCH  22  23
ENDBRANCH   4  22
TORSDOF 6
ENDMDL
MODEL 7
REMARK VINA RESULT:    -9.546      2.694      5.035
REMARK INTER + INTRA:         -13.549
REMARK INTER:                 -13.313
REMARK INTRA:                  -0.236
REMARK UNBOUND:                -0.654
REMARK SMILES COc1cc2c(cc1OC)C(=O)/C(=C/c1cc[n+](Cc3ccccc3F)cc1)C2
REMARK SMILES IDX 15 1 16 2 17 3 18 4 27 5 28 6 14 7 13 8 3 9 4 10 8 11 5 12
REMARK SMILES IDX 7 13 6 14 29 15 11 16 12 17 2 18 1 19 9 20 10 21 19 22 20 23
REMARK SMILES IDX 21 24 25 25 22 26 24 27 23 28 26 29
REMARK H PARENT
ROOT
ATOM      1  C   UNL     1     -16.543 -42.876  24.944  1.00  0.00    -0.013 A 
ATOM      2  C   UNL     1     -16.403 -42.776  26.324  1.00  0.00     0.079 A 
ATOM      3  C   UNL     1     -15.131 -42.726  26.884  1.00  0.00     0.309 A 
ATOM      4  N   UNL     1     -14.029 -42.782  26.101  1.00  0.00    -0.201 N 
ATOM      5  C   UNL     1     -14.147 -42.888  24.757  1.00  0.00     0.309 A 
ATOM      6  C   UNL     1     -15.398 -42.937  24.153  1.00  0.00     0.079 A 
ENDROOT
BRANCH   1   7
ATOM      7  C   UNL     1     -17.880 -42.966  24.362  1.00  0.00     0.016 C 
BRANCH   7   8
ATOM      8  C   UNL     1     -18.957 -42.303  24.807  1.00  0.00     0.005 C 
ATOM      9  C   UNL     1     -22.769 -40.119  26.501  1.00  0.00     0.161 A 
ATOM     10  C   UNL     1     -21.619 -40.798  26.935  1.00  0.00     0.055 A 
ATOM     11  C   UNL     1     -23.021 -39.938  25.110  1.00  0.00     0.161 A 
ATOM     12  C   UNL     1     -20.738 -41.287  25.984  1.00  0.00    -0.028 A 
ATOM     13  C   UNL     1     -22.123 -40.438  24.162  1.00  0.00     0.063 A 
ATOM     14  C   UNL     1     -21.003 -41.101  24.628  1.00  0.00     0.030 A 
ATOM     15  C   UNL     1     -19.456 -42.034  26.205  1.00  0.00     0.076 C 
ATOM     16  C   UNL     1     -19.930 -41.710  23.838  1.00  0.00     0.189 C 
ATOM     17  O   UNL     1     -19.849 -41.730  22.627  1.00  0.00    -0.289 OA
BRANCH   9  18
ATOM     18  O   UNL     1     -23.713 -39.588  27.345  1.00  0.00    -0.493 OA
ATOM     19  C   UNL     1     -24.319 -40.449  28.298  1.00  0.00     0.278 C 
ENDBRANCH   9  18
BRANCH  11  20
ATOM     20  O   UNL     1     -24.172 -39.260  24.796  1.00  0.00    -0.493 OA
ATOM     21  C   UNL     1     -25.221 -39.987  24.172  1.00  0.00     0.278 C 
ENDBRANCH  11  20
ENDBRANCH   7   8
ENDBRANCH   1   7
BRANCH   4  22
ATOM     22  C   UNL     1     -12.680 -42.739  26.720  1.00  0.00     0.396 C 
BRANCH  22  23
ATOM     23  C   UNL     1     -12.380 -44.016  27.452  1.00  0.00     0.052 A 
ATOM     24  C   UNL     1     -13.067 -45.205  27.170  1.00  0.00     0.013 A 
ATOM     25  C   UNL     1     -11.392 -44.031  28.440  1.00  0.00     0.132 A 
ATOM     26  C   UNL     1     -12.755 -46.376  27.867  1.00  0.00     0.001 A 
ATOM     27  C   UNL     1     -11.077 -45.192  29.136  1.00  0.00     0.040 A 
ATOM     28  C   UNL     1     -11.762 -46.370  28.847  1.00  0.00     0.003 A 
ATOM     29  F   UNL     1     -10.730 -42.901  28.720  1.00  0.00    -0.206 F 
ENDBRANCH  22  23
ENDBRANCH   4  22
TORSDOF 6
ENDMDL
MODEL 8
REMARK VINA RESULT:    -9.476      2.054      3.515
REMARK INTER + INTRA:         -13.454
REMARK INTER:                 -12.604
REMARK INTRA:                  -0.850
REMARK UNBOUND:                -0.654
REMARK SMILES COc1cc2c(cc1OC)C(=O)/C(=C/c1cc[n+](Cc3ccccc3F)cc1)C2
REMARK SMILES IDX 15 1 16 2 17 3 18 4 27 5 28 6 14 7 13 8 3 9 4 10 8 11 5 12
REMARK SMILES IDX 7 13 6 14 29 15 11 16 12 17 2 18 1 19 9 20 10 21 19 22 20 23
REMARK SMILES IDX 21 24 25 25 22 26 24 27 23 28 26 29
REMARK H PARENT
ROOT
ATOM      1  C   UNL     1     -14.938 -43.511  26.744  1.00  0.00    -0.013 A 
ATOM      2  C   UNL     1     -14.187 -44.402  25.983  1.00  0.00     0.079 A 
ATOM      3  C   UNL     1     -13.456 -45.400  26.616  1.00  0.00     0.309 A 
ATOM      4  N   UNL     1     -13.460 -45.509  27.965  1.00  0.00    -0.201 N 
ATOM      5  C   UNL     1     -14.176 -44.646  28.722  1.00  0.00     0.309 A 
ATOM      6  C   UNL     1     -14.926 -43.634  28.131  1.00  0.00     0.079 A 
ENDROOT
BRANCH   1   7
ATOM      7  C   UNL     1     -15.675 -42.440  26.078  1.00  0.00     0.016 C 
BRANCH   7   8
ATOM      8  C   UNL     1     -16.963 -42.506  25.714  1.00  0.00     0.005 C 
ATOM      9  C   UNL     1     -21.448 -42.625  24.283  1.00  0.00     0.161 A 
ATOM     10  C   UNL     1     -20.141 -42.723  23.780  1.00  0.00     0.055 A 
ATOM     11  C   UNL     1     -21.674 -42.422  25.675  1.00  0.00     0.161 A 
ATOM     12  C   UNL     1     -19.079 -42.619  24.665  1.00  0.00    -0.028 A 
ATOM     13  C   UNL     1     -20.593 -42.319  26.555  1.00  0.00     0.063 A 
ATOM     14  C   UNL     1     -19.321 -42.421  26.023  1.00  0.00     0.030 A 
ATOM     15  C   UNL     1     -17.611 -42.696  24.365  1.00  0.00     0.076 C 
ATOM     16  C   UNL     1     -18.044 -42.342  26.736  1.00  0.00     0.189 C 
ATOM     17  O   UNL     1     -17.892 -42.174  27.928  1.00  0.00    -0.289 OA
BRANCH   9  18
ATOM     18  O   UNL     1     -22.579 -42.713  23.508  1.00  0.00    -0.493 OA
ATOM     19  C   UNL     1     -22.784 -41.726  22.510  1.00  0.00     0.278 C 
ENDBRANCH   9  18
BRANCH  11  20
ATOM     20  O   UNL     1     -22.990 -42.341  26.060  1.00  0.00    -0.493 OA
ATOM     21  C   UNL     1     -23.316 -42.722  27.389  1.00  0.00     0.278 C 
ENDBRANCH  11  20
ENDBRANCH   7   8
ENDBRANCH   1   7
BRANCH   4  22
ATOM     22  C   UNL     1     -12.661 -46.576  28.622  1.00  0.00     0.396 C 
BRANCH  22  23
ATOM     23  C   UNL     1     -11.555 -45.990  29.451  1.00  0.00     0.052 A 
ATOM     24  C   UNL     1     -10.416 -45.421  28.864  1.00  0.00     0.013 A 
ATOM     25  C   UNL     1     -11.652 -46.005  30.845  1.00  0.00     0.132 A 
ATOM     26  C   UNL     1      -9.409 -44.879  29.669  1.00  0.00     0.001 A 
ATOM     27  C   UNL     1     -10.657 -45.467  31.651  1.00  0.00     0.040 A 
ATOM     28  C   UNL     1      -9.530 -44.901  31.059  1.00  0.00     0.003 A 
ATOM     29  F   UNL     1     -12.735 -46.548  31.418  1.00  0.00    -0.206 F 
ENDBRANCH  22  23
ENDBRANCH   4  22
TORSDOF 6
ENDMDL
MODEL 9
REMARK VINA RESULT:    -9.249      3.290      5.888
REMARK INTER + INTRA:         -13.148
REMARK INTER:                 -12.769
REMARK INTRA:                  -0.379
REMARK UNBOUND:                -0.654
REMARK SMILES COc1cc2c(cc1OC)C(=O)/C(=C/c1cc[n+](Cc3ccccc3F)cc1)C2
REMARK SMILES IDX 15 1 16 2 17 3 18 4 27 5 28 6 14 7 13 8 3 9 4 10 8 11 5 12
REMARK SMILES IDX 7 13 6 14 29 15 11 16 12 17 2 18 1 19 9 20 10 21 19 22 20 23
REMARK SMILES IDX 21 24 25 25 22 26 24 27 23 28 26 29
REMARK H PARENT
ROOT
ATOM      1  C   UNL     1     -17.698 -42.512  26.443  1.00  0.00    -0.013 A 
ATOM      2  C   UNL     1     -16.829 -42.443  27.527  1.00  0.00     0.079 A 
ATOM      3  C   UNL     1     -15.466 -42.628  27.328  1.00  0.00     0.309 A 
ATOM      4  N   UNL     1     -14.977 -42.882  26.092  1.00  0.00    -0.201 N 
ATOM      5  C   UNL     1     -15.808 -42.962  25.027  1.00  0.00     0.309 A 
ATOM      6  C   UNL     1     -17.179 -42.780  25.179  1.00  0.00     0.079 A 
ENDROOT
BRANCH   1   7
ATOM      7  C   UNL     1     -19.134 -42.356  26.662  1.00  0.00     0.016 C 
BRANCH   7   8
ATOM      8  C   UNL     1     -19.979 -41.757  25.811  1.00  0.00     0.005 C 
ATOM      9  C   UNL     1     -22.805 -39.525  22.777  1.00  0.00     0.161 A 
ATOM     10  C   UNL     1     -21.492 -40.009  22.888  1.00  0.00     0.055 A 
ATOM     11  C   UNL     1     -23.727 -39.679  23.852  1.00  0.00     0.161 A 
ATOM     12  C   UNL     1     -21.114 -40.639  24.063  1.00  0.00    -0.028 A 
ATOM     13  C   UNL     1     -23.331 -40.316  25.032  1.00  0.00     0.063 A 
ATOM     14  C   UNL     1     -22.031 -40.780  25.104  1.00  0.00     0.030 A 
ATOM     15  C   UNL     1     -19.782 -41.235  24.410  1.00  0.00     0.076 C 
ATOM     16  C   UNL     1     -21.388 -41.469  26.225  1.00  0.00     0.189 C 
ATOM     17  O   UNL     1     -21.901 -41.752  27.288  1.00  0.00    -0.289 OA
BRANCH   9  18
ATOM     18  O   UNL     1     -23.297 -38.886  21.664  1.00  0.00    -0.493 OA
ATOM     19  C   UNL     1     -22.882 -39.350  20.389  1.00  0.00     0.278 C 
ENDBRANCH   9  18
BRANCH  11  20
ATOM     20  O   UNL     1     -24.984 -39.170  23.637  1.00  0.00    -0.493 OA
ATOM     21  C   UNL     1     -26.066 -39.752  24.351  1.00  0.00     0.278 C 
ENDBRANCH  11  20
ENDBRANCH   7   8
ENDBRANCH   1   7
BRANCH   4  22
ATOM     22  C   UNL     1     -13.517 -43.088  25.903  1.00  0.00     0.396 C 
BRANCH  22  23
ATOM     23  C   UNL     1     -12.973 -44.054  26.915  1.00  0.00     0.052 A 
ATOM     24  C   UNL     1     -13.448 -45.369  27.009  1.00  0.00     0.013 A 
ATOM     25  C   UNL     1     -11.963 -43.643  27.790  1.00  0.00     0.132 A 
ATOM     26  C   UNL     1     -12.911 -46.242  27.960  1.00  0.00     0.001 A 
ATOM     27  C   UNL     1     -11.424 -44.505  28.737  1.00  0.00     0.040 A 
ATOM     28  C   UNL     1     -11.900 -45.812  28.821  1.00  0.00     0.003 A 
ATOM     29  F   UNL     1     -11.502 -42.387  27.712  1.00  0.00    -0.206 F 
ENDBRANCH  22  23
ENDBRANCH   4  22
TORSDOF 6
ENDMDL
