MODEL 1
REMARK VINA RESULT:    -8.870      0.000      0.000
REMARK INTER + INTRA:          -9.130
REMARK INTER:                  -9.130
REMARK INTRA:                   0.000
REMARK UNBOUND:                 0.000
REMARK SMILES Nc1c2c(nc3cc(Cl)ccc13)CCCC2
REMARK SMILES IDX 2 1 3 2 4 3 5 4 6 5 7 6 8 7 9 8 10 9 11 10 12 11 13 12 14 13
REMARK SMILES IDX 15 14 16 15 1 16
REMARK H PARENT 1 17 1 18
ROOT
ATOM      1  C   UNL     1     -17.766 -42.605  24.063  1.00  0.00     0.046 A 
ATOM      2  C   UNL     1     -16.608 -42.949  24.784  1.00  0.00    -0.003 A 
ATOM      3  C   UNL     1     -16.635 -42.800  26.171  1.00  0.00     0.046 A 
ATOM      4  N   UNL     1     -17.717 -42.343  26.842  1.00  0.00    -0.252 NA
ATOM      5  C   UNL     1     -18.804 -41.976  26.154  1.00  0.00     0.074 A 
ATOM      6  C   UNL     1     -19.879 -41.475  26.872  1.00  0.00     0.049 A 
ATOM      7  C   UNL     1     -21.039 -41.044  26.235  1.00  0.00     0.043 A 
ATOM      8  Cl  UNL     1     -22.349 -40.426  27.161  1.00  0.00    -0.084 Cl
ATOM      9  C   UNL     1     -21.141 -41.107  24.853  1.00  0.00     0.021 A 
ATOM     10  C   UNL     1     -20.072 -41.612  24.113  1.00  0.00     0.014 A 
ATOM     11  C   UNL     1     -18.888 -42.064  24.747  1.00  0.00     0.024 A 
ATOM     12  C   UNL     1     -15.461 -43.192  27.030  1.00  0.00     0.056 C 
ATOM     13  C   UNL     1     -14.148 -43.268  26.258  1.00  0.00     0.007 C 
ATOM     14  C   UNL     1     -14.340 -44.089  24.992  1.00  0.00     0.005 C 
ATOM     15  C   UNL     1     -15.364 -43.424  24.073  1.00  0.00     0.039 C 
ENDROOT
BRANCH   1  16
ATOM     16  N   UNL     1     -17.697 -42.610  22.645  1.00  0.00    -0.398 N 
ATOM     17  H   UNL     1     -18.030 -41.722  22.273  1.00  0.00     0.156 HD
ATOM     18  H   UNL     1     -18.209 -43.375  22.222  1.00  0.00     0.156 HD
ENDBRANCH   1  16
TORSDOF 1
ENDMDL
MODEL 2
REMARK VINA RESULT:    -8.830      2.524      5.218
REMARK INTER + INTRA:          -9.089
REMARK INTER:                  -9.089
REMARK INTRA:                   0.000
REMARK UNBOUND:                 0.000
REMARK SMILES Nc1c2c(nc3cc(Cl)ccc13)CCCC2
REMARK SMILES IDX 2 1 3 2 4 3 5 4 6 5 7 6 8 7 9 8 10 9 11 10 12 11 13 12 14 13
REMARK SMILES IDX 15 14 16 15 1 16
REMARK H PARENT 1 17 1 18
ROOT
ATOM      1  C   UNL     1     -17.689 -42.497  24.022  1.00  0.00     0.046 A 
ATOM      2  C   UNL     1     -18.823 -42.031  24.712  1.00  0.00    -0.003 A 
ATOM      3  C   UNL     1     -18.765 -41.977  26.104  1.00  0.00     0.046 A 
ATOM      4  N   UNL     1     -17.673 -42.352  26.811  1.00  0.00    -0.252 NA
ATOM      5  C   UNL     1     -16.609 -42.835  26.159  1.00  0.00     0.074 A 
ATOM      6  C   UNL     1     -15.524 -43.246  26.918  1.00  0.00     0.049 A 
ATOM      7  C   UNL     1     -14.387 -43.786  26.324  1.00  0.00     0.043 A 
ATOM      8  Cl  UNL     1     -13.063 -44.288  27.301  1.00  0.00    -0.084 Cl
ATOM      9  C   UNL     1     -14.318 -43.927  24.946  1.00  0.00     0.021 A 
ATOM     10  C   UNL     1     -15.398 -43.515  24.165  1.00  0.00     0.014 A 
ATOM     11  C   UNL     1     -16.559 -42.954  24.753  1.00  0.00     0.024 A 
ATOM     12  C   UNL     1     -19.911 -41.443  26.924  1.00  0.00     0.056 C 
ATOM     13  C   UNL     1     -21.241 -41.455  26.178  1.00  0.00     0.007 C 
ATOM     14  C   UNL     1     -21.068 -40.830  24.802  1.00  0.00     0.005 C 
ATOM     15  C   UNL     1     -20.077 -41.641  23.967  1.00  0.00     0.039 C 
ENDROOT
BRANCH   1  16
ATOM     16  N   UNL     1     -17.794 -42.697  22.621  1.00  0.00    -0.398 N 
ATOM     17  H   UNL     1     -18.758 -42.571  22.318  1.00  0.00     0.156 HD
ATOM     18  H   UNL     1     -17.455 -43.603  22.320  1.00  0.00     0.156 HD
ENDBRANCH   1  16
TORSDOF 1
ENDMDL
MODEL 3
REMARK VINA RESULT:    -8.690      1.019      2.588
REMARK INTER + INTRA:          -8.944
REMARK INTER:                  -8.944
REMARK INTRA:                   0.000
REMARK UNBOUND:                 0.000
REMARK SMILES Nc1c2c(nc3cc(Cl)ccc13)CCCC2
REMARK SMILES IDX 2 1 3 2 4 3 5 4 6 5 7 6 8 7 9 8 10 9 11 10 12 11 13 12 14 13
REMARK SMILES IDX 15 14 16 15 1 16
REMARK H PARENT 1 17 1 18
ROOT
ATOM      1  C   UNL     1     -17.464 -42.411  27.043  1.00  0.00     0.046 A 
ATOM      2  C   UNL     1     -16.447 -42.869  26.186  1.00  0.00    -0.003 A 
ATOM      3  C   UNL     1     -16.678 -42.818  24.812  1.00  0.00     0.046 A 
ATOM      4  N   UNL     1     -17.829 -42.351  24.275  1.00  0.00    -0.252 NA
ATOM      5  C   UNL     1     -18.814 -41.954  25.089  1.00  0.00     0.074 A 
ATOM      6  C   UNL     1     -19.994 -41.520  24.505  1.00  0.00     0.049 A 
ATOM      7  C   UNL     1     -21.078 -41.115  25.276  1.00  0.00     0.043 A 
ATOM      8  Cl  UNL     1     -22.526 -40.585  24.513  1.00  0.00    -0.084 Cl
ATOM      9  C   UNL     1     -21.000 -41.141  26.660  1.00  0.00     0.021 A 
ATOM     10  C   UNL     1     -19.821 -41.572  27.268  1.00  0.00     0.014 A 
ATOM     11  C   UNL     1     -18.703 -41.978  26.496  1.00  0.00     0.024 A 
ATOM     12  C   UNL     1     -15.626 -43.238  23.817  1.00  0.00     0.056 C 
ATOM     13  C   UNL     1     -14.561 -44.149  24.416  1.00  0.00     0.007 C 
ATOM     14  C   UNL     1     -14.038 -43.549  25.713  1.00  0.00     0.005 C 
ATOM     15  C   UNL     1     -15.162 -43.436  26.742  1.00  0.00     0.039 C 
ENDROOT
BRANCH   1  16
ATOM     16  N   UNL     1     -17.298 -42.600  28.440  1.00  0.00    -0.398 N 
ATOM     17  H   UNL     1     -17.759 -43.458  28.736  1.00  0.00     0.156 HD
ATOM     18  H   UNL     1     -17.635 -41.820  28.992  1.00  0.00     0.156 HD
ENDBRANCH   1  16
TORSDOF 1
ENDMDL
MODEL 4
REMARK VINA RESULT:    -8.479      6.127      8.639
REMARK INTER + INTRA:          -8.727
REMARK INTER:                  -8.727
REMARK INTRA:                   0.000
REMARK UNBOUND:                 0.000
REMARK SMILES Nc1c2c(nc3cc(Cl)ccc13)CCCC2
REMARK SMILES IDX 2 1 3 2 4 3 5 4 6 5 7 6 8 7 9 8 10 9 11 10 12 11 13 12 14 13
REMARK SMILES IDX 15 14 16 15 1 16
REMARK H PARENT 1 17 1 18
ROOT
ATOM      1  C   UNL     1     -11.534 -45.263  30.272  1.00  0.00     0.046 A 
ATOM      2  C   UNL     1     -10.220 -44.837  30.539  1.00  0.00    -0.003 A 
ATOM      3  C   UNL     1      -9.655 -43.887  29.689  1.00  0.00     0.046 A 
ATOM      4  N   UNL     1     -10.312 -43.366  28.626  1.00  0.00    -0.252 NA
ATOM      5  C   UNL     1     -11.546 -43.801  28.346  1.00  0.00     0.074 A 
ATOM      6  C   UNL     1     -12.173 -43.274  27.227  1.00  0.00     0.049 A 
ATOM      7  C   UNL     1     -13.445 -43.689  26.846  1.00  0.00     0.043 A 
ATOM      8  Cl  UNL     1     -14.187 -43.013  25.449  1.00  0.00    -0.084 Cl
ATOM      9  C   UNL     1     -14.116 -44.652  27.585  1.00  0.00     0.021 A 
ATOM     10  C   UNL     1     -13.504 -45.192  28.716  1.00  0.00     0.014 A 
ATOM     11  C   UNL     1     -12.213 -44.772  29.123  1.00  0.00     0.024 A 
ATOM     12  C   UNL     1      -8.274 -43.333  29.928  1.00  0.00     0.056 C 
ATOM     13  C   UNL     1      -7.414 -44.225  30.816  1.00  0.00     0.007 C 
ATOM     14  C   UNL     1      -8.191 -44.616  32.064  1.00  0.00     0.005 C 
ATOM     15  C   UNL     1      -9.435 -45.421  31.689  1.00  0.00     0.039 C 
ENDROOT
BRANCH   1  16
ATOM     16  N   UNL     1     -12.059 -46.335  31.039  1.00  0.00    -0.398 N 
ATOM     17  H   UNL     1     -12.105 -47.182  30.475  1.00  0.00     0.156 HD
ATOM     18  H   UNL     1     -12.970 -46.135  31.435  1.00  0.00     0.156 HD
ENDBRANCH   1  16
TORSDOF 1
ENDMDL
MODEL 5
REMARK VINA RESULT:    -8.457      8.267      9.826
REMARK INTER + INTRA:          -8.704
REMARK INTER:                  -8.704
REMARK INTRA:                   0.000
REMARK UNBOUND:                 0.000
REMARK SMILES Nc1c2c(nc3cc(Cl)ccc13)CCCC2
REMARK SMILES IDX 2 1 3 2 4 3 5 4 6 5 7 6 8 7 9 8 10 9 11 10 12 11 13 12 14 13
REMARK SMILES IDX 15 14 16 15 1 16
REMARK H PARENT 1 17 1 18
ROOT
ATOM      1  C   UNL     1     -11.194 -45.111  31.464  1.00  0.00     0.046 A 
ATOM      2  C   UNL     1      -9.847 -44.803  31.729  1.00  0.00    -0.003 A 
ATOM      3  C   UNL     1      -9.575 -43.682  32.513  1.00  0.00     0.046 A 
ATOM      4  N   UNL     1     -10.544 -42.886  33.021  1.00  0.00    -0.252 NA
ATOM      5  C   UNL     1     -11.824 -43.153  32.735  1.00  0.00     0.074 A 
ATOM      6  C   UNL     1     -12.787 -42.293  33.241  1.00  0.00     0.049 A 
ATOM      7  C   UNL     1     -14.139 -42.480  32.970  1.00  0.00     0.043 A 
ATOM      8  Cl  UNL     1     -15.303 -41.390  33.614  1.00  0.00    -0.084 Cl
ATOM      9  C   UNL     1     -14.553 -43.541  32.178  1.00  0.00     0.021 A 
ATOM     10  C   UNL     1     -13.599 -44.419  31.663  1.00  0.00     0.014 A 
ATOM     11  C   UNL     1     -12.219 -44.249  31.938  1.00  0.00     0.024 A 
ATOM     12  C   UNL     1      -8.166 -43.305  32.892  1.00  0.00     0.056 C 
ATOM     13  C   UNL     1      -7.112 -43.914  31.974  1.00  0.00     0.007 C 
ATOM     14  C   UNL     1      -7.372 -45.404  31.806  1.00  0.00     0.005 C 
ATOM     15  C   UNL     1      -8.732 -45.639  31.148  1.00  0.00     0.039 C 
ENDROOT
BRANCH   1  16
ATOM     16  N   UNL     1     -11.472 -46.157  30.546  1.00  0.00    -0.398 N 
ATOM     17  H   UNL     1     -10.625 -46.422  30.046  1.00  0.00     0.156 HD
ATOM     18  H   UNL     1     -12.204 -45.925  29.885  1.00  0.00     0.156 HD
ENDBRANCH   1  16
TORSDOF 1
ENDMDL
MODEL 6
REMARK VINA RESULT:    -8.385      8.556     10.897
REMARK INTER + INTRA:          -8.630
REMARK INTER:                  -8.630
REMARK INTRA:                   0.000
REMARK UNBOUND:                 0.000
REMARK SMILES Nc1c2c(nc3cc(Cl)ccc13)CCCC2
REMARK SMILES IDX 2 1 3 2 4 3 5 4 6 5 7 6 8 7 9 8 10 9 11 10 12 11 13 12 14 13
REMARK SMILES IDX 15 14 16 15 1 16
REMARK H PARENT 1 17 1 18
ROOT
ATOM      1  C   UNL     1     -11.568 -44.196  31.383  1.00  0.00     0.046 A 
ATOM      2  C   UNL     1     -11.686 -45.001  30.236  1.00  0.00    -0.003 A 
ATOM      3  C   UNL     1     -10.517 -45.507  29.669  1.00  0.00     0.046 A 
ATOM      4  N   UNL     1      -9.286 -45.256  30.173  1.00  0.00    -0.252 NA
ATOM      5  C   UNL     1      -9.169 -44.456  31.239  1.00  0.00     0.074 A 
ATOM      6  C   UNL     1      -7.890 -44.189  31.703  1.00  0.00     0.049 A 
ATOM      7  C   UNL     1      -7.674 -43.347  32.789  1.00  0.00     0.043 A 
ATOM      8  Cl  UNL     1      -6.071 -43.039  33.333  1.00  0.00    -0.084 Cl
ATOM      9  C   UNL     1      -8.747 -42.749  33.434  1.00  0.00     0.021 A 
ATOM     10  C   UNL     1     -10.041 -43.007  32.984  1.00  0.00     0.014 A 
ATOM     11  C   UNL     1     -10.279 -43.872  31.886  1.00  0.00     0.024 A 
ATOM     12  C   UNL     1     -10.549 -46.421  28.471  1.00  0.00     0.056 C 
ATOM     13  C   UNL     1     -11.847 -46.326  27.677  1.00  0.00     0.007 C 
ATOM     14  C   UNL     1     -13.038 -46.432  28.618  1.00  0.00     0.005 C 
ATOM     15  C   UNL     1     -13.036 -45.274  29.616  1.00  0.00     0.039 C 
ENDROOT
BRANCH   1  16
ATOM     16  N   UNL     1     -12.736 -43.556  31.875  1.00  0.00    -0.398 N 
ATOM     17  H   UNL     1     -12.484 -42.828  32.541  1.00  0.00     0.156 HD
ATOM     18  H   UNL     1     -13.395 -44.198  32.299  1.00  0.00     0.156 HD
ENDBRANCH   1  16
TORSDOF 1
ENDMDL
MODEL 7
REMARK VINA RESULT:    -8.369      6.604      9.541
REMARK INTER + INTRA:          -8.613
REMARK INTER:                  -8.613
REMARK INTRA:                   0.000
REMARK UNBOUND:                 0.000
REMARK SMILES Nc1c2c(nc3cc(Cl)ccc13)CCCC2
REMARK SMILES IDX 2 1 3 2 4 3 5 4 6 5 7 6 8 7 9 8 10 9 11 10 12 11 13 12 14 13
REMARK SMILES IDX 15 14 16 15 1 16
REMARK H PARENT 1 17 1 18
ROOT
ATOM      1  C   UNL     1     -12.433 -45.594  29.455  1.00  0.00     0.046 A 
ATOM      2  C   UNL     1     -12.828 -44.740  28.409  1.00  0.00    -0.003 A 
ATOM      3  C   UNL     1     -11.908 -43.796  27.953  1.00  0.00     0.046 A 
ATOM      4  N   UNL     1     -10.665 -43.668  28.473  1.00  0.00    -0.252 NA
ATOM      5  C   UNL     1     -10.303 -44.451  29.496  1.00  0.00     0.074 A 
ATOM      6  C   UNL     1      -9.036 -44.265  30.029  1.00  0.00     0.049 A 
ATOM      7  C   UNL     1      -8.588 -45.016  31.111  1.00  0.00     0.043 A 
ATOM      8  Cl  UNL     1      -7.011 -44.753  31.745  1.00  0.00    -0.084 Cl
ATOM      9  C   UNL     1      -9.410 -45.974  31.685  1.00  0.00     0.021 A 
ATOM     10  C   UNL     1     -10.686 -46.178  31.162  1.00  0.00     0.014 A 
ATOM     11  C   UNL     1     -11.154 -45.429  30.053  1.00  0.00     0.024 A 
ATOM     12  C   UNL     1     -12.223 -42.875  26.802  1.00  0.00     0.056 C 
ATOM     13  C   UNL     1     -13.718 -42.725  26.544  1.00  0.00     0.007 C 
ATOM     14  C   UNL     1     -14.373 -44.097  26.488  1.00  0.00     0.005 C 
ATOM     15  C   UNL     1     -14.219 -44.819  27.826  1.00  0.00     0.039 C 
ENDROOT
BRANCH   1  16
ATOM     16  N   UNL     1     -13.411 -46.451  30.023  1.00  0.00    -0.398 N 
ATOM     17  H   UNL     1     -14.166 -46.612  29.359  1.00  0.00     0.156 HD
ATOM     18  H   UNL     1     -13.789 -46.104  30.897  1.00  0.00     0.156 HD
ENDBRANCH   1  16
TORSDOF 1
ENDMDL
MODEL 8
REMARK VINA RESULT:    -8.281      7.713      9.987
REMARK INTER + INTRA:          -8.523
REMARK INTER:                  -8.523
REMARK INTRA:                   0.000
REMARK UNBOUND:                 0.000
REMARK SMILES Nc1c2c(nc3cc(Cl)ccc13)CCCC2
REMARK SMILES IDX 2 1 3 2 4 3 5 4 6 5 7 6 8 7 9 8 10 9 11 10 12 11 13 12 14 13
REMARK SMILES IDX 15 14 16 15 1 16
REMARK H PARENT 1 17 1 18
ROOT
ATOM      1  C   UNL     1     -11.404 -43.948  31.586  1.00  0.00     0.046 A 
ATOM      2  C   UNL     1     -10.048 -43.815  31.935  1.00  0.00    -0.003 A 
ATOM      3  C   UNL     1      -9.094 -44.346  31.067  1.00  0.00     0.046 A 
ATOM      4  N   UNL     1      -9.418 -44.980  29.916  1.00  0.00    -0.252 NA
ATOM      5  C   UNL     1     -10.708 -45.144  29.603  1.00  0.00     0.074 A 
ATOM      6  C   UNL     1     -11.003 -45.832  28.435  1.00  0.00     0.049 A 
ATOM      7  C   UNL     1     -12.317 -46.072  28.047  1.00  0.00     0.043 A 
ATOM      8  Cl  UNL     1     -12.641 -46.932  26.594  1.00  0.00    -0.084 Cl
ATOM      9  C   UNL     1     -13.370 -45.624  28.832  1.00  0.00     0.021 A 
ATOM     10  C   UNL     1     -13.095 -44.927  30.008  1.00  0.00     0.014 A 
ATOM     11  C   UNL     1     -11.761 -44.665  30.412  1.00  0.00     0.024 A 
ATOM     12  C   UNL     1      -7.618 -44.206  31.333  1.00  0.00     0.056 C 
ATOM     13  C   UNL     1      -7.294 -43.910  32.793  1.00  0.00     0.007 C 
ATOM     14  C   UNL     1      -8.165 -42.767  33.294  1.00  0.00     0.005 C 
ATOM     15  C   UNL     1      -9.643 -43.153  33.230  1.00  0.00     0.039 C 
ENDROOT
BRANCH   1  16
ATOM     16  N   UNL     1     -12.382 -43.545  32.533  1.00  0.00    -0.398 N 
ATOM     17  H   UNL     1     -13.270 -43.366  32.067  1.00  0.00     0.156 HD
ATOM     18  H   UNL     1     -12.106 -42.733  33.072  1.00  0.00     0.156 HD
ENDBRANCH   1  16
TORSDOF 1
ENDMDL
MODEL 9
REMARK VINA RESULT:    -8.177      7.767     10.136
REMARK INTER + INTRA:          -8.416
REMARK INTER:                  -8.416
REMARK INTRA:                   0.000
REMARK UNBOUND:                 0.000
REMARK SMILES Nc1c2c(nc3cc(Cl)ccc13)CCCC2
REMARK SMILES IDX 2 1 3 2 4 3 5 4 6 5 7 6 8 7 9 8 10 9 11 10 12 11 13 12 14 13
REMARK SMILES IDX 15 14 16 15 1 16
REMARK H PARENT 1 17 1 18
ROOT
ATOM      1  C   UNL     1      -9.675 -45.149  30.496  1.00  0.00     0.046 A 
ATOM      2  C   UNL     1     -10.751 -45.469  29.648  1.00  0.00    -0.003 A 
ATOM      3  C   UNL     1     -11.972 -44.832  29.872  1.00  0.00     0.046 A 
ATOM      4  N   UNL     1     -12.161 -43.930  30.863  1.00  0.00    -0.252 NA
ATOM      5  C   UNL     1     -11.150 -43.656  31.697  1.00  0.00     0.074 A 
ATOM      6  C   UNL     1     -11.392 -42.757  32.724  1.00  0.00     0.049 A 
ATOM      7  C   UNL     1     -10.406 -42.435  33.652  1.00  0.00     0.043 A 
ATOM      8  Cl  UNL     1     -10.746 -41.317  34.914  1.00  0.00    -0.084 Cl
ATOM      9  C   UNL     1      -9.150 -43.016  33.567  1.00  0.00     0.021 A 
ATOM     10  C   UNL     1      -8.886 -43.921  32.539  1.00  0.00     0.014 A 
ATOM     11  C   UNL     1      -9.875 -44.251  31.579  1.00  0.00     0.024 A 
ATOM     12  C   UNL     1     -13.164 -45.073  28.983  1.00  0.00     0.056 C 
ATOM     13  C   UNL     1     -13.074 -46.373  28.193  1.00  0.00     0.007 C 
ATOM     14  C   UNL     1     -11.716 -46.472  27.514  1.00  0.00     0.005 C 
ATOM     15  C   UNL     1     -10.597 -46.500  28.556  1.00  0.00     0.039 C 
ENDROOT
BRANCH   1  16
ATOM     16  N   UNL     1      -8.478 -45.901  30.370  1.00  0.00    -0.398 N 
ATOM     17  H   UNL     1      -8.565 -46.577  29.613  1.00  0.00     0.156 HD
ATOM     18  H   UNL     1      -8.210 -46.374  31.225  1.00  0.00     0.156 HD
ENDBRANCH   1  16
TORSDOF 1
ENDMDL
