MODEL 1
REMARK VINA RESULT:    -8.777      0.000      0.000
REMARK INTER + INTRA:         -11.174
REMARK INTER:                 -10.829
REMARK INTRA:                  -0.345
REMARK UNBOUND:                -0.345
REMARK SMILES COc1cccc2c1CC[C@@H](NS(=O)(=O)N(C)C)C2
REMARK SMILES IDX 12 1 11 3 3 4 4 5 8 6 5 7 7 8 9 9 6 10 19 11 10 12 2 13 1 14
REMARK SMILES IDX 13 15 14 16 15 17 16 18 17 19 18 20
REMARK H PARENT 12 2
ROOT
ATOM      1  N   UNL     1     -13.364 -44.005  27.895  1.00  0.00    -0.199 NA
ATOM      2  H   UNL     1     -12.509 -43.505  27.647  1.00  0.00     0.142 HD
ENDROOT
BRANCH   1   3
ATOM      3  C   UNL     1     -14.410 -43.911  26.841  1.00  0.00     0.075 C 
ATOM      4  C   UNL     1     -17.327 -42.328  24.102  1.00  0.00     0.122 A 
ATOM      5  C   UNL     1     -18.600 -41.978  24.557  1.00  0.00     0.047 A 
ATOM      6  C   UNL     1     -16.332 -42.709  25.027  1.00  0.00    -0.003 A 
ATOM      7  C   UNL     1     -18.896 -42.010  25.919  1.00  0.00     0.004 A 
ATOM      8  C   UNL     1     -16.643 -42.767  26.401  1.00  0.00    -0.040 A 
ATOM      9  C   UNL     1     -14.961 -43.114  24.529  1.00  0.00     0.041 C 
ATOM     10  C   UNL     1     -17.924 -42.401  26.836  1.00  0.00     0.004 A 
ATOM     11  C   UNL     1     -15.613 -43.160  27.431  1.00  0.00     0.056 C 
ATOM     12  C   UNL     1     -13.891 -43.157  25.620  1.00  0.00     0.025 C 
BRANCH   4  13
ATOM     13  O   UNL     1     -16.949 -42.339  22.783  1.00  0.00    -0.496 OA
ATOM     14  C   UNL     1     -16.889 -41.090  22.108  1.00  0.00     0.278 C 
ENDBRANCH   4  13
ENDBRANCH   1   3
BRANCH   1  15
ATOM     15  S   UNL     1     -12.931 -45.546  28.392  1.00  0.00     0.279 S 
ATOM     16  O   UNL     1     -13.701 -45.912  29.554  1.00  0.00    -0.195 OA
ATOM     17  O   UNL     1     -12.878 -46.365  27.207  1.00  0.00    -0.195 OA
BRANCH  15  18
ATOM     18  N   UNL     1     -11.348 -45.205  28.880  1.00  0.00    -0.195 NA
ATOM     19  C   UNL     1     -10.386 -46.311  28.674  1.00  0.00     0.125 C 
ATOM     20  C   UNL     1     -10.830 -43.932  28.331  1.00  0.00     0.125 C 
ENDBRANCH  15  18
ENDBRANCH   1  15
TORSDOF 4
ENDMDL
MODEL 2
REMARK VINA RESULT:    -8.516      2.539      7.225
REMARK INTER + INTRA:         -10.852
REMARK INTER:                 -10.520
REMARK INTRA:                  -0.332
REMARK UNBOUND:                -0.345
REMARK SMILES COc1cccc2c1CC[C@@H](NS(=O)(=O)N(C)C)C2
REMARK SMILES IDX 12 1 11 3 3 4 4 5 8 6 5 7 7 8 9 9 6 10 19 11 10 12 2 13 1 14
REMARK SMILES IDX 13 15 14 16 15 17 16 18 17 19 18 20
REMARK H PARENT 12 2
ROOT
ATOM      1  N   UNL     1     -15.065 -43.170  25.759  1.00  0.00    -0.199 NA
ATOM      2  H   UNL     1     -15.943 -43.583  26.078  1.00  0.00     0.142 HD
ENDROOT
BRANCH   1   3
ATOM      3  C   UNL     1     -13.871 -43.829  26.352  1.00  0.00     0.075 C 
ATOM      4  C   UNL     1     -10.716 -44.894  29.079  1.00  0.00     0.122 A 
ATOM      5  C   UNL     1      -9.585 -44.082  29.194  1.00  0.00     0.047 A 
ATOM      6  C   UNL     1     -11.808 -44.466  28.293  1.00  0.00    -0.003 A 
ATOM      7  C   UNL     1      -9.525 -42.857  28.531  1.00  0.00     0.004 A 
ATOM      8  C   UNL     1     -11.731 -43.239  27.603  1.00  0.00    -0.040 A 
ATOM      9  C   UNL     1     -13.022 -45.358  28.148  1.00  0.00     0.041 C 
ATOM     10  C   UNL     1     -10.591 -42.437  27.742  1.00  0.00     0.004 A 
ATOM     11  C   UNL     1     -12.874 -42.733  26.757  1.00  0.00     0.056 C 
ATOM     12  C   UNL     1     -14.251 -44.648  27.582  1.00  0.00     0.025 C 
BRANCH   4  13
ATOM     13  O   UNL     1     -10.860 -46.117  29.682  1.00  0.00    -0.496 OA
ATOM     14  C   UNL     1     -10.896 -46.149  31.103  1.00  0.00     0.278 C 
ENDBRANCH   4  13
ENDBRANCH   1   3
BRANCH   1  15
ATOM     15  S   UNL     1     -15.122 -43.075  24.087  1.00  0.00     0.279 S 
ATOM     16  O   UNL     1     -14.541 -41.828  23.654  1.00  0.00    -0.195 OA
ATOM     17  O   UNL     1     -14.681 -44.352  23.584  1.00  0.00    -0.195 OA
BRANCH  15  18
ATOM     18  N   UNL     1     -16.801 -42.979  23.908  1.00  0.00    -0.195 NA
ATOM     19  C   UNL     1     -17.537 -42.651  25.149  1.00  0.00     0.125 C 
ATOM     20  C   UNL     1     -17.218 -42.105  22.788  1.00  0.00     0.125 C 
ENDBRANCH  15  18
ENDBRANCH   1  15
TORSDOF 4
ENDMDL
MODEL 3
REMARK VINA RESULT:    -8.273      2.808      8.203
REMARK INTER + INTRA:         -10.552
REMARK INTER:                 -10.385
REMARK INTRA:                  -0.167
REMARK UNBOUND:                -0.345
REMARK SMILES COc1cccc2c1CC[C@@H](NS(=O)(=O)N(C)C)C2
REMARK SMILES IDX 12 1 11 3 3 4 4 5 8 6 5 7 7 8 9 9 6 10 19 11 10 12 2 13 1 14
REMARK SMILES IDX 13 15 14 16 15 17 16 18 17 19 18 20
REMARK H PARENT 12 2
ROOT
ATOM      1  N   UNL     1     -12.492 -43.356  27.144  1.00  0.00    -0.199 NA
ATOM      2  H   UNL     1     -12.716 -42.385  26.921  1.00  0.00     0.142 HD
ENDROOT
BRANCH   1   3
ATOM      3  C   UNL     1     -11.603 -43.482  28.330  1.00  0.00     0.075 C 
ATOM      4  C   UNL     1      -8.223 -44.392  30.834  1.00  0.00     0.122 A 
ATOM      5  C   UNL     1      -8.015 -45.698  31.285  1.00  0.00     0.047 A 
ATOM      6  C   UNL     1      -9.247 -44.128  29.899  1.00  0.00    -0.003 A 
ATOM      7  C   UNL     1      -8.819 -46.740  30.824  1.00  0.00     0.004 A 
ATOM      8  C   UNL     1     -10.074 -45.181  29.457  1.00  0.00    -0.040 A 
ATOM      9  C   UNL     1      -9.488 -42.709  29.431  1.00  0.00     0.041 C 
ATOM     10  C   UNL     1      -9.841 -46.484  29.915  1.00  0.00     0.004 A 
ATOM     11  C   UNL     1     -11.178 -44.953  28.452  1.00  0.00     0.056 C 
ATOM     12  C   UNL     1     -10.363 -42.606  28.182  1.00  0.00     0.025 C 
BRANCH   4  13
ATOM     13  O   UNL     1      -7.493 -43.304  31.240  1.00  0.00    -0.496 OA
ATOM     14  C   UNL     1      -7.247 -43.161  32.632  1.00  0.00     0.278 C 
ENDBRANCH   4  13
ENDBRANCH   1   3
BRANCH   1  15
ATOM     15  S   UNL     1     -13.928 -44.218  27.182  1.00  0.00     0.279 S 
ATOM     16  O   UNL     1     -13.758 -45.470  26.486  1.00  0.00    -0.195 OA
ATOM     17  O   UNL     1     -14.420 -44.144  28.535  1.00  0.00    -0.195 OA
BRANCH  15  18
ATOM     18  N   UNL     1     -14.855 -43.185  26.216  1.00  0.00    -0.195 NA
ATOM     19  C   UNL     1     -15.027 -43.637  24.817  1.00  0.00     0.125 C 
ATOM     20  C   UNL     1     -16.153 -42.824  26.828  1.00  0.00     0.125 C 
ENDBRANCH  15  18
ENDBRANCH   1  15
TORSDOF 4
ENDMDL
MODEL 4
REMARK VINA RESULT:    -8.123      4.769      8.018
REMARK INTER + INTRA:         -10.367
REMARK INTER:                 -10.028
REMARK INTRA:                  -0.339
REMARK UNBOUND:                -0.345
REMARK SMILES COc1cccc2c1CC[C@@H](NS(=O)(=O)N(C)C)C2
REMARK SMILES IDX 12 1 11 3 3 4 4 5 8 6 5 7 7 8 9 9 6 10 19 11 10 12 2 13 1 14
REMARK SMILES IDX 13 15 14 16 15 17 16 18 17 19 18 20
REMARK H PARENT 12 2
ROOT
ATOM      1  N   UNL     1     -19.373 -41.826  21.998  1.00  0.00    -0.199 NA
ATOM      2  H   UNL     1     -19.079 -42.452  21.247  1.00  0.00     0.142 HD
ENDROOT
BRANCH   1   3
ATOM      3  C   UNL     1     -18.387 -41.763  23.110  1.00  0.00     0.075 C 
ATOM      4  C   UNL     1     -16.034 -42.811  26.558  1.00  0.00     0.122 A 
ATOM      5  C   UNL     1     -16.587 -42.723  27.838  1.00  0.00     0.047 A 
ATOM      6  C   UNL     1     -16.852 -42.606  25.426  1.00  0.00    -0.003 A 
ATOM      7  C   UNL     1     -17.939 -42.425  28.004  1.00  0.00     0.004 A 
ATOM      8  C   UNL     1     -18.212 -42.278  25.599  1.00  0.00    -0.040 A 
ATOM      9  C   UNL     1     -16.246 -42.675  24.041  1.00  0.00     0.041 C 
ATOM     10  C   UNL     1     -18.747 -42.205  26.892  1.00  0.00     0.004 A 
ATOM     11  C   UNL     1     -19.130 -42.057  24.422  1.00  0.00     0.056 C 
ATOM     12  C   UNL     1     -17.275 -42.789  22.917  1.00  0.00     0.025 C 
BRANCH   4  13
ATOM     13  O   UNL     1     -14.716 -43.085  26.298  1.00  0.00    -0.496 OA
ATOM     14  C   UNL     1     -14.230 -44.372  26.657  1.00  0.00     0.278 C 
ENDBRANCH   4  13
ENDBRANCH   1   3
BRANCH   1  15
ATOM     15  S   UNL     1     -19.824 -40.369  21.305  1.00  0.00     0.279 S 
ATOM     16  O   UNL     1     -19.924 -39.358  22.329  1.00  0.00    -0.195 OA
ATOM     17  O   UNL     1     -19.011 -40.201  20.127  1.00  0.00    -0.195 OA
BRANCH  15  18
ATOM     18  N   UNL     1     -21.385 -40.804  20.823  1.00  0.00    -0.195 NA
ATOM     19  C   UNL     1     -21.504 -41.206  19.404  1.00  0.00     0.125 C 
ATOM     20  C   UNL     1     -22.016 -41.799  21.719  1.00  0.00     0.125 C 
ENDBRANCH  15  18
ENDBRANCH   1  15
TORSDOF 4
ENDMDL
MODEL 5
REMARK VINA RESULT:    -8.123      1.834      2.833
REMARK INTER + INTRA:         -10.367
REMARK INTER:                 -10.080
REMARK INTRA:                  -0.287
REMARK UNBOUND:                -0.345
REMARK SMILES COc1cccc2c1CC[C@@H](NS(=O)(=O)N(C)C)C2
REMARK SMILES IDX 12 1 11 3 3 4 4 5 8 6 5 7 7 8 9 9 6 10 19 11 10 12 2 13 1 14
REMARK SMILES IDX 13 15 14 16 15 17 16 18 17 19 18 20
REMARK H PARENT 12 2
ROOT
ATOM      1  N   UNL     1     -12.625 -44.543  27.489  1.00  0.00    -0.199 NA
ATOM      2  H   UNL     1     -12.944 -45.379  27.982  1.00  0.00     0.142 HD
ENDROOT
BRANCH   1   3
ATOM      3  C   UNL     1     -13.750 -43.687  27.026  1.00  0.00     0.075 C 
ATOM      4  C   UNL     1     -17.542 -42.421  25.431  1.00  0.00     0.122 A 
ATOM      5  C   UNL     1     -17.756 -42.417  24.051  1.00  0.00     0.047 A 
ATOM      6  C   UNL     1     -16.352 -42.972  25.954  1.00  0.00    -0.003 A 
ATOM      7  C   UNL     1     -16.799 -42.946  23.186  1.00  0.00     0.004 A 
ATOM      8  C   UNL     1     -15.375 -43.481  25.074  1.00  0.00    -0.040 A 
ATOM      9  C   UNL     1     -16.109 -42.952  27.447  1.00  0.00     0.041 C 
ATOM     10  C   UNL     1     -15.616 -43.476  23.694  1.00  0.00     0.004 A 
ATOM     11  C   UNL     1     -14.089 -44.087  25.582  1.00  0.00     0.056 C 
ATOM     12  C   UNL     1     -14.981 -43.875  27.907  1.00  0.00     0.025 C 
BRANCH   4  13
ATOM     13  O   UNL     1     -18.418 -41.912  26.355  1.00  0.00    -0.496 OA
ATOM     14  C   UNL     1     -19.753 -41.671  25.931  1.00  0.00     0.278 C 
ENDBRANCH   4  13
ENDBRANCH   1   3
BRANCH   1  15
ATOM     15  S   UNL     1     -11.455 -43.806  28.433  1.00  0.00     0.279 S 
ATOM     16  O   UNL     1     -10.789 -42.783  27.666  1.00  0.00    -0.195 OA
ATOM     17  O   UNL     1     -12.060 -43.543  29.715  1.00  0.00    -0.195 OA
BRANCH  15  18
ATOM     18  N   UNL     1     -10.409 -45.125  28.595  1.00  0.00    -0.195 NA
ATOM     19  C   UNL     1      -9.674 -45.177  29.879  1.00  0.00     0.125 C 
ATOM     20  C   UNL     1     -11.055 -46.422  28.292  1.00  0.00     0.125 C 
ENDBRANCH  15  18
ENDBRANCH   1  15
TORSDOF 4
ENDMDL
MODEL 6
REMARK VINA RESULT:    -7.945      3.743      6.110
REMARK INTER + INTRA:         -10.147
REMARK INTER:                 -10.786
REMARK INTRA:                   0.639
REMARK UNBOUND:                -0.345
REMARK SMILES COc1cccc2c1CC[C@@H](NS(=O)(=O)N(C)C)C2
REMARK SMILES IDX 12 1 11 3 3 4 4 5 8 6 5 7 7 8 9 9 6 10 19 11 10 12 2 13 1 14
REMARK SMILES IDX 13 15 14 16 15 17 16 18 17 19 18 20
REMARK H PARENT 12 2
ROOT
ATOM      1  N   UNL     1      -7.979 -43.639  30.150  1.00  0.00    -0.199 NA
ATOM      2  H   UNL     1      -7.119 -44.064  29.799  1.00  0.00     0.142 HD
ENDROOT
BRANCH   1   3
ATOM      3  C   UNL     1      -9.073 -43.644  29.142  1.00  0.00     0.075 C 
ATOM      4  C   UNL     1     -12.947 -44.036  27.310  1.00  0.00     0.122 A 
ATOM      5  C   UNL     1     -13.440 -45.299  26.974  1.00  0.00     0.047 A 
ATOM      6  C   UNL     1     -11.744 -43.925  28.040  1.00  0.00    -0.003 A 
ATOM      7  C   UNL     1     -12.746 -46.449  27.347  1.00  0.00     0.004 A 
ATOM      8  C   UNL     1     -11.032 -45.090  28.391  1.00  0.00    -0.040 A 
ATOM      9  C   UNL     1     -11.198 -42.555  28.380  1.00  0.00     0.041 C 
ATOM     10  C   UNL     1     -11.550 -46.346  28.052  1.00  0.00     0.004 A 
ATOM     11  C   UNL     1      -9.745 -45.025  29.176  1.00  0.00     0.056 C 
ATOM     12  C   UNL     1     -10.109 -42.568  29.452  1.00  0.00     0.025 C 
BRANCH   4  13
ATOM     13  O   UNL     1     -13.553 -42.852  26.976  1.00  0.00    -0.496 OA
ATOM     14  C   UNL     1     -14.679 -42.911  26.111  1.00  0.00     0.278 C 
ENDBRANCH   4  13
ENDBRANCH   1   3
BRANCH   1  15
ATOM     15  S   UNL     1      -8.321 -44.329  31.638  1.00  0.00     0.279 S 
ATOM     16  O   UNL     1      -9.744 -44.531  31.761  1.00  0.00    -0.195 OA
ATOM     17  O   UNL     1      -7.368 -45.394  31.831  1.00  0.00    -0.195 OA
BRANCH  15  18
ATOM     18  N   UNL     1      -7.875 -43.025  32.617  1.00  0.00    -0.195 NA
ATOM     19  C   UNL     1      -8.880 -42.644  33.635  1.00  0.00     0.125 C 
ATOM     20  C   UNL     1      -6.532 -43.181  33.220  1.00  0.00     0.125 C 
ENDBRANCH  15  18
ENDBRANCH   1  15
TORSDOF 4
ENDMDL
MODEL 7
REMARK VINA RESULT:    -7.854      4.340      6.947
REMARK INTER + INTRA:         -10.036
REMARK INTER:                  -9.647
REMARK INTRA:                  -0.389
REMARK UNBOUND:                -0.345
REMARK SMILES COc1cccc2c1CC[C@@H](NS(=O)(=O)N(C)C)C2
REMARK SMILES IDX 12 1 11 3 3 4 4 5 8 6 5 7 7 8 9 9 6 10 19 11 10 12 2 13 1 14
REMARK SMILES IDX 13 15 14 16 15 17 16 18 17 19 18 20
REMARK H PARENT 12 2
ROOT
ATOM      1  N   UNL     1     -20.476 -41.812  27.137  1.00  0.00    -0.199 NA
ATOM      2  H   UNL     1     -20.633 -41.410  28.063  1.00  0.00     0.142 HD
ENDROOT
BRANCH   1   3
ATOM      3  C   UNL     1     -19.153 -42.482  27.021  1.00  0.00     0.075 C 
ATOM      4  C   UNL     1     -14.962 -43.171  26.325  1.00  0.00     0.122 A 
ATOM      5  C   UNL     1     -14.481 -43.313  25.021  1.00  0.00     0.047 A 
ATOM      6  C   UNL     1     -16.308 -42.802  26.539  1.00  0.00    -0.003 A 
ATOM      7  C   UNL     1     -15.325 -43.103  23.931  1.00  0.00     0.004 A 
ATOM      8  C   UNL     1     -17.163 -42.617  25.434  1.00  0.00    -0.040 A 
ATOM      9  C   UNL     1     -16.834 -42.674  27.953  1.00  0.00     0.041 C 
ATOM     10  C   UNL     1     -16.657 -42.756  24.136  1.00  0.00     0.004 A 
ATOM     11  C   UNL     1     -18.608 -42.216  25.609  1.00  0.00     0.056 C 
ATOM     12  C   UNL     1     -18.170 -41.940  28.054  1.00  0.00     0.025 C 
BRANCH   4  13
ATOM     13  O   UNL     1     -14.212 -43.369  27.456  1.00  0.00    -0.496 OA
ATOM     14  C   UNL     1     -13.721 -44.682  27.696  1.00  0.00     0.278 C 
ENDBRANCH   4  13
ENDBRANCH   1   3
BRANCH   1  15
ATOM     15  S   UNL     1     -21.822 -42.727  26.740  1.00  0.00     0.279 S 
ATOM     16  O   UNL     1     -22.868 -42.490  27.703  1.00  0.00    -0.195 OA
ATOM     17  O   UNL     1     -22.025 -42.571  25.321  1.00  0.00    -0.195 OA
BRANCH  15  18
ATOM     18  N   UNL     1     -21.165 -44.259  27.023  1.00  0.00    -0.195 NA
ATOM     19  C   UNL     1     -21.599 -44.893  28.287  1.00  0.00     0.125 C 
ATOM     20  C   UNL     1     -21.323 -45.181  25.876  1.00  0.00     0.125 C 
ENDBRANCH  15  18
ENDBRANCH   1  15
TORSDOF 4
ENDMDL
MODEL 8
REMARK VINA RESULT:    -7.646      4.587      7.509
REMARK INTER + INTRA:          -9.779
REMARK INTER:                  -9.489
REMARK INTRA:                  -0.290
REMARK UNBOUND:                -0.345
REMARK SMILES COc1cccc2c1CC[C@@H](NS(=O)(=O)N(C)C)C2
REMARK SMILES IDX 12 1 11 3 3 4 4 5 8 6 5 7 7 8 9 9 6 10 19 11 10 12 2 13 1 14
REMARK SMILES IDX 13 15 14 16 15 17 16 18 17 19 18 20
REMARK H PARENT 12 2
ROOT
ATOM      1  N   UNL     1     -20.436 -41.792  27.267  1.00  0.00    -0.199 NA
ATOM      2  H   UNL     1     -20.527 -41.359  28.187  1.00  0.00     0.142 HD
ENDROOT
BRANCH   1   3
ATOM      3  C   UNL     1     -19.124 -42.467  27.078  1.00  0.00     0.075 C 
ATOM      4  C   UNL     1     -14.965 -43.159  26.213  1.00  0.00     0.122 A 
ATOM      5  C   UNL     1     -14.530 -43.251  24.889  1.00  0.00     0.047 A 
ATOM      6  C   UNL     1     -16.300 -42.789  26.488  1.00  0.00    -0.003 A 
ATOM      7  C   UNL     1     -15.407 -42.989  23.838  1.00  0.00     0.004 A 
ATOM      8  C   UNL     1     -17.190 -42.552  25.421  1.00  0.00    -0.040 A 
ATOM      9  C   UNL     1     -16.777 -42.715  27.923  1.00  0.00     0.041 C 
ATOM     10  C   UNL     1     -16.729 -42.640  24.102  1.00  0.00     0.004 A 
ATOM     11  C   UNL     1     -18.624 -42.146  25.661  1.00  0.00     0.056 C 
ATOM     12  C   UNL     1     -18.102 -41.975  28.099  1.00  0.00     0.025 C 
BRANCH   4  13
ATOM     13  O   UNL     1     -14.180 -43.410  27.309  1.00  0.00    -0.496 OA
ATOM     14  C   UNL     1     -13.633 -44.716  27.440  1.00  0.00     0.278 C 
ENDBRANCH   4  13
ENDBRANCH   1   3
BRANCH   1  15
ATOM     15  S   UNL     1     -21.806 -42.718  26.998  1.00  0.00     0.279 S 
ATOM     16  O   UNL     1     -22.014 -42.871  25.579  1.00  0.00    -0.195 OA
ATOM     17  O   UNL     1     -21.730 -43.842  27.896  1.00  0.00    -0.195 OA
BRANCH  15  18
ATOM     18  N   UNL     1     -22.954 -41.629  27.596  1.00  0.00    -0.195 NA
ATOM     19  C   UNL     1     -22.813 -40.244  27.094  1.00  0.00     0.125 C 
ATOM     20  C   UNL     1     -24.346 -42.114  27.454  1.00  0.00     0.125 C 
ENDBRANCH  15  18
ENDBRANCH   1  15
TORSDOF 4
ENDMDL
MODEL 9
REMARK VINA RESULT:    -7.325      5.434      8.777
REMARK INTER + INTRA:          -9.383
REMARK INTER:                  -9.080
REMARK INTRA:                  -0.303
REMARK UNBOUND:                -0.345
REMARK SMILES COc1cccc2c1CC[C@@H](NS(=O)(=O)N(C)C)C2
REMARK SMILES IDX 12 1 11 3 3 4 4 5 8 6 5 7 7 8 9 9 6 10 19 11 10 12 2 13 1 14
REMARK SMILES IDX 13 15 14 16 15 17 16 18 17 19 18 20
REMARK H PARENT 12 2
ROOT
ATOM      1  N   UNL     1     -20.935 -40.889  21.797  1.00  0.00    -0.199 NA
ATOM      2  H   UNL     1     -21.515 -41.727  21.719  1.00  0.00     0.142 HD
ENDROOT
BRANCH   1   3
ATOM      3  C   UNL     1     -19.842 -41.041  22.794  1.00  0.00     0.075 C 
ATOM      4  C   UNL     1     -17.370 -42.607  25.950  1.00  0.00     0.122 A 
ATOM      5  C   UNL     1     -17.758 -42.460  27.284  1.00  0.00     0.047 A 
ATOM      6  C   UNL     1     -18.251 -42.221  24.917  1.00  0.00    -0.003 A 
ATOM      7  C   UNL     1     -19.006 -41.927  27.601  1.00  0.00     0.004 A 
ATOM      8  C   UNL     1     -19.502 -41.657  25.243  1.00  0.00    -0.040 A 
ATOM      9  C   UNL     1     -17.819 -42.357  23.473  1.00  0.00     0.041 C 
ATOM     10  C   UNL     1     -19.873 -41.529  26.588  1.00  0.00     0.004 A 
ATOM     11  C   UNL     1     -20.483 -41.236  24.177  1.00  0.00     0.056 C 
ATOM     12  C   UNL     1     -18.965 -42.246  22.468  1.00  0.00     0.025 C 
BRANCH   4  13
ATOM     13  O   UNL     1     -16.160 -43.108  25.543  1.00  0.00    -0.496 OA
ATOM     14  C   UNL     1     -14.993 -42.610  26.184  1.00  0.00     0.278 C 
ENDBRANCH   4  13
ENDBRANCH   1   3
BRANCH   1  15
ATOM     15  S   UNL     1     -20.487 -40.430  20.250  1.00  0.00     0.279 S 
ATOM     16  O   UNL     1     -19.225 -39.733  20.300  1.00  0.00    -0.195 OA
ATOM     17  O   UNL     1     -20.708 -41.571  19.397  1.00  0.00    -0.195 OA
BRANCH  15  18
ATOM     18  N   UNL     1     -21.715 -39.302  19.967  1.00  0.00    -0.195 NA
ATOM     19  C   UNL     1     -22.366 -38.779  21.188  1.00  0.00     0.125 C 
ATOM     20  C   UNL     1     -21.302 -38.204  19.065  1.00  0.00     0.125 C 
ENDBRANCH  15  18
ENDBRANCH   1  15
TORSDOF 4
ENDMDL
