MODEL 1
REMARK VINA RESULT:   -12.310      0.000      0.000
REMARK INTER + INTRA:         -17.877
REMARK INTER:                 -17.348
REMARK INTRA:                  -0.530
REMARK UNBOUND:                -0.530
REMARK SMILES O=C(NCCCCNc1c2c(nc3ccccc13)CCCC2)c1ccc(F)cc1
REMARK SMILES IDX 5 1 4 2 3 3 2 4 1 5 23 7 24 8 29 9 25 10 28 11 26 12 27 13
REMARK SMILES IDX 6 14 7 15 8 16 9 18 10 19 18 20 11 21 22 22 17 23 13 24
REMARK SMILES IDX 12 25 19 26 21 27 16 28 14 29 20 30 15 31
REMARK H PARENT 3 6 8 17
ROOT
ATOM      1  C   UNL     1     -12.984 -45.903  27.221  1.00  0.00     0.023 C 
ENDROOT
BRANCH   1   2
ATOM      2  C   UNL     1     -13.602 -44.546  27.367  1.00  0.00     0.116 C 
BRANCH   2   3
ATOM      3  N   UNL     1     -14.469 -44.163  26.286  1.00  0.00    -0.352 N 
ATOM      4  C   UNL     1     -15.548 -43.260  26.487  1.00  0.00     0.251 C 
ATOM      5  O   UNL     1     -15.686 -42.822  27.675  1.00  0.00    -0.269 OA
ATOM      6  H   UNL     1     -14.306 -44.560  25.318  1.00  0.00     0.163 HD
BRANCH   4   7
ATOM      7  C   UNL     1     -16.454 -42.842  25.426  1.00  0.00     0.040 A 
ATOM      8  C   UNL     1     -17.764 -42.473  25.645  1.00  0.00     0.017 A 
ATOM      9  C   UNL     1     -15.987 -42.811  24.131  1.00  0.00     0.017 A 
ATOM     10  C   UNL     1     -18.570 -42.086  24.590  1.00  0.00     0.040 A 
ATOM     11  C   UNL     1     -16.775 -42.427  23.058  1.00  0.00     0.040 A 
ATOM     12  C   UNL     1     -18.084 -42.061  23.299  1.00  0.00     0.123 A 
ATOM     13  F   UNL     1     -18.896 -41.677  22.269  1.00  0.00    -0.207 F 
ENDBRANCH   4   7
ENDBRANCH   2   3
ENDBRANCH   1   2
BRANCH   1  14
ATOM     14  C   UNL     1     -12.204 -46.169  28.511  1.00  0.00     0.023 C 
BRANCH  14  15
ATOM     15  C   UNL     1     -13.136 -46.162  29.701  1.00  0.00     0.113 C 
BRANCH  15  16
ATOM     16  N   UNL     1     -12.418 -46.373  30.943  1.00  0.00    -0.384 N 
ATOM     17  H   UNL     1     -12.400 -47.301  31.410  1.00  0.00     0.160 HD
BRANCH  16  18
ATOM     18  C   UNL     1     -11.713 -45.285  31.549  1.00  0.00     0.049 A 
ATOM     19  C   UNL     1     -12.424 -44.203  32.075  1.00  0.00    -0.003 A 
ATOM     20  C   UNL     1     -10.337 -45.324  31.602  1.00  0.00     0.024 A 
ATOM     21  C   UNL     1     -11.659 -43.214  32.642  1.00  0.00     0.046 A 
ATOM     22  C   UNL     1     -13.846 -44.151  32.097  1.00  0.00     0.039 C 
ATOM     23  C   UNL     1      -9.675 -46.406  31.071  1.00  0.00     0.012 A 
ATOM     24  C   UNL     1      -9.609 -44.301  32.174  1.00  0.00     0.073 A 
ATOM     25  N   UNL     1     -10.295 -43.264  32.683  1.00  0.00    -0.252 NA
ATOM     26  C   UNL     1     -12.295 -42.186  33.454  1.00  0.00     0.056 C 
ATOM     27  C   UNL     1     -14.471 -42.813  32.529  1.00  0.00     0.005 C 
ATOM     28  C   UNL     1      -8.290 -46.492  31.097  1.00  0.00     0.001 A 
ATOM     29  C   UNL     1      -8.228 -44.370  32.209  1.00  0.00     0.029 A 
ATOM     30  C   UNL     1     -13.765 -42.415  33.813  1.00  0.00     0.007 C 
ATOM     31  C   UNL     1      -7.550 -45.465  31.671  1.00  0.00     0.002 A 
ENDBRANCH  16  18
ENDBRANCH  15  16
ENDBRANCH  14  15
ENDBRANCH   1  14
TORSDOF 7
ENDMDL
MODEL 2
REMARK VINA RESULT:   -11.820      0.976      1.454
REMARK INTER + INTRA:         -17.186
REMARK INTER:                 -16.329
REMARK INTRA:                  -0.858
REMARK UNBOUND:                -0.530
REMARK SMILES O=C(NCCCCNc1c2c(nc3ccccc13)CCCC2)c1ccc(F)cc1
REMARK SMILES IDX 5 1 4 2 3 3 2 4 1 5 23 7 24 8 29 9 25 10 28 11 26 12 27 13
REMARK SMILES IDX 6 14 7 15 8 16 9 18 10 19 18 20 11 21 22 22 17 23 13 24
REMARK SMILES IDX 12 25 19 26 21 27 16 28 14 29 20 30 15 31
REMARK H PARENT 3 6 8 17
ROOT
ATOM      1  C   UNL     1     -11.483 -44.402  28.050  1.00  0.00     0.023 C 
ENDROOT
BRANCH   1   2
ATOM      2  C   UNL     1     -12.902 -44.881  28.008  1.00  0.00     0.116 C 
BRANCH   2   3
ATOM      3  N   UNL     1     -13.643 -44.459  26.851  1.00  0.00    -0.352 N 
ATOM      4  C   UNL     1     -14.863 -43.742  26.974  1.00  0.00     0.251 C 
ATOM      5  O   UNL     1     -15.245 -43.504  28.167  1.00  0.00    -0.269 OA
ATOM      6  H   UNL     1     -13.277 -44.686  25.884  1.00  0.00     0.163 HD
BRANCH   4   7
ATOM      7  C   UNL     1     -15.652 -43.293  25.834  1.00  0.00     0.040 A 
ATOM      8  C   UNL     1     -15.204 -43.343  24.531  1.00  0.00     0.017 A 
ATOM      9  C   UNL     1     -16.913 -42.791  26.060  1.00  0.00     0.017 A 
ATOM     10  C   UNL     1     -16.006 -42.901  23.497  1.00  0.00     0.040 A 
ATOM     11  C   UNL     1     -17.735 -42.340  25.039  1.00  0.00     0.040 A 
ATOM     12  C   UNL     1     -17.268 -42.399  23.742  1.00  0.00     0.123 A 
ATOM     13  F   UNL     1     -18.046 -41.965  22.706  1.00  0.00    -0.207 F 
ENDBRANCH   4   7
ENDBRANCH   2   3
ENDBRANCH   1   2
BRANCH   1  14
ATOM     14  C   UNL     1     -10.671 -45.501  28.739  1.00  0.00     0.023 C 
BRANCH  14  15
ATOM     15  C   UNL     1     -11.573 -46.372  29.584  1.00  0.00     0.113 C 
BRANCH  15  16
ATOM     16  N   UNL     1     -11.166 -46.371  30.976  1.00  0.00    -0.384 N 
ATOM     17  H   UNL     1     -11.024 -47.255  31.502  1.00  0.00     0.160 HD
BRANCH  16  18
ATOM     18  C   UNL     1     -10.954 -45.127  31.651  1.00  0.00     0.049 A 
ATOM     19  C   UNL     1     -12.046 -44.325  31.990  1.00  0.00    -0.003 A 
ATOM     20  C   UNL     1      -9.667 -44.740  31.956  1.00  0.00     0.024 A 
ATOM     21  C   UNL     1     -11.740 -43.156  32.643  1.00  0.00     0.046 A 
ATOM     22  C   UNL     1     -13.395 -44.713  31.751  1.00  0.00     0.039 C 
ATOM     23  C   UNL     1      -8.619 -45.558  31.603  1.00  0.00     0.012 A 
ATOM     24  C   UNL     1      -9.407 -43.552  32.605  1.00  0.00     0.073 A 
ATOM     25  N   UNL     1     -10.459 -42.784  32.935  1.00  0.00    -0.252 NA
ATOM     26  C   UNL     1     -12.799 -42.386  33.280  1.00  0.00     0.056 C 
ATOM     27  C   UNL     1     -14.467 -43.640  32.003  1.00  0.00     0.005 C 
ATOM     28  C   UNL     1      -7.305 -45.213  31.884  1.00  0.00     0.001 A 
ATOM     29  C   UNL     1      -8.102 -43.193  32.895  1.00  0.00     0.029 A 
ATOM     30  C   UNL     1     -14.170 -43.062  33.375  1.00  0.00     0.007 C 
ATOM     31  C   UNL     1      -7.035 -44.018  32.538  1.00  0.00     0.002 A 
ENDBRANCH  16  18
ENDBRANCH  15  16
ENDBRANCH  14  15
ENDBRANCH   1  14
TORSDOF 7
ENDMDL
MODEL 3
REMARK VINA RESULT:   -11.653      0.977      3.545
REMARK INTER + INTRA:         -16.951
REMARK INTER:                 -16.278
REMARK INTRA:                  -0.674
REMARK UNBOUND:                -0.530
REMARK SMILES O=C(NCCCCNc1c2c(nc3ccccc13)CCCC2)c1ccc(F)cc1
REMARK SMILES IDX 5 1 4 2 3 3 2 4 1 5 23 7 24 8 29 9 25 10 28 11 26 12 27 13
REMARK SMILES IDX 6 14 7 15 8 16 9 18 10 19 18 20 11 21 22 22 17 23 13 24
REMARK SMILES IDX 12 25 19 26 21 27 16 28 14 29 20 30 15 31
REMARK H PARENT 3 6 8 17
ROOT
ATOM      1  C   UNL     1     -13.071 -45.934  28.208  1.00  0.00     0.023 C 
ENDROOT
BRANCH   1   2
ATOM      2  C   UNL     1     -13.022 -44.733  27.313  1.00  0.00     0.116 C 
BRANCH   2   3
ATOM      3  N   UNL     1     -14.189 -44.548  26.494  1.00  0.00    -0.352 N 
ATOM      4  C   UNL     1     -14.657 -43.250  26.156  1.00  0.00     0.251 C 
ATOM      5  O   UNL     1     -13.978 -42.279  26.624  1.00  0.00    -0.269 OA
ATOM      6  H   UNL     1     -14.714 -45.393  26.132  1.00  0.00     0.163 HD
BRANCH   4   7
ATOM      7  C   UNL     1     -15.833 -43.009  25.330  1.00  0.00     0.040 A 
ATOM      8  C   UNL     1     -15.819 -43.049  23.952  1.00  0.00     0.017 A 
ATOM      9  C   UNL     1     -17.029 -42.724  25.951  1.00  0.00     0.017 A 
ATOM     10  C   UNL     1     -16.973 -42.811  23.231  1.00  0.00     0.040 A 
ATOM     11  C   UNL     1     -18.199 -42.481  25.249  1.00  0.00     0.040 A 
ATOM     12  C   UNL     1     -18.163 -42.527  23.871  1.00  0.00     0.123 A 
ATOM     13  F   UNL     1     -19.293 -42.292  23.140  1.00  0.00    -0.207 F 
ENDBRANCH   4   7
ENDBRANCH   2   3
ENDBRANCH   1   2
BRANCH   1  14
ATOM     14  C   UNL     1     -11.648 -46.494  28.266  1.00  0.00     0.023 C 
BRANCH  14  15
ATOM     15  C   UNL     1     -10.781 -45.638  29.162  1.00  0.00     0.113 C 
BRANCH  15  16
ATOM     16  N   UNL     1     -11.061 -45.880  30.564  1.00  0.00    -0.384 N 
ATOM     17  H   UNL     1     -11.403 -46.801  30.900  1.00  0.00     0.160 HD
BRANCH  16  18
ATOM     18  C   UNL     1     -10.866 -44.830  31.517  1.00  0.00     0.049 A 
ATOM     19  C   UNL     1      -9.579 -44.534  31.972  1.00  0.00    -0.003 A 
ATOM     20  C   UNL     1     -11.959 -44.125  31.971  1.00  0.00     0.024 A 
ATOM     21  C   UNL     1      -9.494 -43.505  32.877  1.00  0.00     0.046 A 
ATOM     22  C   UNL     1      -8.416 -45.195  31.484  1.00  0.00     0.039 C 
ATOM     23  C   UNL     1     -13.210 -44.448  31.499  1.00  0.00     0.012 A 
ATOM     24  C   UNL     1     -11.827 -43.103  32.889  1.00  0.00     0.073 A 
ATOM     25  N   UNL     1     -10.588 -42.818  33.322  1.00  0.00    -0.252 NA
ATOM     26  C   UNL     1      -8.194 -42.937  33.206  1.00  0.00     0.056 C 
ATOM     27  C   UNL     1      -7.102 -44.893  32.223  1.00  0.00     0.005 C 
ATOM     28  C   UNL     1     -14.343 -43.770  31.927  1.00  0.00     0.001 A 
ATOM     29  C   UNL     1     -12.946 -42.416  33.326  1.00  0.00     0.029 A 
ATOM     30  C   UNL     1      -7.018 -43.381  32.333  1.00  0.00     0.007 C 
ATOM     31  C   UNL     1     -14.217 -42.740  32.852  1.00  0.00     0.002 A 
ENDBRANCH  16  18
ENDBRANCH  15  16
ENDBRANCH  14  15
ENDBRANCH   1  14
TORSDOF 7
ENDMDL
MODEL 4
REMARK VINA RESULT:   -11.061      3.263      6.391
REMARK INTER + INTRA:         -16.117
REMARK INTER:                 -14.081
REMARK INTRA:                  -2.036
REMARK UNBOUND:                -0.530
REMARK SMILES O=C(NCCCCNc1c2c(nc3ccccc13)CCCC2)c1ccc(F)cc1
REMARK SMILES IDX 5 1 4 2 3 3 2 4 1 5 23 7 24 8 29 9 25 10 28 11 26 12 27 13
REMARK SMILES IDX 6 14 7 15 8 16 9 18 10 19 18 20 11 21 22 22 17 23 13 24
REMARK SMILES IDX 12 25 19 26 21 27 16 28 14 29 20 30 15 31
REMARK H PARENT 3 6 8 17
ROOT
ATOM      1  C   UNL     1     -13.872 -42.288  33.354  1.00  0.00     0.023 C 
ENDROOT
BRANCH   1   2
ATOM      2  C   UNL     1     -12.385 -42.426  33.241  1.00  0.00     0.116 C 
BRANCH   2   3
ATOM      3  N   UNL     1     -11.864 -42.239  31.914  1.00  0.00    -0.352 N 
ATOM      4  C   UNL     1     -10.668 -42.879  31.491  1.00  0.00     0.251 C 
ATOM      5  O   UNL     1     -10.101 -43.619  32.359  1.00  0.00    -0.269 OA
ATOM      6  H   UNL     1     -12.379 -41.612  31.234  1.00  0.00     0.163 HD
BRANCH   4   7
ATOM      7  C   UNL     1     -10.100 -42.721  30.159  1.00  0.00     0.040 A 
ATOM      8  C   UNL     1      -8.804 -43.063  29.838  1.00  0.00     0.017 A 
ATOM      9  C   UNL     1     -10.893 -42.203  29.159  1.00  0.00     0.017 A 
ATOM     10  C   UNL     1      -8.329 -42.887  28.552  1.00  0.00     0.040 A 
ATOM     11  C   UNL     1     -10.440 -42.017  27.863  1.00  0.00     0.040 A 
ATOM     12  C   UNL     1      -9.139 -42.366  27.563  1.00  0.00     0.123 A 
ATOM     13  F   UNL     1      -8.651 -42.198  26.297  1.00  0.00    -0.207 F 
ENDBRANCH   4   7
ENDBRANCH   2   3
ENDBRANCH   1   2
BRANCH   1  14
ATOM     14  C   UNL     1     -14.477 -43.153  32.247  1.00  0.00     0.023 C 
BRANCH  14  15
ATOM     15  C   UNL     1     -13.826 -44.518  32.230  1.00  0.00     0.113 C 
BRANCH  15  16
ATOM     16  N   UNL     1     -14.227 -45.286  31.067  1.00  0.00    -0.384 N 
ATOM     17  H   UNL     1     -15.064 -45.901  31.084  1.00  0.00     0.160 HD
BRANCH  16  18
ATOM     18  C   UNL     1     -13.459 -45.202  29.863  1.00  0.00     0.049 A 
ATOM     19  C   UNL     1     -14.012 -44.611  28.724  1.00  0.00    -0.003 A 
ATOM     20  C   UNL     1     -12.179 -45.711  29.847  1.00  0.00     0.024 A 
ATOM     21  C   UNL     1     -13.194 -44.571  27.623  1.00  0.00     0.046 A 
ATOM     22  C   UNL     1     -15.307 -44.019  28.713  1.00  0.00     0.039 C 
ATOM     23  C   UNL     1     -11.671 -46.287  30.988  1.00  0.00     0.012 A 
ATOM     24  C   UNL     1     -11.395 -45.656  28.713  1.00  0.00     0.073 A 
ATOM     25  N   UNL     1     -11.928 -45.082  27.621  1.00  0.00    -0.252 NA
ATOM     26  C   UNL     1     -13.560 -43.744  26.481  1.00  0.00     0.056 C 
ATOM     27  C   UNL     1     -15.846 -43.587  27.339  1.00  0.00     0.005 C 
ATOM     28  C   UNL     1     -10.388 -46.815  31.024  1.00  0.00     0.001 A 
ATOM     29  C   UNL     1     -10.114 -46.177  28.731  1.00  0.00     0.029 A 
ATOM     30  C   UNL     1     -14.735 -42.785  26.684  1.00  0.00     0.007 C 
ATOM     31  C   UNL     1      -9.594 -46.764  29.885  1.00  0.00     0.002 A 
ENDBRANCH  16  18
ENDBRANCH  15  16
ENDBRANCH  14  15
ENDBRANCH   1  14
TORSDOF 7
ENDMDL
MODEL 5
REMARK VINA RESULT:   -10.935      4.307     11.010
REMARK INTER + INTRA:         -15.939
REMARK INTER:                 -15.626
REMARK INTRA:                  -0.314
REMARK UNBOUND:                -0.530
REMARK SMILES O=C(NCCCCNc1c2c(nc3ccccc13)CCCC2)c1ccc(F)cc1
REMARK SMILES IDX 5 1 4 2 3 3 2 4 1 5 23 7 24 8 29 9 25 10 28 11 26 12 27 13
REMARK SMILES IDX 6 14 7 15 8 16 9 18 10 19 18 20 11 21 22 22 17 23 13 24
REMARK SMILES IDX 12 25 19 26 21 27 16 28 14 29 20 30 15 31
REMARK H PARENT 3 6 8 17
ROOT
ATOM      1  C   UNL     1     -15.942 -43.090  23.577  1.00  0.00     0.023 C 
ENDROOT
BRANCH   1   2
ATOM      2  C   UNL     1     -15.797 -43.172  25.066  1.00  0.00     0.116 C 
BRANCH   2   3
ATOM      3  N   UNL     1     -14.597 -43.823  25.517  1.00  0.00    -0.352 N 
ATOM      4  C   UNL     1     -14.333 -44.015  26.900  1.00  0.00     0.251 C 
ATOM      5  O   UNL     1     -15.224 -43.575  27.697  1.00  0.00    -0.269 OA
ATOM      6  H   UNL     1     -13.891 -44.169  24.807  1.00  0.00     0.163 HD
BRANCH   4   7
ATOM      7  C   UNL     1     -13.134 -44.668  27.407  1.00  0.00     0.040 A 
ATOM      8  C   UNL     1     -12.953 -46.034  27.409  1.00  0.00     0.017 A 
ATOM      9  C   UNL     1     -12.120 -43.885  27.913  1.00  0.00     0.017 A 
ATOM     10  C   UNL     1     -11.788 -46.587  27.906  1.00  0.00     0.040 A 
ATOM     11  C   UNL     1     -10.944 -44.417  28.417  1.00  0.00     0.040 A 
ATOM     12  C   UNL     1     -10.782 -45.787  28.410  1.00  0.00     0.123 A 
ATOM     13  F   UNL     1      -9.638 -46.352  28.899  1.00  0.00    -0.207 F 
ENDBRANCH   4   7
ENDBRANCH   2   3
ENDBRANCH   1   2
BRANCH   1  14
ATOM     14  C   UNL     1     -15.644 -41.640  23.188  1.00  0.00     0.023 C 
BRANCH  14  15
ATOM     15  C   UNL     1     -16.751 -41.090  22.318  1.00  0.00     0.113 C 
BRANCH  15  16
ATOM     16  N   UNL     1     -17.964 -41.877  22.435  1.00  0.00    -0.384 N 
ATOM     17  H   UNL     1     -17.976 -42.893  22.216  1.00  0.00     0.160 HD
BRANCH  16  18
ATOM     18  C   UNL     1     -19.178 -41.251  22.860  1.00  0.00     0.049 A 
ATOM     19  C   UNL     1     -19.688 -41.514  24.134  1.00  0.00    -0.003 A 
ATOM     20  C   UNL     1     -19.827 -40.394  21.999  1.00  0.00     0.024 A 
ATOM     21  C   UNL     1     -20.851 -40.859  24.451  1.00  0.00     0.046 A 
ATOM     22  C   UNL     1     -19.019 -42.344  25.077  1.00  0.00     0.039 C 
ATOM     23  C   UNL     1     -19.293 -40.162  20.752  1.00  0.00     0.012 A 
ATOM     24  C   UNL     1     -21.000 -39.763  22.358  1.00  0.00     0.073 A 
ATOM     25  N   UNL     1     -21.486 -40.014  23.585  1.00  0.00    -0.252 NA
ATOM     26  C   UNL     1     -21.319 -40.843  25.830  1.00  0.00     0.056 C 
ATOM     27  C   UNL     1     -19.802 -42.689  26.355  1.00  0.00     0.005 C 
ATOM     28  C   UNL     1     -19.909 -39.310  19.847  1.00  0.00     0.001 A 
ATOM     29  C   UNL     1     -21.628 -38.909  21.468  1.00  0.00     0.029 A 
ATOM     30  C   UNL     1     -20.344 -41.374  26.885  1.00  0.00     0.007 C 
ATOM     31  C   UNL     1     -21.092 -38.671  20.202  1.00  0.00     0.002 A 
ENDBRANCH  16  18
ENDBRANCH  15  16
ENDBRANCH  14  15
ENDBRANCH   1  14
TORSDOF 7
ENDMDL
MODEL 6
REMARK VINA RESULT:   -10.315      3.249      7.193
REMARK INTER + INTRA:         -15.066
REMARK INTER:                 -13.003
REMARK INTRA:                  -2.063
REMARK UNBOUND:                -0.530
REMARK SMILES O=C(NCCCCNc1c2c(nc3ccccc13)CCCC2)c1ccc(F)cc1
REMARK SMILES IDX 5 1 4 2 3 3 2 4 1 5 23 7 24 8 29 9 25 10 28 11 26 12 27 13
REMARK SMILES IDX 6 14 7 15 8 16 9 18 10 19 18 20 11 21 22 22 17 23 13 24
REMARK SMILES IDX 12 25 19 26 21 27 16 28 14 29 20 30 15 31
REMARK H PARENT 3 6 8 17
ROOT
ATOM      1  C   UNL     1     -13.973 -42.344  33.324  1.00  0.00     0.023 C 
ENDROOT
BRANCH   1   2
ATOM      2  C   UNL     1     -12.477 -42.408  33.256  1.00  0.00     0.116 C 
BRANCH   2   3
ATOM      3  N   UNL     1     -11.928 -42.226  31.940  1.00  0.00    -0.352 N 
ATOM      4  C   UNL     1     -10.719 -42.860  31.548  1.00  0.00     0.251 C 
ATOM      5  O   UNL     1     -10.166 -43.590  32.434  1.00  0.00    -0.269 OA
ATOM      6  H   UNL     1     -12.432 -41.606  31.245  1.00  0.00     0.163 HD
BRANCH   4   7
ATOM      7  C   UNL     1     -10.122 -42.707  30.228  1.00  0.00     0.040 A 
ATOM      8  C   UNL     1      -8.851 -43.137  29.912  1.00  0.00     0.017 A 
ATOM      9  C   UNL     1     -10.860 -42.101  29.235  1.00  0.00     0.017 A 
ATOM     10  C   UNL     1      -8.347 -42.960  28.638  1.00  0.00     0.040 A 
ATOM     11  C   UNL     1     -10.375 -41.912  27.951  1.00  0.00     0.040 A 
ATOM     12  C   UNL     1      -9.101 -42.350  27.655  1.00  0.00     0.123 A 
ATOM     13  F   UNL     1      -8.584 -42.182  26.401  1.00  0.00    -0.207 F 
ENDBRANCH   4   7
ENDBRANCH   2   3
ENDBRANCH   1   2
BRANCH   1  14
ATOM     14  C   UNL     1     -14.496 -43.012  32.051  1.00  0.00     0.023 C 
BRANCH  14  15
ATOM     15  C   UNL     1     -14.086 -44.467  32.012  1.00  0.00     0.113 C 
BRANCH  15  16
ATOM     16  N   UNL     1     -14.510 -45.109  30.783  1.00  0.00    -0.384 N 
ATOM     17  H   UNL     1     -15.350 -45.719  30.750  1.00  0.00     0.160 HD
BRANCH  16  18
ATOM     18  C   UNL     1     -13.762 -44.904  29.581  1.00  0.00     0.049 A 
ATOM     19  C   UNL     1     -12.452 -45.383  29.487  1.00  0.00    -0.003 A 
ATOM     20  C   UNL     1     -14.348 -44.233  28.531  1.00  0.00     0.024 A 
ATOM     21  C   UNL     1     -11.821 -45.145  28.292  1.00  0.00     0.046 A 
ATOM     22  C   UNL     1     -11.829 -46.135  30.523  1.00  0.00     0.039 C 
ATOM     23  C   UNL     1     -15.639 -43.775  28.664  1.00  0.00     0.012 A 
ATOM     24  C   UNL     1     -13.671 -44.008  27.351  1.00  0.00     0.073 A 
ATOM     25  N   UNL     1     -12.414 -44.474  27.261  1.00  0.00    -0.252 NA
ATOM     26  C   UNL     1     -10.572 -45.829  27.986  1.00  0.00     0.056 C 
ATOM     27  C   UNL     1     -10.328 -46.420  30.347  1.00  0.00     0.005 C 
ATOM     28  C   UNL     1     -16.274 -43.091  27.638  1.00  0.00     0.001 A 
ATOM     29  C   UNL     1     -14.290 -43.328  26.316  1.00  0.00     0.029 A 
ATOM     30  C   UNL     1     -10.163 -46.957  28.936  1.00  0.00     0.007 C 
ATOM     31  C   UNL     1     -15.598 -42.861  26.446  1.00  0.00     0.002 A 
ENDBRANCH  16  18
ENDBRANCH  15  16
ENDBRANCH  14  15
ENDBRANCH   1  14
TORSDOF 7
ENDMDL
MODEL 7
REMARK VINA RESULT:    -9.748      4.288     10.692
REMARK INTER + INTRA:         -14.267
REMARK INTER:                 -13.673
REMARK INTRA:                  -0.593
REMARK UNBOUND:                -0.530
REMARK SMILES O=C(NCCCCNc1c2c(nc3ccccc13)CCCC2)c1ccc(F)cc1
REMARK SMILES IDX 5 1 4 2 3 3 2 4 1 5 23 7 24 8 29 9 25 10 28 11 26 12 27 13
REMARK SMILES IDX 6 14 7 15 8 16 9 18 10 19 18 20 11 21 22 22 17 23 13 24
REMARK SMILES IDX 12 25 19 26 21 27 16 28 14 29 20 30 15 31
REMARK H PARENT 3 6 8 17
ROOT
ATOM      1  C   UNL     1     -15.331 -42.075  23.698  1.00  0.00     0.023 C 
ENDROOT
BRANCH   1   2
ATOM      2  C   UNL     1     -15.202 -42.147  25.189  1.00  0.00     0.116 C 
BRANCH   2   3
ATOM      3  N   UNL     1     -14.071 -42.901  25.658  1.00  0.00    -0.352 N 
ATOM      4  C   UNL     1     -14.114 -43.617  26.883  1.00  0.00     0.251 C 
ATOM      5  O   UNL     1     -15.212 -43.544  27.526  1.00  0.00    -0.269 OA
ATOM      6  H   UNL     1     -13.183 -42.925  25.080  1.00  0.00     0.163 HD
BRANCH   4   7
ATOM      7  C   UNL     1     -12.996 -44.394  27.401  1.00  0.00     0.040 A 
ATOM      8  C   UNL     1     -11.906 -43.833  28.033  1.00  0.00     0.017 A 
ATOM      9  C   UNL     1     -13.019 -45.763  27.257  1.00  0.00     0.017 A 
ATOM     10  C   UNL     1     -10.879 -44.630  28.501  1.00  0.00     0.040 A 
ATOM     11  C   UNL     1     -12.001 -46.583  27.717  1.00  0.00     0.040 A 
ATOM     12  C   UNL     1     -10.920 -46.002  28.347  1.00  0.00     0.123 A 
ATOM     13  F   UNL     1      -9.894 -46.773  28.815  1.00  0.00    -0.207 F 
ENDBRANCH   4   7
ENDBRANCH   2   3
ENDBRANCH   1   2
BRANCH   1  14
ATOM     14  C   UNL     1     -16.581 -42.875  23.328  1.00  0.00     0.023 C 
BRANCH  14  15
ATOM     15  C   UNL     1     -17.663 -42.672  24.366  1.00  0.00     0.113 C 
BRANCH  15  16
ATOM     16  N   UNL     1     -18.943 -43.177  23.908  1.00  0.00    -0.384 N 
ATOM     17  H   UNL     1     -19.012 -44.026  23.313  1.00  0.00     0.160 HD
BRANCH  16  18
ATOM     18  C   UNL     1     -20.146 -42.498  24.278  1.00  0.00     0.049 A 
ATOM     19  C   UNL     1     -20.509 -41.318  23.623  1.00  0.00    -0.003 A 
ATOM     20  C   UNL     1     -20.931 -43.022  25.282  1.00  0.00     0.024 A 
ATOM     21  C   UNL     1     -21.684 -40.746  24.044  1.00  0.00     0.046 A 
ATOM     22  C   UNL     1     -19.762 -40.775  22.540  1.00  0.00     0.039 C 
ATOM     23  C   UNL     1     -20.538 -44.184  25.904  1.00  0.00     0.012 A 
ATOM     24  C   UNL     1     -22.100 -42.407  25.678  1.00  0.00     0.073 A 
ATOM     25  N   UNL     1     -22.449 -41.275  25.043  1.00  0.00    -0.252 NA
ATOM     26  C   UNL     1     -22.292 -39.682  23.257  1.00  0.00     0.056 C 
ATOM     27  C   UNL     1     -20.181 -39.376  22.058  1.00  0.00     0.005 C 
ATOM     28  C   UNL     1     -21.291 -44.751  26.922  1.00  0.00     0.001 A 
ATOM     29  C   UNL     1     -22.864 -42.959  26.691  1.00  0.00     0.029 A 
ATOM     30  C   UNL     1     -21.687 -39.429  21.873  1.00  0.00     0.007 C 
ATOM     31  C   UNL     1     -22.470 -44.137  27.326  1.00  0.00     0.002 A 
ENDBRANCH  16  18
ENDBRANCH  15  16
ENDBRANCH  14  15
ENDBRANCH   1  14
TORSDOF 7
ENDMDL
MODEL 8
REMARK VINA RESULT:    -9.738      6.689     11.186
REMARK INTER + INTRA:         -14.252
REMARK INTER:                 -13.532
REMARK INTRA:                  -0.721
REMARK UNBOUND:                -0.530
REMARK SMILES O=C(NCCCCNc1c2c(nc3ccccc13)CCCC2)c1ccc(F)cc1
REMARK SMILES IDX 5 1 4 2 3 3 2 4 1 5 23 7 24 8 29 9 25 10 28 11 26 12 27 13
REMARK SMILES IDX 6 14 7 15 8 16 9 18 10 19 18 20 11 21 22 22 17 23 13 24
REMARK SMILES IDX 12 25 19 26 21 27 16 28 14 29 20 30 15 31
REMARK H PARENT 3 6 8 17
ROOT
ATOM      1  C   UNL     1     -19.900 -38.990  21.684  1.00  0.00     0.023 C 
ENDROOT
BRANCH   1   2
ATOM      2  C   UNL     1     -21.375 -39.111  21.450  1.00  0.00     0.116 C 
BRANCH   2   3
ATOM      3  N   UNL     1     -21.942 -38.062  20.647  1.00  0.00    -0.352 N 
ATOM      4  C   UNL     1     -22.409 -38.309  19.328  1.00  0.00     0.251 C 
ATOM      5  O   UNL     1     -22.289 -39.509  18.917  1.00  0.00    -0.269 OA
ATOM      6  H   UNL     1     -22.015 -37.082  21.042  1.00  0.00     0.163 HD
BRANCH   4   7
ATOM      7  C   UNL     1     -22.990 -37.281  18.475  1.00  0.00     0.040 A 
ATOM      8  C   UNL     1     -22.879 -37.279  17.101  1.00  0.00     0.017 A 
ATOM      9  C   UNL     1     -23.690 -36.251  19.064  1.00  0.00     0.017 A 
ATOM     10  C   UNL     1     -23.457 -36.271  16.352  1.00  0.00     0.040 A 
ATOM     11  C   UNL     1     -24.277 -35.230  18.334  1.00  0.00     0.040 A 
ATOM     12  C   UNL     1     -24.154 -35.247  16.960  1.00  0.00     0.123 A 
ATOM     13  F   UNL     1     -24.717 -34.259  16.202  1.00  0.00    -0.207 F 
ENDBRANCH   4   7
ENDBRANCH   2   3
ENDBRANCH   1   2
BRANCH   1  14
ATOM     14  C   UNL     1     -19.258 -40.240  21.078  1.00  0.00     0.023 C 
BRANCH  14  15
ATOM     15  C   UNL     1     -18.126 -40.729  21.953  1.00  0.00     0.113 C 
BRANCH  15  16
ATOM     16  N   UNL     1     -18.459 -41.980  22.608  1.00  0.00    -0.384 N 
ATOM     17  H   UNL     1     -18.863 -42.779  22.080  1.00  0.00     0.160 HD
BRANCH  16  18
ATOM     18  C   UNL     1     -18.231 -42.127  24.012  1.00  0.00     0.049 A 
ATOM     19  C   UNL     1     -17.017 -42.647  24.469  1.00  0.00    -0.003 A 
ATOM     20  C   UNL     1     -19.218 -41.752  24.896  1.00  0.00     0.024 A 
ATOM     21  C   UNL     1     -16.890 -42.741  25.832  1.00  0.00     0.046 A 
ATOM     22  C   UNL     1     -15.946 -42.990  23.595  1.00  0.00     0.039 C 
ATOM     23  C   UNL     1     -20.400 -41.245  24.406  1.00  0.00     0.012 A 
ATOM     24  C   UNL     1     -19.050 -41.873  26.259  1.00  0.00     0.073 A 
ATOM     25  N   UNL     1     -17.880 -42.369  26.696  1.00  0.00    -0.252 NA
ATOM     26  C   UNL     1     -15.584 -43.007  26.420  1.00  0.00     0.056 C 
ATOM     27  C   UNL     1     -14.758 -43.729  24.233  1.00  0.00     0.005 C 
ATOM     28  C   UNL     1     -21.427 -40.855  25.253  1.00  0.00     0.001 A 
ATOM     29  C   UNL     1     -20.063 -41.487  27.119  1.00  0.00     0.029 A 
ATOM     30  C   UNL     1     -14.384 -42.934  25.472  1.00  0.00     0.007 C 
ATOM     31  C   UNL     1     -21.264 -40.974  26.628  1.00  0.00     0.002 A 
ENDBRANCH  16  18
ENDBRANCH  15  16
ENDBRANCH  14  15
ENDBRANCH   1  14
TORSDOF 7
ENDMDL
MODEL 9
REMARK VINA RESULT:    -9.543      4.419     11.223
REMARK INTER + INTRA:         -13.977
REMARK INTER:                 -13.327
REMARK INTRA:                  -0.650
REMARK UNBOUND:                -0.530
REMARK SMILES O=C(NCCCCNc1c2c(nc3ccccc13)CCCC2)c1ccc(F)cc1
REMARK SMILES IDX 5 1 4 2 3 3 2 4 1 5 23 7 24 8 29 9 25 10 28 11 26 12 27 13
REMARK SMILES IDX 6 14 7 15 8 16 9 18 10 19 18 20 11 21 22 22 17 23 13 24
REMARK SMILES IDX 12 25 19 26 21 27 16 28 14 29 20 30 15 31
REMARK H PARENT 3 6 8 17
ROOT
ATOM      1  C   UNL     1     -17.260 -43.006  24.482  1.00  0.00     0.023 C 
ENDROOT
BRANCH   1   2
ATOM      2  C   UNL     1     -15.807 -42.640  24.466  1.00  0.00     0.116 C 
BRANCH   2   3
ATOM      3  N   UNL     1     -14.936 -43.617  25.060  1.00  0.00    -0.352 N 
ATOM      4  C   UNL     1     -14.234 -43.348  26.266  1.00  0.00     0.251 C 
ATOM      5  O   UNL     1     -14.431 -42.196  26.773  1.00  0.00    -0.269 OA
ATOM      6  H   UNL     1     -14.810 -44.559  24.593  1.00  0.00     0.163 HD
BRANCH   4   7
ATOM      7  C   UNL     1     -13.340 -44.304  26.906  1.00  0.00     0.040 A 
ATOM      8  C   UNL     1     -13.431 -45.668  26.732  1.00  0.00     0.017 A 
ATOM      9  C   UNL     1     -12.346 -43.827  27.732  1.00  0.00     0.017 A 
ATOM     10  C   UNL     1     -12.548 -46.518  27.371  1.00  0.00     0.040 A 
ATOM     11  C   UNL     1     -11.450 -44.659  28.384  1.00  0.00     0.040 A 
ATOM     12  C   UNL     1     -11.558 -46.022  28.196  1.00  0.00     0.123 A 
ATOM     13  F   UNL     1     -10.695 -46.878  28.820  1.00  0.00    -0.207 F 
ENDBRANCH   4   7
ENDBRANCH   2   3
ENDBRANCH   1   2
BRANCH   1  14
ATOM     14  C   UNL     1     -17.796 -42.606  25.858  1.00  0.00     0.023 C 
BRANCH  14  15
ATOM     15  C   UNL     1     -18.964 -41.657  25.714  1.00  0.00     0.113 C 
BRANCH  15  16
ATOM     16  N   UNL     1     -19.857 -42.068  24.646  1.00  0.00    -0.384 N 
ATOM     17  H   UNL     1     -19.825 -43.028  24.250  1.00  0.00     0.160 HD
BRANCH  16  18
ATOM     18  C   UNL     1     -20.806 -41.137  24.118  1.00  0.00     0.049 A 
ATOM     19  C   UNL     1     -21.980 -40.865  24.826  1.00  0.00    -0.003 A 
ATOM     20  C   UNL     1     -20.545 -40.522  22.914  1.00  0.00     0.024 A 
ATOM     21  C   UNL     1     -22.822 -39.952  24.242  1.00  0.00     0.046 A 
ATOM     22  C   UNL     1     -22.262 -41.429  26.102  1.00  0.00     0.039 C 
ATOM     23  C   UNL     1     -19.378 -40.819  22.247  1.00  0.00     0.012 A 
ATOM     24  C   UNL     1     -21.426 -39.617  22.361  1.00  0.00     0.073 A 
ATOM     25  N   UNL     1     -22.551 -39.353  23.045  1.00  0.00    -0.252 NA
ATOM     26  C   UNL     1     -23.926 -39.393  25.010  1.00  0.00     0.056 C 
ATOM     27  C   UNL     1     -23.675 -41.185  26.657  1.00  0.00     0.005 C 
ATOM     28  C   UNL     1     -19.069 -40.229  21.030  1.00  0.00     0.001 A 
ATOM     29  C   UNL     1     -21.133 -39.019  21.148  1.00  0.00     0.029 A 
ATOM     30  C   UNL     1     -23.933 -39.695  26.511  1.00  0.00     0.007 C 
ATOM     31  C   UNL     1     -19.952 -39.317  20.467  1.00  0.00     0.002 A 
ENDBRANCH  16  18
ENDBRANCH  15  16
ENDBRANCH  14  15
ENDBRANCH   1  14
TORSDOF 7
ENDMDL
