MODEL 1
REMARK VINA RESULT:   -13.164      0.000      0.000
REMARK INTER + INTRA:         -17.588
REMARK INTER:                 -17.012
REMARK INTRA:                  -0.577
REMARK UNBOUND:                -0.577
REMARK SMILES O=C1CNc2cc3onc(CC[C@H]4CC[N@H+](Cc5ccccc5)CC4)c3cc2C1
REMARK SMILES IDX 12 1 13 2 15 3 16 4 14 5 24 6 25 7 17 9 18 10 19 11 23 12
REMARK SMILES IDX 20 13 22 14 21 15 11 16 10 17 9 18 26 19 8 20 27 21 7 22
REMARK SMILES IDX 28 23 6 24 29 25 5 26 2 27 4 28 3 29 1 30
REMARK H PARENT 16 8 4 31
ROOT
ATOM      1  C   UNL     1     -13.724 -45.387  26.430  1.00  0.00     0.010 C 
ENDROOT
BRANCH   1   2
ATOM      2  C   UNL     1     -13.135 -45.913  27.756  1.00  0.00     0.000 C 
ATOM      3  C   UNL     1     -12.911 -45.596  30.252  1.00  0.00     0.262 C 
ATOM      4  N   UNL     1     -11.412 -45.675  30.113  1.00  0.00    -0.331 N 
ATOM      5  C   UNL     1     -13.518 -45.050  28.966  1.00  0.00     0.065 C 
ATOM      6  C   UNL     1     -10.993 -46.544  28.951  1.00  0.00     0.262 C 
ATOM      7  C   UNL     1     -11.605 -46.010  27.662  1.00  0.00     0.065 C 
ATOM      8  H   UNL     1     -11.065 -44.728  29.922  1.00  0.00     0.348 HD
BRANCH   4   9
ATOM      9  C   UNL     1     -10.766 -46.098  31.417  1.00  0.00     0.299 C 
BRANCH   9  10
ATOM     10  C   UNL     1      -9.532 -45.305  31.749  1.00  0.00     0.006 A 
ATOM     11  C   UNL     1      -9.636 -44.030  32.326  1.00  0.00     0.009 A 
ATOM     12  C   UNL     1      -8.256 -45.839  31.506  1.00  0.00     0.009 A 
ATOM     13  C   UNL     1      -8.489 -43.309  32.659  1.00  0.00     0.001 A 
ATOM     14  C   UNL     1      -7.112 -45.113  31.839  1.00  0.00     0.001 A 
ATOM     15  C   UNL     1      -7.229 -43.851  32.417  1.00  0.00     0.000 A 
ENDBRANCH   9  10
ENDBRANCH   4   9
ENDBRANCH   1   2
BRANCH   1  16
ATOM     16  C   UNL     1     -13.946 -43.868  26.353  1.00  0.00     0.061 C 
BRANCH  16  17
ATOM     17  C   UNL     1     -14.865 -43.449  25.257  1.00  0.00     0.091 A 
ATOM     18  N   UNL     1     -14.457 -43.515  23.981  1.00  0.00    -0.084 NA
ATOM     19  C   UNL     1     -16.194 -42.963  25.355  1.00  0.00     0.045 A 
ATOM     20  O   UNL     1     -15.532 -43.077  23.222  1.00  0.00    -0.356 OA
ATOM     21  C   UNL     1     -17.129 -42.700  26.367  1.00  0.00     0.020 A 
ATOM     22  C   UNL     1     -16.565 -42.749  24.043  1.00  0.00     0.169 A 
ATOM     23  C   UNL     1     -18.410 -42.219  26.006  1.00  0.00    -0.016 A 
ATOM     24  C   UNL     1     -17.813 -42.276  23.646  1.00  0.00     0.076 A 
ATOM     25  C   UNL     1     -19.420 -42.002  27.108  1.00  0.00     0.115 C 
ATOM     26  C   UNL     1     -18.737 -41.973  24.658  1.00  0.00     0.042 A 
ATOM     27  C   UNL     1     -20.762 -41.510  26.633  1.00  0.00     0.156 C 
ATOM     28  N   UNL     1     -20.025 -41.571  24.288  1.00  0.00    -0.378 N 
ATOM     29  C   UNL     1     -20.796 -40.830  25.285  1.00  0.00     0.189 C 
ATOM     30  O   UNL     1     -21.750 -41.547  27.371  1.00  0.00    -0.297 OA
ATOM     31  H   UNL     1     -20.068 -41.148  23.363  1.00  0.00     0.161 HD
ENDBRANCH  16  17
ENDBRANCH   1  16
TORSDOF 5
ENDMDL
MODEL 2
REMARK VINA RESULT:   -12.545      1.678      2.171
REMARK INTER + INTRA:         -16.789
REMARK INTER:                 -16.355
REMARK INTRA:                  -0.434
REMARK UNBOUND:                -0.577
REMARK SMILES O=C1CNc2cc3onc(CC[C@H]4CC[N@H+](Cc5ccccc5)CC4)c3cc2C1
REMARK SMILES IDX 12 1 13 2 15 3 16 4 14 5 24 6 25 7 17 9 18 10 19 11 23 12
REMARK SMILES IDX 20 13 22 14 21 15 11 16 10 17 9 18 26 19 8 20 27 21 7 22
REMARK SMILES IDX 28 23 6 24 29 25 5 26 2 27 4 28 3 29 1 30
REMARK H PARENT 16 8 4 31
ROOT
ATOM      1  C   UNL     1     -14.154 -44.680  26.157  1.00  0.00     0.010 C 
ENDROOT
BRANCH   1   2
ATOM      2  C   UNL     1     -13.720 -45.313  27.496  1.00  0.00     0.000 C 
ATOM      3  C   UNL     1     -13.610 -45.095  30.010  1.00  0.00     0.262 C 
ATOM      4  N   UNL     1     -12.127 -45.364  29.955  1.00  0.00    -0.331 N 
ATOM      5  C   UNL     1     -14.062 -44.441  28.711  1.00  0.00     0.065 C 
ATOM      6  C   UNL     1     -11.753 -46.249  28.790  1.00  0.00     0.262 C 
ATOM      7  C   UNL     1     -12.212 -45.605  27.486  1.00  0.00     0.065 C 
ATOM      8  H   UNL     1     -11.651 -44.465  29.816  1.00  0.00     0.348 HD
BRANCH   4   9
ATOM      9  C   UNL     1     -11.623 -45.902  31.279  1.00  0.00     0.299 C 
BRANCH   9  10
ATOM     10  C   UNL     1     -10.165 -45.618  31.514  1.00  0.00     0.006 A 
ATOM     11  C   UNL     1      -9.190 -46.573  31.188  1.00  0.00     0.009 A 
ATOM     12  C   UNL     1      -9.756 -44.383  32.043  1.00  0.00     0.009 A 
ATOM     13  C   UNL     1      -7.836 -46.296  31.380  1.00  0.00     0.001 A 
ATOM     14  C   UNL     1      -8.401 -44.111  32.235  1.00  0.00     0.001 A 
ATOM     15  C   UNL     1      -7.443 -45.066  31.902  1.00  0.00     0.000 A 
ENDBRANCH   9  10
ENDBRANCH   4   9
ENDBRANCH   1   2
BRANCH   1  16
ATOM     16  C   UNL     1     -15.160 -43.524  26.260  1.00  0.00     0.061 C 
BRANCH  16  17
ATOM     17  C   UNL     1     -15.323 -42.753  24.994  1.00  0.00     0.091 A 
ATOM     18  N   UNL     1     -14.239 -42.327  24.327  1.00  0.00    -0.084 NA
ATOM     19  C   UNL     1     -16.521 -42.379  24.334  1.00  0.00     0.045 A 
ATOM     20  O   UNL     1     -14.724 -41.669  23.207  1.00  0.00    -0.356 OA
ATOM     21  C   UNL     1     -17.902 -42.539  24.524  1.00  0.00     0.020 A 
ATOM     22  C   UNL     1     -16.083 -41.702  23.213  1.00  0.00     0.169 A 
ATOM     23  C   UNL     1     -18.790 -41.996  23.566  1.00  0.00    -0.016 A 
ATOM     24  C   UNL     1     -16.924 -41.151  22.250  1.00  0.00     0.076 A 
ATOM     25  C   UNL     1     -20.269 -42.235  23.759  1.00  0.00     0.115 C 
ATOM     26  C   UNL     1     -18.307 -41.275  22.456  1.00  0.00     0.042 A 
ATOM     27  C   UNL     1     -21.140 -41.641  22.683  1.00  0.00     0.156 C 
ATOM     28  N   UNL     1     -19.175 -40.802  21.467  1.00  0.00    -0.378 N 
ATOM     29  C   UNL     1     -20.547 -40.508  21.879  1.00  0.00     0.189 C 
ATOM     30  O   UNL     1     -22.320 -41.979  22.562  1.00  0.00    -0.297 OA
ATOM     31  H   UNL     1     -18.771 -40.066  20.891  1.00  0.00     0.161 HD
ENDBRANCH  16  17
ENDBRANCH   1  16
TORSDOF 5
ENDMDL
MODEL 3
REMARK VINA RESULT:   -12.471      3.718      8.896
REMARK INTER + INTRA:         -16.693
REMARK INTER:                 -16.173
REMARK INTRA:                  -0.520
REMARK UNBOUND:                -0.577
REMARK SMILES O=C1CNc2cc3onc(CC[C@H]4CC[N@H+](Cc5ccccc5)CC4)c3cc2C1
REMARK SMILES IDX 12 1 13 2 15 3 16 4 14 5 24 6 25 7 17 9 18 10 19 11 23 12
REMARK SMILES IDX 20 13 22 14 21 15 11 16 10 17 9 18 26 19 8 20 27 21 7 22
REMARK SMILES IDX 28 23 6 24 29 25 5 26 2 27 4 28 3 29 1 30
REMARK H PARENT 16 8 4 31
ROOT
ATOM      1  C   UNL     1     -11.148 -46.094  29.770  1.00  0.00     0.010 C 
ENDROOT
BRANCH   1   2
ATOM      2  C   UNL     1     -11.667 -45.406  28.489  1.00  0.00     0.000 C 
ATOM      3  C   UNL     1     -12.068 -43.236  27.260  1.00  0.00     0.262 C 
ATOM      4  N   UNL     1     -13.506 -43.639  27.048  1.00  0.00    -0.331 N 
ATOM      5  C   UNL     1     -11.538 -43.877  28.536  1.00  0.00     0.065 C 
ATOM      6  C   UNL     1     -13.671 -45.137  26.963  1.00  0.00     0.262 C 
ATOM      7  C   UNL     1     -13.132 -45.787  28.233  1.00  0.00     0.065 C 
ATOM      8  H   UNL     1     -14.043 -43.321  27.864  1.00  0.00     0.348 HD
BRANCH   4   9
ATOM      9  C   UNL     1     -14.102 -42.920  25.854  1.00  0.00     0.299 C 
BRANCH   9  10
ATOM     10  C   UNL     1     -15.589 -42.727  25.963  1.00  0.00     0.006 A 
ATOM     11  C   UNL     1     -16.397 -42.737  24.816  1.00  0.00     0.009 A 
ATOM     12  C   UNL     1     -16.194 -42.555  27.219  1.00  0.00     0.009 A 
ATOM     13  C   UNL     1     -17.780 -42.586  24.923  1.00  0.00     0.001 A 
ATOM     14  C   UNL     1     -17.578 -42.403  27.321  1.00  0.00     0.001 A 
ATOM     15  C   UNL     1     -18.369 -42.421  26.174  1.00  0.00     0.000 A 
ENDBRANCH   9  10
ENDBRANCH   4   9
ENDBRANCH   1   2
BRANCH   1  16
ATOM     16  C   UNL     1      -9.713 -45.738  30.185  1.00  0.00     0.061 C 
BRANCH  16  17
ATOM     17  C   UNL     1      -9.636 -44.776  31.322  1.00  0.00     0.091 A 
ATOM     18  N   UNL     1      -8.447 -44.487  31.873  1.00  0.00    -0.084 NA
ATOM     19  C   UNL     1     -10.689 -44.064  31.951  1.00  0.00     0.045 A 
ATOM     20  O   UNL     1      -8.714 -43.566  32.875  1.00  0.00    -0.356 OA
ATOM     21  C   UNL     1     -12.081 -43.940  31.818  1.00  0.00     0.020 A 
ATOM     22  C   UNL     1     -10.050 -43.316  32.919  1.00  0.00     0.169 A 
ATOM     23  C   UNL     1     -12.773 -43.061  32.683  1.00  0.00    -0.016 A 
ATOM     24  C   UNL     1     -10.695 -42.442  33.790  1.00  0.00     0.076 A 
ATOM     25  C   UNL     1     -14.261 -42.897  32.480  1.00  0.00     0.115 C 
ATOM     26  C   UNL     1     -12.091 -42.345  33.687  1.00  0.00     0.042 A 
ATOM     27  C   UNL     1     -14.915 -41.928  33.429  1.00  0.00     0.156 C 
ATOM     28  N   UNL     1     -12.758 -41.418  34.495  1.00  0.00    -0.378 N 
ATOM     29  C   UNL     1     -14.184 -41.647  34.721  1.00  0.00     0.189 C 
ATOM     30  O   UNL     1     -16.050 -41.494  33.214  1.00  0.00    -0.297 OA
ATOM     31  H   UNL     1     -12.256 -41.190  35.350  1.00  0.00     0.161 HD
ENDBRANCH  16  17
ENDBRANCH   1  16
TORSDOF 5
ENDMDL
MODEL 4
REMARK VINA RESULT:   -12.401      1.175      1.800
REMARK INTER + INTRA:         -16.602
REMARK INTER:                 -16.325
REMARK INTRA:                  -0.277
REMARK UNBOUND:                -0.577
REMARK SMILES O=C1CNc2cc3onc(CC[C@H]4CC[N@H+](Cc5ccccc5)CC4)c3cc2C1
REMARK SMILES IDX 12 1 13 2 15 3 16 4 14 5 24 6 25 7 17 9 18 10 19 11 23 12
REMARK SMILES IDX 20 13 22 14 21 15 11 16 10 17 9 18 26 19 8 20 27 21 7 22
REMARK SMILES IDX 28 23 6 24 29 25 5 26 2 27 4 28 3 29 1 30
REMARK H PARENT 16 8 4 31
ROOT
ATOM      1  C   UNL     1     -14.188 -44.281  25.858  1.00  0.00     0.010 C 
ENDROOT
BRANCH   1   2
ATOM      2  C   UNL     1     -13.539 -44.575  27.227  1.00  0.00     0.000 C 
ATOM      3  C   UNL     1     -12.304 -46.234  28.677  1.00  0.00     0.262 C 
ATOM      4  N   UNL     1     -13.346 -46.049  29.752  1.00  0.00    -0.331 N 
ATOM      5  C   UNL     1     -12.926 -45.980  27.311  1.00  0.00     0.065 C 
ATOM      6  C   UNL     1     -13.951 -44.666  29.725  1.00  0.00     0.262 C 
ATOM      7  C   UNL     1     -14.566 -44.400  28.356  1.00  0.00     0.065 C 
ATOM      8  H   UNL     1     -14.106 -46.715  29.569  1.00  0.00     0.348 HD
BRANCH   4   9
ATOM      9  C   UNL     1     -12.793 -46.415  31.115  1.00  0.00     0.299 C 
BRANCH   9  10
ATOM     10  C   UNL     1     -11.457 -45.784  31.398  1.00  0.00     0.006 A 
ATOM     11  C   UNL     1     -11.377 -44.476  31.900  1.00  0.00     0.009 A 
ATOM     12  C   UNL     1     -10.270 -46.504  31.183  1.00  0.00     0.009 A 
ATOM     13  C   UNL     1     -10.137 -43.904  32.189  1.00  0.00     0.001 A 
ATOM     14  C   UNL     1      -9.033 -45.926  31.471  1.00  0.00     0.001 A 
ATOM     15  C   UNL     1      -8.967 -44.630  31.975  1.00  0.00     0.000 A 
ENDBRANCH   9  10
ENDBRANCH   4   9
ENDBRANCH   1   2
BRANCH   1  16
ATOM     16  C   UNL     1     -14.848 -42.901  25.715  1.00  0.00     0.061 C 
BRANCH  16  17
ATOM     17  C   UNL     1     -15.980 -42.872  24.745  1.00  0.00     0.091 A 
ATOM     18  N   UNL     1     -15.778 -43.249  23.473  1.00  0.00    -0.084 NA
ATOM     19  C   UNL     1     -17.328 -42.491  24.968  1.00  0.00     0.045 A 
ATOM     20  O   UNL     1     -17.010 -43.124  22.847  1.00  0.00    -0.356 OA
ATOM     21  C   UNL     1     -18.113 -42.041  26.041  1.00  0.00     0.020 A 
ATOM     22  C   UNL     1     -17.931 -42.673  23.740  1.00  0.00     0.169 A 
ATOM     23  C   UNL     1     -19.487 -41.786  25.820  1.00  0.00    -0.016 A 
ATOM     24  C   UNL     1     -19.277 -42.431  23.482  1.00  0.00     0.076 A 
ATOM     25  C   UNL     1     -20.325 -41.362  27.003  1.00  0.00     0.115 C 
ATOM     26  C   UNL     1     -20.057 -41.943  24.542  1.00  0.00     0.042 A 
ATOM     27  C   UNL     1     -21.778 -41.131  26.685  1.00  0.00     0.156 C 
ATOM     28  N   UNL     1     -21.429 -41.765  24.335  1.00  0.00    -0.378 N 
ATOM     29  C   UNL     1     -22.119 -40.848  25.240  1.00  0.00     0.189 C 
ATOM     30  O   UNL     1     -22.621 -41.048  27.582  1.00  0.00    -0.297 OA
ATOM     31  H   UNL     1     -21.676 -41.614  23.359  1.00  0.00     0.161 HD
ENDBRANCH  16  17
ENDBRANCH   1  16
TORSDOF 5
ENDMDL
MODEL 5
REMARK VINA RESULT:   -11.731      1.990      2.494
REMARK INTER + INTRA:         -15.736
REMARK INTER:                 -15.491
REMARK INTRA:                  -0.246
REMARK UNBOUND:                -0.577
REMARK SMILES O=C1CNc2cc3onc(CC[C@H]4CC[N@H+](Cc5ccccc5)CC4)c3cc2C1
REMARK SMILES IDX 12 1 13 2 15 3 16 4 14 5 24 6 25 7 17 9 18 10 19 11 23 12
REMARK SMILES IDX 20 13 22 14 21 15 11 16 10 17 9 18 26 19 8 20 27 21 7 22
REMARK SMILES IDX 28 23 6 24 29 25 5 26 2 27 4 28 3 29 1 30
REMARK H PARENT 16 8 4 31
ROOT
ATOM      1  C   UNL     1     -13.334 -43.189  26.576  1.00  0.00     0.010 C 
ENDROOT
BRANCH   1   2
ATOM      2  C   UNL     1     -12.490 -44.149  27.441  1.00  0.00     0.000 C 
ATOM      3  C   UNL     1     -12.475 -45.989  29.171  1.00  0.00     0.262 C 
ATOM      4  N   UNL     1     -11.531 -45.169  30.014  1.00  0.00    -0.331 N 
ATOM      5  C   UNL     1     -13.344 -45.065  28.328  1.00  0.00     0.065 C 
ATOM      6  C   UNL     1     -10.648 -44.277  29.175  1.00  0.00     0.262 C 
ATOM      7  C   UNL     1     -11.511 -43.356  28.320  1.00  0.00     0.065 C 
ATOM      8  H   UNL     1     -12.097 -44.557  30.613  1.00  0.00     0.348 HD
BRANCH   4   9
ATOM      9  C   UNL     1     -10.737 -46.053  30.956  1.00  0.00     0.299 C 
BRANCH   9  10
ATOM     10  C   UNL     1      -9.495 -45.387  31.483  1.00  0.00     0.006 A 
ATOM     11  C   UNL     1      -9.574 -44.156  32.153  1.00  0.00     0.009 A 
ATOM     12  C   UNL     1      -8.241 -45.999  31.330  1.00  0.00     0.009 A 
ATOM     13  C   UNL     1      -8.424 -43.556  32.666  1.00  0.00     0.001 A 
ATOM     14  C   UNL     1      -7.093 -45.393  31.843  1.00  0.00     0.001 A 
ATOM     15  C   UNL     1      -7.186 -44.175  32.512  1.00  0.00     0.000 A 
ENDBRANCH   9  10
ENDBRANCH   4   9
ENDBRANCH   1   2
BRANCH   1  16
ATOM     16  C   UNL     1     -14.606 -43.790  25.958  1.00  0.00     0.061 C 
BRANCH  16  17
ATOM     17  C   UNL     1     -15.868 -43.184  26.468  1.00  0.00     0.091 A 
ATOM     18  N   UNL     1     -16.030 -42.988  27.786  1.00  0.00    -0.084 NA
ATOM     19  C   UNL     1     -16.999 -42.744  25.734  1.00  0.00     0.045 A 
ATOM     20  O   UNL     1     -17.281 -42.405  27.926  1.00  0.00    -0.356 OA
ATOM     21  C   UNL     1     -17.399 -42.674  24.390  1.00  0.00     0.020 A 
ATOM     22  C   UNL     1     -17.855 -42.260  26.702  1.00  0.00     0.169 A 
ATOM     23  C   UNL     1     -18.663 -42.118  24.083  1.00  0.00    -0.016 A 
ATOM     24  C   UNL     1     -19.106 -41.709  26.441  1.00  0.00     0.076 A 
ATOM     25  C   UNL     1     -19.045 -41.997  22.626  1.00  0.00     0.115 C 
ATOM     26  C   UNL     1     -19.526 -41.673  25.103  1.00  0.00     0.042 A 
ATOM     27  C   UNL     1     -20.396 -41.376  22.388  1.00  0.00     0.156 C 
ATOM     28  N   UNL     1     -20.744 -41.054  24.800  1.00  0.00    -0.378 N 
ATOM     29  C   UNL     1     -21.377 -41.425  23.536  1.00  0.00     0.189 C 
ATOM     30  O   UNL     1     -20.721 -40.970  21.269  1.00  0.00    -0.297 OA
ATOM     31  H   UNL     1     -21.398 -41.044  25.580  1.00  0.00     0.161 HD
ENDBRANCH  16  17
ENDBRANCH   1  16
TORSDOF 5
ENDMDL
MODEL 6
REMARK VINA RESULT:   -11.377      3.336      9.958
REMARK INTER + INTRA:         -15.280
REMARK INTER:                 -14.911
REMARK INTRA:                  -0.369
REMARK UNBOUND:                -0.577
REMARK SMILES O=C1CNc2cc3onc(CC[C@H]4CC[N@H+](Cc5ccccc5)CC4)c3cc2C1
REMARK SMILES IDX 12 1 13 2 15 3 16 4 14 5 24 6 25 7 17 9 18 10 19 11 23 12
REMARK SMILES IDX 20 13 22 14 21 15 11 16 10 17 9 18 26 19 8 20 27 21 7 22
REMARK SMILES IDX 28 23 6 24 29 25 5 26 2 27 4 28 3 29 1 30
REMARK H PARENT 16 8 4 31
ROOT
ATOM      1  C   UNL     1     -12.869 -46.211  27.236  1.00  0.00     0.010 C 
ENDROOT
BRANCH   1   2
ATOM      2  C   UNL     1     -13.485 -44.965  26.564  1.00  0.00     0.000 C 
ATOM      3  C   UNL     1     -15.123 -43.050  26.742  1.00  0.00     0.262 C 
ATOM      4  N   UNL     1     -15.729 -43.465  25.424  1.00  0.00    -0.331 N 
ATOM      5  C   UNL     1     -14.534 -44.268  27.441  1.00  0.00     0.065 C 
ATOM      6  C   UNL     1     -14.719 -44.126  24.517  1.00  0.00     0.262 C 
ATOM      7  C   UNL     1     -14.117 -45.340  25.216  1.00  0.00     0.065 C 
ATOM      8  H   UNL     1     -16.459 -44.160  25.621  1.00  0.00     0.348 HD
BRANCH   4   9
ATOM      9  C   UNL     1     -16.433 -42.300  24.758  1.00  0.00     0.299 C 
BRANCH   9  10
ATOM     10  C   UNL     1     -17.871 -42.162  25.177  1.00  0.00     0.006 A 
ATOM     11  C   UNL     1     -18.230 -42.237  26.532  1.00  0.00     0.009 A 
ATOM     12  C   UNL     1     -18.873 -41.936  24.220  1.00  0.00     0.009 A 
ATOM     13  C   UNL     1     -19.561 -42.080  26.920  1.00  0.00     0.001 A 
ATOM     14  C   UNL     1     -20.203 -41.782  24.613  1.00  0.00     0.001 A 
ATOM     15  C   UNL     1     -20.545 -41.851  25.961  1.00  0.00     0.000 A 
ENDBRANCH   9  10
ENDBRANCH   4   9
ENDBRANCH   1   2
BRANCH   1  16
ATOM     16  C   UNL     1     -12.850 -46.201  28.772  1.00  0.00     0.061 C 
BRANCH  16  17
ATOM     17  C   UNL     1     -11.498 -45.968  29.356  1.00  0.00     0.091 A 
ATOM     18  N   UNL     1     -10.429 -46.591  28.835  1.00  0.00    -0.084 NA
ATOM     19  C   UNL     1     -11.136 -45.133  30.443  1.00  0.00     0.045 A 
ATOM     20  O   UNL     1      -9.344 -46.156  29.581  1.00  0.00    -0.356 OA
ATOM     21  C   UNL     1     -11.775 -44.259  31.336  1.00  0.00     0.020 A 
ATOM     22  C   UNL     1      -9.767 -45.287  30.537  1.00  0.00     0.169 A 
ATOM     23  C   UNL     1     -10.995 -43.579  32.300  1.00  0.00    -0.016 A 
ATOM     24  C   UNL     1      -8.965 -44.639  31.472  1.00  0.00     0.076 A 
ATOM     25  C   UNL     1     -11.695 -42.597  33.210  1.00  0.00     0.115 C 
ATOM     26  C   UNL     1      -9.606 -43.795  32.393  1.00  0.00     0.042 A 
ATOM     27  C   UNL     1     -10.789 -41.902  34.191  1.00  0.00     0.156 C 
ATOM     28  N   UNL     1      -8.819 -43.069  33.293  1.00  0.00    -0.378 N 
ATOM     29  C   UNL     1      -9.479 -42.587  34.506  1.00  0.00     0.189 C 
ATOM     30  O   UNL     1     -11.162 -40.897  34.801  1.00  0.00    -0.297 OA
ATOM     31  H   UNL     1      -7.916 -43.500  33.482  1.00  0.00     0.161 HD
ENDBRANCH  16  17
ENDBRANCH   1  16
TORSDOF 5
ENDMDL
MODEL 7
REMARK VINA RESULT:   -11.369      3.653      9.473
REMARK INTER + INTRA:         -15.269
REMARK INTER:                 -14.667
REMARK INTRA:                  -0.602
REMARK UNBOUND:                -0.577
REMARK SMILES O=C1CNc2cc3onc(CC[C@H]4CC[N@H+](Cc5ccccc5)CC4)c3cc2C1
REMARK SMILES IDX 12 1 13 2 15 3 16 4 14 5 24 6 25 7 17 9 18 10 19 11 23 12
REMARK SMILES IDX 20 13 22 14 21 15 11 16 10 17 9 18 26 19 8 20 27 21 7 22
REMARK SMILES IDX 28 23 6 24 29 25 5 26 2 27 4 28 3 29 1 30
REMARK H PARENT 16 8 4 31
ROOT
ATOM      1  C   UNL     1     -11.161 -45.890  28.413  1.00  0.00     0.010 C 
ENDROOT
BRANCH   1   2
ATOM      2  C   UNL     1     -11.947 -45.032  27.398  1.00  0.00     0.000 C 
ATOM      3  C   UNL     1     -12.816 -42.743  26.778  1.00  0.00     0.262 C 
ATOM      4  N   UNL     1     -14.200 -43.324  26.629  1.00  0.00    -0.331 N 
ATOM      5  C   UNL     1     -12.027 -43.553  27.798  1.00  0.00     0.065 C 
ATOM      6  C   UNL     1     -14.166 -44.773  26.203  1.00  0.00     0.262 C 
ATOM      7  C   UNL     1     -13.367 -45.587  27.214  1.00  0.00     0.065 C 
ATOM      8  H   UNL     1     -14.654 -43.291  27.549  1.00  0.00     0.348 HD
BRANCH   4   9
ATOM      9  C   UNL     1     -15.053 -42.469  25.713  1.00  0.00     0.299 C 
BRANCH   9  10
ATOM     10  C   UNL     1     -16.508 -42.468  26.094  1.00  0.00     0.006 A 
ATOM     11  C   UNL     1     -17.505 -42.472  25.106  1.00  0.00     0.009 A 
ATOM     12  C   UNL     1     -16.890 -42.483  27.445  1.00  0.00     0.009 A 
ATOM     13  C   UNL     1     -18.854 -42.499  25.462  1.00  0.00     0.001 A 
ATOM     14  C   UNL     1     -18.241 -42.509  27.796  1.00  0.00     0.001 A 
ATOM     15  C   UNL     1     -19.220 -42.520  26.806  1.00  0.00     0.000 A 
ENDBRANCH   9  10
ENDBRANCH   4   9
ENDBRANCH   1   2
BRANCH   1  16
ATOM     16  C   UNL     1     -11.994 -46.528  29.535  1.00  0.00     0.061 C 
BRANCH  16  17
ATOM     17  C   UNL     1     -12.675 -45.537  30.417  1.00  0.00     0.091 A 
ATOM     18  N   UNL     1     -14.011 -45.411  30.373  1.00  0.00    -0.084 NA
ATOM     19  C   UNL     1     -12.099 -44.652  31.363  1.00  0.00     0.045 A 
ATOM     20  O   UNL     1     -14.325 -44.436  31.308  1.00  0.00    -0.356 OA
ATOM     21  C   UNL     1     -10.819 -44.344  31.849  1.00  0.00     0.020 A 
ATOM     22  C   UNL     1     -13.185 -43.986  31.896  1.00  0.00     0.169 A 
ATOM     23  C   UNL     1     -10.691 -43.361  32.858  1.00  0.00    -0.016 A 
ATOM     24  C   UNL     1     -13.100 -43.012  32.887  1.00  0.00     0.076 A 
ATOM     25  C   UNL     1      -9.310 -43.091  33.409  1.00  0.00     0.115 C 
ATOM     26  C   UNL     1     -11.818 -42.672  33.347  1.00  0.00     0.042 A 
ATOM     27  C   UNL     1      -9.267 -42.046  34.493  1.00  0.00     0.156 C 
ATOM     28  N   UNL     1     -11.706 -41.755  34.397  1.00  0.00    -0.378 N 
ATOM     29  C   UNL     1     -10.421 -41.073  34.542  1.00  0.00     0.189 C 
ATOM     30  O   UNL     1      -8.273 -41.917  35.212  1.00  0.00    -0.297 OA
ATOM     31  H   UNL     1     -12.499 -41.119  34.466  1.00  0.00     0.161 HD
ENDBRANCH  16  17
ENDBRANCH   1  16
TORSDOF 5
ENDMDL
MODEL 8
REMARK VINA RESULT:   -11.205      3.346     11.092
REMARK INTER + INTRA:         -15.058
REMARK INTER:                 -14.542
REMARK INTRA:                  -0.515
REMARK UNBOUND:                -0.577
REMARK SMILES O=C1CNc2cc3onc(CC[C@H]4CC[N@H+](Cc5ccccc5)CC4)c3cc2C1
REMARK SMILES IDX 12 1 13 2 15 3 16 4 14 5 24 6 25 7 17 9 18 10 19 11 23 12
REMARK SMILES IDX 20 13 22 14 21 15 11 16 10 17 9 18 26 19 8 20 27 21 7 22
REMARK SMILES IDX 28 23 6 24 29 25 5 26 2 27 4 28 3 29 1 30
REMARK H PARENT 16 8 4 31
ROOT
ATOM      1  C   UNL     1     -14.301 -42.780  24.805  1.00  0.00     0.010 C 
ENDROOT
BRANCH   1   2
ATOM      2  C   UNL     1     -15.766 -42.923  24.338  1.00  0.00     0.000 C 
ATOM      3  C   UNL     1     -17.568 -42.163  22.740  1.00  0.00     0.262 C 
ATOM      4  N   UNL     1     -18.474 -41.887  23.914  1.00  0.00    -0.331 N 
ATOM      5  C   UNL     1     -16.114 -41.999  23.164  1.00  0.00     0.065 C 
ATOM      6  C   UNL     1     -18.185 -42.800  25.081  1.00  0.00     0.262 C 
ATOM      7  C   UNL     1     -16.728 -42.650  25.504  1.00  0.00     0.065 C 
ATOM      8  H   UNL     1     -18.293 -40.927  24.230  1.00  0.00     0.348 HD
BRANCH   4   9
ATOM      9  C   UNL     1     -19.930 -41.921  23.496  1.00  0.00     0.299 C 
BRANCH   9  10
ATOM     10  C   UNL     1     -20.223 -41.049  22.306  1.00  0.00     0.006 A 
ATOM     11  C   UNL     1     -20.147 -39.651  22.408  1.00  0.00     0.009 A 
ATOM     12  C   UNL     1     -20.555 -41.623  21.068  1.00  0.00     0.009 A 
ATOM     13  C   UNL     1     -20.391 -38.847  21.295  1.00  0.00     0.001 A 
ATOM     14  C   UNL     1     -20.800 -40.814  19.958  1.00  0.00     0.001 A 
ATOM     15  C   UNL     1     -20.716 -39.428  20.071  1.00  0.00     0.000 A 
ENDBRANCH   9  10
ENDBRANCH   4   9
ENDBRANCH   1   2
BRANCH   1  16
ATOM     16  C   UNL     1     -14.078 -42.811  26.324  1.00  0.00     0.061 C 
BRANCH  16  17
ATOM     17  C   UNL     1     -13.436 -44.065  26.813  1.00  0.00     0.091 A 
ATOM     18  N   UNL     1     -13.908 -45.256  26.413  1.00  0.00    -0.084 NA
ATOM     19  C   UNL     1     -12.329 -44.210  27.687  1.00  0.00     0.045 A 
ATOM     20  O   UNL     1     -13.097 -46.202  27.023  1.00  0.00    -0.356 OA
ATOM     21  C   UNL     1     -11.445 -43.374  28.387  1.00  0.00     0.020 A 
ATOM     22  C   UNL     1     -12.158 -45.576  27.780  1.00  0.00     0.169 A 
ATOM     23  C   UNL     1     -10.421 -43.963  29.165  1.00  0.00    -0.016 A 
ATOM     24  C   UNL     1     -11.165 -46.194  28.536  1.00  0.00     0.076 A 
ATOM     25  C   UNL     1      -9.444 -43.043  29.859  1.00  0.00     0.115 C 
ATOM     26  C   UNL     1     -10.304 -45.363  29.269  1.00  0.00     0.042 A 
ATOM     27  C   UNL     1      -8.375 -43.752  30.647  1.00  0.00     0.156 C 
ATOM     28  N   UNL     1      -9.248 -45.950  29.974  1.00  0.00    -0.378 N 
ATOM     29  C   UNL     1      -8.674 -45.172  31.070  1.00  0.00     0.189 C 
ATOM     30  O   UNL     1      -7.368 -43.154  31.036  1.00  0.00    -0.297 OA
ATOM     31  H   UNL     1      -9.421 -46.920  30.230  1.00  0.00     0.161 HD
ENDBRANCH  16  17
ENDBRANCH   1  16
TORSDOF 5
ENDMDL
MODEL 9
REMARK VINA RESULT:   -11.017      3.120     10.475
REMARK INTER + INTRA:         -14.814
REMARK INTER:                 -14.163
REMARK INTRA:                  -0.652
REMARK UNBOUND:                -0.577
REMARK SMILES O=C1CNc2cc3onc(CC[C@H]4CC[N@H+](Cc5ccccc5)CC4)c3cc2C1
REMARK SMILES IDX 12 1 13 2 15 3 16 4 14 5 24 6 25 7 17 9 18 10 19 11 23 12
REMARK SMILES IDX 20 13 22 14 21 15 11 16 10 17 9 18 26 19 8 20 27 21 7 22
REMARK SMILES IDX 28 23 6 24 29 25 5 26 2 27 4 28 3 29 1 30
REMARK H PARENT 16 8 4 31
ROOT
ATOM      1  C   UNL     1     -14.266 -42.875  24.978  1.00  0.00     0.010 C 
ENDROOT
BRANCH   1   2
ATOM      2  C   UNL     1     -15.731 -42.462  24.718  1.00  0.00     0.000 C 
ATOM      3  C   UNL     1     -18.099 -42.378  25.593  1.00  0.00     0.262 C 
ATOM      4  N   UNL     1     -18.573 -43.060  24.334  1.00  0.00    -0.331 N 
ATOM      5  C   UNL     1     -16.664 -42.792  25.891  1.00  0.00     0.065 C 
ATOM      6  C   UNL     1     -17.699 -42.734  23.147  1.00  0.00     0.262 C 
ATOM      7  C   UNL     1     -16.259 -43.136  23.443  1.00  0.00     0.065 C 
ATOM      8  H   UNL     1     -18.511 -44.074  24.486  1.00  0.00     0.348 HD
BRANCH   4   9
ATOM      9  C   UNL     1     -20.038 -42.767  24.076  1.00  0.00     0.299 C 
BRANCH   9  10
ATOM     10  C   UNL     1     -20.951 -43.372  25.107  1.00  0.00     0.006 A 
ATOM     11  C   UNL     1     -20.923 -44.751  25.365  1.00  0.00     0.009 A 
ATOM     12  C   UNL     1     -21.830 -42.560  25.843  1.00  0.00     0.009 A 
ATOM     13  C   UNL     1     -21.751 -45.305  26.342  1.00  0.00     0.001 A 
ATOM     14  C   UNL     1     -22.657 -43.119  26.818  1.00  0.00     0.001 A 
ATOM     15  C   UNL     1     -22.616 -44.489  27.068  1.00  0.00     0.000 A 
ENDBRANCH   9  10
ENDBRANCH   4   9
ENDBRANCH   1   2
BRANCH   1  16
ATOM     16  C   UNL     1     -13.786 -42.754  26.432  1.00  0.00     0.061 C 
BRANCH  16  17
ATOM     17  C   UNL     1     -13.225 -44.018  26.989  1.00  0.00     0.091 A 
ATOM     18  N   UNL     1     -13.763 -45.197  26.641  1.00  0.00    -0.084 NA
ATOM     19  C   UNL     1     -12.135 -44.185  27.881  1.00  0.00     0.045 A 
ATOM     20  O   UNL     1     -13.015 -46.158  27.305  1.00  0.00    -0.356 OA
ATOM     21  C   UNL     1     -11.210 -43.369  28.551  1.00  0.00     0.020 A 
ATOM     22  C   UNL     1     -12.047 -45.553  28.043  1.00  0.00     0.169 A 
ATOM     23  C   UNL     1     -10.230 -43.979  29.368  1.00  0.00    -0.016 A 
ATOM     24  C   UNL     1     -11.100 -46.191  28.839  1.00  0.00     0.076 A 
ATOM     25  C   UNL     1      -9.206 -43.086  30.028  1.00  0.00     0.115 C 
ATOM     26  C   UNL     1     -10.197 -45.377  29.541  1.00  0.00     0.042 A 
ATOM     27  C   UNL     1      -8.188 -43.817  30.863  1.00  0.00     0.156 C 
ATOM     28  N   UNL     1      -9.185 -45.990  30.287  1.00  0.00    -0.378 N 
ATOM     29  C   UNL     1      -8.575 -45.194  31.350  1.00  0.00     0.189 C 
ATOM     30  O   UNL     1      -7.151 -43.262  31.234  1.00  0.00    -0.297 OA
ATOM     31  H   UNL     1      -9.417 -46.934  30.586  1.00  0.00     0.161 HD
ENDBRANCH  16  17
ENDBRANCH   1  16
TORSDOF 5
ENDMDL
