MODEL 1
REMARK VINA RESULT:    -9.913      0.000      0.000
REMARK INTER + INTRA:         -10.865
REMARK INTER:                 -10.783
REMARK INTRA:                  -0.082
REMARK UNBOUND:                -0.082
REMARK SMILES CCC1=C[C@H]2Cc3nc4cc(Cl)ccc4c(N)c3[C@@H](C1)C2
REMARK SMILES IDX 3 1 4 2 5 3 6 4 7 5 8 6 9 7 10 8 11 9 12 10 13 11 14 12
REMARK SMILES IDX 15 13 16 14 18 15 19 16 20 17 21 18 2 19 1 20 17 21
REMARK H PARENT 17 22 17 23
ROOT
ATOM      1  C   UNL     1     -11.138 -44.315  31.232  1.00  0.00    -0.074 C 
ATOM      2  C   UNL     1     -12.223 -44.013  31.971  1.00  0.00    -0.024 C 
ATOM      3  C   UNL     1     -13.494 -44.836  31.962  1.00  0.00     0.018 C 
ATOM      4  C   UNL     1     -14.549 -44.198  31.047  1.00  0.00     0.064 C 
ATOM      5  C   UNL     1     -14.314 -44.447  29.573  1.00  0.00     0.047 A 
ATOM      6  N   UNL     1     -15.087 -43.718  28.736  1.00  0.00    -0.252 NA
ATOM      7  C   UNL     1     -14.950 -43.884  27.414  1.00  0.00     0.074 A 
ATOM      8  C   UNL     1     -15.726 -43.088  26.585  1.00  0.00     0.049 A 
ATOM      9  C   UNL     1     -15.631 -43.176  25.200  1.00  0.00     0.043 A 
ATOM     10  Cl  UNL     1     -16.607 -42.167  24.206  1.00  0.00    -0.084 Cl
ATOM     11  C   UNL     1     -14.747 -44.071  24.616  1.00  0.00     0.021 A 
ATOM     12  C   UNL     1     -13.962 -44.885  25.433  1.00  0.00     0.014 A 
ATOM     13  C   UNL     1     -14.053 -44.814  26.846  1.00  0.00     0.024 A 
ATOM     14  C   UNL     1     -13.298 -45.620  27.739  1.00  0.00     0.046 A 
ATOM     15  C   UNL     1     -13.395 -45.403  29.125  1.00  0.00     0.001 A 
ATOM     16  C   UNL     1     -12.536 -46.178  30.117  1.00  0.00     0.028 C 
ATOM     17  C   UNL     1     -11.149 -45.517  30.298  1.00  0.00     0.039 C 
ATOM     18  C   UNL     1     -13.227 -46.264  31.482  1.00  0.00     0.017 C 
ENDROOT
BRANCH   1  19
ATOM     19  C   UNL     1      -9.841 -43.533  31.228  1.00  0.00     0.027 C 
ATOM     20  C   UNL     1      -9.030 -43.527  32.519  1.00  0.00     0.008 C 
ENDBRANCH   1  19
BRANCH  14  21
ATOM     21  N   UNL     1     -12.287 -46.496  27.262  1.00  0.00    -0.398 N 
ATOM     22  H   UNL     1     -11.387 -46.235  27.661  1.00  0.00     0.156 HD
ATOM     23  H   UNL     1     -12.217 -46.495  26.249  1.00  0.00     0.156 HD
ENDBRANCH  14  21
TORSDOF 2
ENDMDL
MODEL 2
REMARK VINA RESULT:    -9.588      4.531      8.398
REMARK INTER + INTRA:         -10.512
REMARK INTER:                 -10.402
REMARK INTRA:                  -0.110
REMARK UNBOUND:                -0.082
REMARK SMILES CCC1=C[C@H]2Cc3nc4cc(Cl)ccc4c(N)c3[C@@H](C1)C2
REMARK SMILES IDX 3 1 4 2 5 3 6 4 7 5 8 6 9 7 10 8 11 9 12 10 13 11 14 12
REMARK SMILES IDX 15 13 16 14 18 15 19 16 20 17 21 18 2 19 1 20 17 21
REMARK H PARENT 17 22 17 23
ROOT
ATOM      1  C   UNL     1     -21.695 -43.675  25.166  1.00  0.00    -0.074 C 
ATOM      2  C   UNL     1     -21.780 -42.932  26.288  1.00  0.00    -0.024 C 
ATOM      3  C   UNL     1     -21.179 -41.548  26.418  1.00  0.00     0.018 C 
ATOM      4  C   UNL     1     -19.831 -41.608  27.150  1.00  0.00     0.064 C 
ATOM      5  C   UNL     1     -18.684 -42.081  26.284  1.00  0.00     0.047 A 
ATOM      6  N   UNL     1     -17.538 -42.359  26.948  1.00  0.00    -0.252 NA
ATOM      7  C   UNL     1     -16.470 -42.775  26.256  1.00  0.00     0.074 A 
ATOM      8  C   UNL     1     -15.328 -43.095  26.974  1.00  0.00     0.049 A 
ATOM      9  C   UNL     1     -14.180 -43.558  26.339  1.00  0.00     0.043 A 
ATOM     10  Cl  UNL     1     -12.784 -43.949  27.264  1.00  0.00    -0.084 Cl
ATOM     11  C   UNL     1     -14.158 -43.713  24.960  1.00  0.00     0.021 A 
ATOM     12  C   UNL     1     -15.296 -43.392  24.221  1.00  0.00     0.014 A 
ATOM     13  C   UNL     1     -16.470 -42.909  24.851  1.00  0.00     0.024 A 
ATOM     14  C   UNL     1     -17.659 -42.548  24.162  1.00  0.00     0.046 A 
ATOM     15  C   UNL     1     -18.800 -42.172  24.893  1.00  0.00     0.001 A 
ATOM     16  C   UNL     1     -20.125 -41.866  24.203  1.00  0.00     0.028 C 
ATOM     17  C   UNL     1     -20.939 -43.157  23.951  1.00  0.00     0.039 C 
ATOM     18  C   UNL     1     -20.967 -40.903  25.048  1.00  0.00     0.017 C 
ENDROOT
BRANCH   1  19
ATOM     19  C   UNL     1     -22.299 -45.052  24.986  1.00  0.00     0.027 C 
ATOM     20  C   UNL     1     -21.421 -46.247  25.337  1.00  0.00     0.008 C 
ENDBRANCH   1  19
BRANCH  14  21
ATOM     21  N   UNL     1     -17.792 -42.762  22.764  1.00  0.00    -0.398 N 
ATOM     22  H   UNL     1     -18.187 -43.685  22.592  1.00  0.00     0.156 HD
ATOM     23  H   UNL     1     -16.908 -42.679  22.271  1.00  0.00     0.156 HD
ENDBRANCH  14  21
TORSDOF 2
ENDMDL
MODEL 3
REMARK VINA RESULT:    -9.580      4.169      5.985
REMARK INTER + INTRA:         -10.503
REMARK INTER:                 -10.421
REMARK INTRA:                  -0.081
REMARK UNBOUND:                -0.082
REMARK SMILES CCC1=C[C@H]2Cc3nc4cc(Cl)ccc4c(N)c3[C@@H](C1)C2
REMARK SMILES IDX 3 1 4 2 5 3 6 4 7 5 8 6 9 7 10 8 11 9 12 10 13 11 14 12
REMARK SMILES IDX 15 13 16 14 18 15 19 16 20 17 21 18 2 19 1 20 17 21
REMARK H PARENT 17 22 17 23
ROOT
ATOM      1  C   UNL     1      -9.172 -43.313  28.618  1.00  0.00    -0.074 C 
ATOM      2  C   UNL     1      -8.239 -43.216  29.585  1.00  0.00    -0.024 C 
ATOM      3  C   UNL     1      -8.166 -44.156  30.770  1.00  0.00     0.018 C 
ATOM      4  C   UNL     1      -8.808 -43.518  32.011  1.00  0.00     0.064 C 
ATOM      5  C   UNL     1     -10.320 -43.555  32.006  1.00  0.00     0.047 A 
ATOM      6  N   UNL     1     -10.917 -42.809  32.964  1.00  0.00    -0.252 NA
ATOM      7  C   UNL     1     -12.254 -42.793  33.037  1.00  0.00     0.074 A 
ATOM      8  C   UNL     1     -12.832 -41.981  34.001  1.00  0.00     0.049 A 
ATOM      9  C   UNL     1     -14.214 -41.885  34.132  1.00  0.00     0.043 A 
ATOM     10  Cl  UNL     1     -14.894 -40.863  35.337  1.00  0.00    -0.084 Cl
ATOM     11  C   UNL     1     -15.048 -42.607  33.291  1.00  0.00     0.021 A 
ATOM     12  C   UNL     1     -14.485 -43.433  32.318  1.00  0.00     0.014 A 
ATOM     13  C   UNL     1     -13.079 -43.549  32.177  1.00  0.00     0.024 A 
ATOM     14  C   UNL     1     -12.436 -44.381  31.222  1.00  0.00     0.046 A 
ATOM     15  C   UNL     1     -11.035 -44.349  31.103  1.00  0.00     0.001 A 
ATOM     16  C   UNL     1     -10.307 -45.153  30.031  1.00  0.00     0.028 C 
ATOM     17  C   UNL     1     -10.253 -44.383  28.690  1.00  0.00     0.039 C 
ATOM     18  C   UNL     1      -8.876 -45.479  30.475  1.00  0.00     0.017 C 
ENDROOT
BRANCH   1  19
ATOM     19  C   UNL     1      -9.268 -42.410  27.406  1.00  0.00     0.027 C 
ATOM     20  C   UNL     1      -7.970 -41.800  26.891  1.00  0.00     0.008 C 
ENDBRANCH   1  19
BRANCH  14  21
ATOM     21  N   UNL     1     -13.182 -45.084  30.239  1.00  0.00    -0.398 N 
ATOM     22  H   UNL     1     -12.680 -45.925  29.960  1.00  0.00     0.156 HD
ATOM     23  H   UNL     1     -13.372 -44.519  29.416  1.00  0.00     0.156 HD
ENDBRANCH  14  21
TORSDOF 2
ENDMDL
MODEL 4
REMARK VINA RESULT:    -9.484      3.456      6.809
REMARK INTER + INTRA:         -10.398
REMARK INTER:                 -10.310
REMARK INTRA:                  -0.088
REMARK UNBOUND:                -0.082
REMARK SMILES CCC1=C[C@H]2Cc3nc4cc(Cl)ccc4c(N)c3[C@@H](C1)C2
REMARK SMILES IDX 3 1 4 2 5 3 6 4 7 5 8 6 9 7 10 8 11 9 12 10 13 11 14 12
REMARK SMILES IDX 15 13 16 14 18 15 19 16 20 17 21 18 2 19 1 20 17 21
REMARK H PARENT 17 22 17 23
ROOT
ATOM      1  C   UNL     1     -13.419 -44.298  27.456  1.00  0.00    -0.074 C 
ATOM      2  C   UNL     1     -12.642 -45.297  26.995  1.00  0.00    -0.024 C 
ATOM      3  C   UNL     1     -12.308 -46.534  27.801  1.00  0.00     0.018 C 
ATOM      4  C   UNL     1     -10.916 -46.409  28.438  1.00  0.00     0.064 C 
ATOM      5  C   UNL     1     -10.883 -45.532  29.670  1.00  0.00     0.047 A 
ATOM      6  N   UNL     1      -9.646 -45.220  30.120  1.00  0.00    -0.252 NA
ATOM      7  C   UNL     1      -9.525 -44.455  31.213  1.00  0.00     0.074 A 
ATOM      8  C   UNL     1      -8.243 -44.116  31.619  1.00  0.00     0.049 A 
ATOM      9  C   UNL     1      -8.026 -43.306  32.729  1.00  0.00     0.043 A 
ATOM     10  Cl  UNL     1      -6.421 -42.904  33.198  1.00  0.00    -0.084 Cl
ATOM     11  C   UNL     1      -9.100 -42.814  33.456  1.00  0.00     0.021 A 
ATOM     12  C   UNL     1     -10.397 -43.147  33.066  1.00  0.00     0.014 A 
ATOM     13  C   UNL     1     -10.635 -43.980  31.944  1.00  0.00     0.024 A 
ATOM     14  C   UNL     1     -11.925 -44.373  31.498  1.00  0.00     0.046 A 
ATOM     15  C   UNL     1     -12.055 -45.123  30.316  1.00  0.00     0.001 A 
ATOM     16  C   UNL     1     -13.422 -45.489  29.748  1.00  0.00     0.028 C 
ATOM     17  C   UNL     1     -13.988 -44.350  28.867  1.00  0.00     0.039 C 
ATOM     18  C   UNL     1     -13.335 -46.770  28.909  1.00  0.00     0.017 C 
ENDROOT
BRANCH   1  19
ATOM     19  C   UNL     1     -13.796 -43.056  26.676  1.00  0.00     0.027 C 
ATOM     20  C   UNL     1     -15.283 -42.776  26.492  1.00  0.00     0.008 C 
ENDBRANCH   1  19
BRANCH  14  21
ATOM     21  N   UNL     1     -13.102 -43.848  32.097  1.00  0.00    -0.398 N 
ATOM     22  H   UNL     1     -13.050 -42.832  32.127  1.00  0.00     0.156 HD
ATOM     23  H   UNL     1     -13.253 -44.204  33.036  1.00  0.00     0.156 HD
ENDBRANCH  14  21
TORSDOF 2
ENDMDL
MODEL 5
REMARK VINA RESULT:    -9.138      1.744      2.324
REMARK INTER + INTRA:         -10.022
REMARK INTER:                  -9.937
REMARK INTRA:                  -0.085
REMARK UNBOUND:                -0.082
REMARK SMILES CCC1=C[C@H]2Cc3nc4cc(Cl)ccc4c(N)c3[C@@H](C1)C2
REMARK SMILES IDX 3 1 4 2 5 3 6 4 7 5 8 6 9 7 10 8 11 9 12 10 13 11 14 12
REMARK SMILES IDX 15 13 16 14 18 15 19 16 20 17 21 18 2 19 1 20 17 21
REMARK H PARENT 17 22 17 23
ROOT
ATOM      1  C   UNL     1     -10.587 -43.846  31.861  1.00  0.00    -0.074 C 
ATOM      2  C   UNL     1     -11.159 -45.051  32.051  1.00  0.00    -0.024 C 
ATOM      3  C   UNL     1     -11.128 -46.161  31.022  1.00  0.00     0.018 C 
ATOM      4  C   UNL     1     -12.446 -46.209  30.235  1.00  0.00     0.064 C 
ATOM      5  C   UNL     1     -12.560 -45.147  29.164  1.00  0.00     0.047 A 
ATOM      6  N   UNL     1     -13.787 -45.018  28.610  1.00  0.00    -0.252 NA
ATOM      7  C   UNL     1     -13.973 -44.107  27.646  1.00  0.00     0.074 A 
ATOM      8  C   UNL     1     -15.254 -43.970  27.133  1.00  0.00     0.049 A 
ATOM      9  C   UNL     1     -15.542 -43.032  26.147  1.00  0.00     0.043 A 
ATOM     10  Cl  UNL     1     -17.145 -42.889  25.539  1.00  0.00    -0.084 Cl
ATOM     11  C   UNL     1     -14.543 -42.205  25.655  1.00  0.00     0.021 A 
ATOM     12  C   UNL     1     -13.247 -42.331  26.155  1.00  0.00     0.014 A 
ATOM     13  C   UNL     1     -12.935 -43.288  27.153  1.00  0.00     0.024 A 
ATOM     14  C   UNL     1     -11.637 -43.483  27.697  1.00  0.00     0.046 A 
ATOM     15  C   UNL     1     -11.454 -44.395  28.752  1.00  0.00     0.001 A 
ATOM     16  C   UNL     1     -10.100 -44.570  29.430  1.00  0.00     0.028 C 
ATOM     17  C   UNL     1      -9.890 -43.521  30.547  1.00  0.00     0.039 C 
ATOM     18  C   UNL     1      -9.974 -45.973  30.036  1.00  0.00     0.017 C 
ENDROOT
BRANCH   1  19
ATOM     19  C   UNL     1     -10.574 -42.718  32.871  1.00  0.00     0.027 C 
ATOM     20  C   UNL     1      -9.372 -42.633  33.803  1.00  0.00     0.008 C 
ENDBRANCH   1  19
BRANCH  14  21
ATOM     21  N   UNL     1     -10.558 -42.627  27.349  1.00  0.00    -0.398 N 
ATOM     22  H   UNL     1     -10.318 -42.035  28.141  1.00  0.00     0.156 HD
ATOM     23  H   UNL     1     -10.767 -42.043  26.545  1.00  0.00     0.156 HD
ENDBRANCH  14  21
TORSDOF 2
ENDMDL
MODEL 6
REMARK VINA RESULT:    -8.028      6.099     10.668
REMARK INTER + INTRA:          -8.814
REMARK INTER:                  -8.705
REMARK INTRA:                  -0.109
REMARK UNBOUND:                -0.082
REMARK SMILES CCC1=C[C@H]2Cc3nc4cc(Cl)ccc4c(N)c3[C@@H](C1)C2
REMARK SMILES IDX 3 1 4 2 5 3 6 4 7 5 8 6 9 7 10 8 11 9 12 10 13 11 14 12
REMARK SMILES IDX 15 13 16 14 18 15 19 16 20 17 21 18 2 19 1 20 17 21
REMARK H PARENT 17 22 17 23
ROOT
ATOM      1  C   UNL     1     -22.525 -41.957  21.460  1.00  0.00    -0.074 C 
ATOM      2  C   UNL     1     -23.044 -41.689  22.674  1.00  0.00    -0.024 C 
ATOM      3  C   UNL     1     -22.600 -40.522  23.532  1.00  0.00     0.018 C 
ATOM      4  C   UNL     1     -21.604 -40.985  24.605  1.00  0.00     0.064 C 
ATOM      5  C   UNL     1     -20.201 -41.205  24.085  1.00  0.00     0.047 A 
ATOM      6  N   UNL     1     -19.359 -41.824  24.945  1.00  0.00    -0.252 NA
ATOM      7  C   UNL     1     -18.095 -42.050  24.568  1.00  0.00     0.074 A 
ATOM      8  C   UNL     1     -17.273 -42.727  25.456  1.00  0.00     0.049 A 
ATOM      9  C   UNL     1     -15.952 -43.025  25.137  1.00  0.00     0.043 A 
ATOM     10  Cl  UNL     1     -14.966 -43.871  26.264  1.00  0.00    -0.084 Cl
ATOM     11  C   UNL     1     -15.427 -42.648  23.910  1.00  0.00     0.021 A 
ATOM     12  C   UNL     1     -16.237 -41.962  23.004  1.00  0.00     0.014 A 
ATOM     13  C   UNL     1     -17.582 -41.642  23.318  1.00  0.00     0.024 A 
ATOM     14  C   UNL     1     -18.459 -40.933  22.454  1.00  0.00     0.046 A 
ATOM     15  C   UNL     1     -19.803 -40.751  22.823  1.00  0.00     0.001 A 
ATOM     16  C   UNL     1     -20.804 -40.080  21.889  1.00  0.00     0.028 C 
ATOM     17  C   UNL     1     -21.409 -41.094  20.889  1.00  0.00     0.039 C 
ATOM     18  C   UNL     1     -21.940 -39.431  22.687  1.00  0.00     0.017 C 
ENDROOT
BRANCH   1  19
ATOM     19  C   UNL     1     -22.955 -43.098  20.562  1.00  0.00     0.027 C 
ATOM     20  C   UNL     1     -22.328 -44.461  20.823  1.00  0.00     0.008 C 
ENDBRANCH   1  19
BRANCH  14  21
ATOM     21  N   UNL     1     -18.069 -40.589  21.132  1.00  0.00    -0.398 N 
ATOM     22  H   UNL     1     -17.827 -41.431  20.612  1.00  0.00     0.156 HD
ATOM     23  H   UNL     1     -17.283 -39.946  21.112  1.00  0.00     0.156 HD
ENDBRANCH  14  21
TORSDOF 2
ENDMDL
MODEL 7
REMARK VINA RESULT:    -7.939      5.905     10.570
REMARK INTER + INTRA:          -8.718
REMARK INTER:                  -8.628
REMARK INTRA:                  -0.089
REMARK UNBOUND:                -0.082
REMARK SMILES CCC1=C[C@H]2Cc3nc4cc(Cl)ccc4c(N)c3[C@@H](C1)C2
REMARK SMILES IDX 3 1 4 2 5 3 6 4 7 5 8 6 9 7 10 8 11 9 12 10 13 11 14 12
REMARK SMILES IDX 15 13 16 14 18 15 19 16 20 17 21 18 2 19 1 20 17 21
REMARK H PARENT 17 22 17 23
ROOT
ATOM      1  C   UNL     1     -22.215 -42.865  21.585  1.00  0.00    -0.074 C 
ATOM      2  C   UNL     1     -22.979 -42.004  22.286  1.00  0.00    -0.024 C 
ATOM      3  C   UNL     1     -22.529 -40.609  22.667  1.00  0.00     0.018 C 
ATOM      4  C   UNL     1     -22.029 -40.577  24.118  1.00  0.00     0.064 C 
ATOM      5  C   UNL     1     -20.634 -41.133  24.298  1.00  0.00     0.047 A 
ATOM      6  N   UNL     1     -20.253 -41.326  25.582  1.00  0.00    -0.252 NA
ATOM      7  C   UNL     1     -19.028 -41.807  25.831  1.00  0.00     0.074 A 
ATOM      8  C   UNL     1     -18.688 -42.037  27.155  1.00  0.00     0.049 A 
ATOM      9  C   UNL     1     -17.446 -42.558  27.504  1.00  0.00     0.043 A 
ATOM     10  Cl  UNL     1     -17.063 -42.833  29.158  1.00  0.00    -0.084 Cl
ATOM     11  C   UNL     1     -16.515 -42.862  26.522  1.00  0.00     0.021 A 
ATOM     12  C   UNL     1     -16.837 -42.634  25.184  1.00  0.00     0.014 A 
ATOM     13  C   UNL     1     -18.094 -42.095  24.813  1.00  0.00     0.024 A 
ATOM     14  C   UNL     1     -18.484 -41.822  23.474  1.00  0.00     0.046 A 
ATOM     15  C   UNL     1     -19.791 -41.377  23.207  1.00  0.00     0.001 A 
ATOM     16  C   UNL     1     -20.286 -41.160  21.781  1.00  0.00     0.028 C 
ATOM     17  C   UNL     1     -20.806 -42.477  21.159  1.00  0.00     0.039 C 
ATOM     18  C   UNL     1     -21.409 -40.117  21.749  1.00  0.00     0.017 C 
ENDROOT
BRANCH   1  19
ATOM     19  C   UNL     1     -22.633 -44.258  21.165  1.00  0.00     0.027 C 
ATOM     20  C   UNL     1     -22.426 -44.634  19.703  1.00  0.00     0.008 C 
ENDBRANCH   1  19
BRANCH  14  21
ATOM     21  N   UNL     1     -17.659 -42.189  22.378  1.00  0.00    -0.398 N 
ATOM     22  H   UNL     1     -17.229 -43.095  22.557  1.00  0.00     0.156 HD
ATOM     23  H   UNL     1     -16.933 -41.505  22.190  1.00  0.00     0.156 HD
ENDBRANCH  14  21
TORSDOF 2
ENDMDL
MODEL 8
REMARK VINA RESULT:    -7.282      8.127     12.906
REMARK INTER + INTRA:          -8.003
REMARK INTER:                  -7.920
REMARK INTRA:                  -0.083
REMARK UNBOUND:                -0.082
REMARK SMILES CCC1=C[C@H]2Cc3nc4cc(Cl)ccc4c(N)c3[C@@H](C1)C2
REMARK SMILES IDX 3 1 4 2 5 3 6 4 7 5 8 6 9 7 10 8 11 9 12 10 13 11 14 12
REMARK SMILES IDX 15 13 16 14 18 15 19 16 20 17 21 18 2 19 1 20 17 21
REMARK H PARENT 17 22 17 23
ROOT
ATOM      1  C   UNL     1     -23.276 -40.349  19.246  1.00  0.00    -0.074 C 
ATOM      2  C   UNL     1     -24.027 -39.561  20.041  1.00  0.00    -0.024 C 
ATOM      3  C   UNL     1     -23.479 -38.359  20.780  1.00  0.00     0.018 C 
ATOM      4  C   UNL     1     -23.181 -38.711  22.245  1.00  0.00     0.064 C 
ATOM      5  C   UNL     1     -21.894 -39.483  22.439  1.00  0.00     0.047 A 
ATOM      6  N   UNL     1     -21.716 -40.001  23.676  1.00  0.00    -0.252 NA
ATOM      7  C   UNL     1     -20.599 -40.691  23.937  1.00  0.00     0.074 A 
ATOM      8  C   UNL     1     -20.470 -41.247  25.201  1.00  0.00     0.049 A 
ATOM      9  C   UNL     1     -19.354 -41.999  25.551  1.00  0.00     0.043 A 
ATOM     10  Cl  UNL     1     -19.233 -42.676  27.128  1.00  0.00    -0.084 Cl
ATOM     11  C   UNL     1     -18.338 -42.212  24.631  1.00  0.00     0.021 A 
ATOM     12  C   UNL     1     -18.447 -41.657  23.356  1.00  0.00     0.014 A 
ATOM     13  C   UNL     1     -19.573 -40.880  22.987  1.00  0.00     0.024 A 
ATOM     14  C   UNL     1     -19.744 -40.272  21.714  1.00  0.00     0.046 A 
ATOM     15  C   UNL     1     -20.944 -39.601  21.419  1.00  0.00     0.001 A 
ATOM     16  C   UNL     1     -21.212 -39.014  20.037  1.00  0.00     0.028 C 
ATOM     17  C   UNL     1     -21.788 -40.079  19.075  1.00  0.00     0.039 C 
ATOM     18  C   UNL     1     -22.196 -37.842  20.128  1.00  0.00     0.017 C 
ENDROOT
BRANCH   1  19
ATOM     19  C   UNL     1     -23.787 -41.546  18.471  1.00  0.00     0.027 C 
ATOM     20  C   UNL     1     -24.620 -41.263  17.227  1.00  0.00     0.008 C 
ENDBRANCH   1  19
BRANCH  14  21
ATOM     21  N   UNL     1     -18.824 -40.506  20.657  1.00  0.00    -0.398 N 
ATOM     22  H   UNL     1     -19.251 -41.106  19.954  1.00  0.00     0.156 HD
ATOM     23  H   UNL     1     -17.960 -40.931  20.981  1.00  0.00     0.156 HD
ENDBRANCH  14  21
TORSDOF 2
ENDMDL
MODEL 9
REMARK VINA RESULT:    -6.917      7.880     10.395
REMARK INTER + INTRA:          -7.606
REMARK INTER:                  -7.513
REMARK INTRA:                  -0.093
REMARK UNBOUND:                -0.082
REMARK SMILES CCC1=C[C@H]2Cc3nc4cc(Cl)ccc4c(N)c3[C@@H](C1)C2
REMARK SMILES IDX 3 1 4 2 5 3 6 4 7 5 8 6 9 7 10 8 11 9 12 10 13 11 14 12
REMARK SMILES IDX 15 13 16 14 18 15 19 16 20 17 21 18 2 19 1 20 17 21
REMARK H PARENT 17 22 17 23
ROOT
ATOM      1  C   UNL     1     -21.254 -43.960  26.122  1.00  0.00    -0.074 C 
ATOM      2  C   UNL     1     -19.926 -43.893  25.902  1.00  0.00    -0.024 C 
ATOM      3  C   UNL     1     -19.116 -42.624  26.066  1.00  0.00     0.018 C 
ATOM      4  C   UNL     1     -18.876 -41.953  24.706  1.00  0.00     0.064 C 
ATOM      5  C   UNL     1     -20.071 -41.186  24.183  1.00  0.00     0.047 A 
ATOM      6  N   UNL     1     -19.972 -40.775  22.898  1.00  0.00    -0.252 NA
ATOM      7  C   UNL     1     -20.981 -40.080  22.357  1.00  0.00     0.074 A 
ATOM      8  C   UNL     1     -20.866 -39.715  21.025  1.00  0.00     0.049 A 
ATOM      9  C   UNL     1     -21.877 -39.014  20.377  1.00  0.00     0.043 A 
ATOM     10  Cl  UNL     1     -21.699 -38.583  18.721  1.00  0.00    -0.084 Cl
ATOM     11  C   UNL     1     -23.033 -38.664  21.058  1.00  0.00     0.021 A 
ATOM     12  C   UNL     1     -23.166 -39.018  22.401  1.00  0.00     0.014 A 
ATOM     13  C   UNL     1     -22.141 -39.724  23.079  1.00  0.00     0.024 A 
ATOM     14  C   UNL     1     -22.199 -40.104  24.447  1.00  0.00     0.046 A 
ATOM     15  C   UNL     1     -21.169 -40.887  24.997  1.00  0.00     0.001 A 
ATOM     16  C   UNL     1     -21.233 -41.396  26.432  1.00  0.00     0.028 C 
ATOM     17  C   UNL     1     -22.033 -42.716  26.526  1.00  0.00     0.039 C 
ATOM     18  C   UNL     1     -19.823 -41.629  26.988  1.00  0.00     0.017 C 
ENDROOT
BRANCH   1  19
ATOM     19  C   UNL     1     -22.097 -45.211  25.991  1.00  0.00     0.027 C 
ATOM     20  C   UNL     1     -21.666 -46.232  24.945  1.00  0.00     0.008 C 
ENDBRANCH   1  19
BRANCH  14  21
ATOM     21  N   UNL     1     -23.374 -39.895  25.218  1.00  0.00    -0.398 N 
ATOM     22  H   UNL     1     -24.131 -40.472  24.858  1.00  0.00     0.156 HD
ATOM     23  H   UNL     1     -23.668 -38.922  25.224  1.00  0.00     0.156 HD
ENDBRANCH  14  21
TORSDOF 2
ENDMDL
