MODEL 1
REMARK VINA RESULT:   -12.362      0.000      0.000
REMARK INTER + INTRA:         -16.791
REMARK INTER:                 -16.337
REMARK INTRA:                  -0.454
REMARK UNBOUND:                -0.454
REMARK SMILES O=c1nc2cc(Cl)ccc2c(O)n1CC[C@H]1CC[N@H+](Cc2ccccc2)CC1
REMARK SMILES IDX 14 1 13 2 11 3 10 4 9 5 4 6 2 7 8 8 5 9 3 10 6 11 1 12 7 13
REMARK SMILES IDX 12 14 15 16 16 17 17 18 28 19 18 20 27 21 19 22 20 24 21 25
REMARK SMILES IDX 22 26 26 27 23 28 25 29 24 30
REMARK H PARENT 12 15 19 23
ROOT
ATOM      1  C   UNL     1     -14.008 -43.610  26.681  1.00  0.00     0.131 C 
ENDROOT
BRANCH   1   2
ATOM      2  N   UNL     1     -15.297 -43.170  26.152  1.00  0.00    -0.262 N 
ATOM      3  C   UNL     1     -16.337 -42.831  26.994  1.00  0.00     0.204 A 
ATOM      4  C   UNL     1     -17.521 -42.415  26.511  1.00  0.00     0.061 A 
ATOM      5  C   UNL     1     -18.693 -42.018  27.268  1.00  0.00     0.017 A 
ATOM      6  C   UNL     1     -17.570 -42.371  25.017  1.00  0.00     0.083 A 
ATOM      7  C   UNL     1     -15.397 -43.046  24.761  1.00  0.00     0.350 A 
ATOM      8  C   UNL     1     -19.816 -41.641  26.639  1.00  0.00     0.021 A 
ATOM      9  C   UNL     1     -18.866 -41.951  24.417  1.00  0.00     0.049 A 
ATOM     10  N   UNL     1     -16.593 -42.658  24.225  1.00  0.00    -0.193 NA
ATOM     11  C   UNL     1     -19.899 -41.617  25.198  1.00  0.00     0.043 A 
ATOM     12  O   UNL     1     -14.426 -43.267  24.037  1.00  0.00    -0.246 OA
ATOM     13  Cl  UNL     1     -21.397 -41.128  24.493  1.00  0.00    -0.084 Cl
BRANCH   3  14
ATOM     14  O   UNL     1     -16.053 -42.947  28.338  1.00  0.00    -0.494 OA
ATOM     15  H   UNL     1     -16.146 -43.872  28.615  1.00  0.00     0.295 HD
ENDBRANCH   3  14
ENDBRANCH   1   2
BRANCH   1  16
ATOM     16  C   UNL     1     -13.813 -45.124  26.505  1.00  0.00     0.026 C 
BRANCH  16  17
ATOM     17  C   UNL     1     -13.233 -45.826  27.750  1.00  0.00     0.002 C 
ATOM     18  C   UNL     1     -13.624 -45.045  29.014  1.00  0.00     0.065 C 
ATOM     19  C   UNL     1     -11.701 -45.946  27.672  1.00  0.00     0.065 C 
ATOM     20  C   UNL     1     -13.011 -45.641  30.272  1.00  0.00     0.262 C 
ATOM     21  C   UNL     1     -11.093 -46.528  28.941  1.00  0.00     0.262 C 
ATOM     22  N   UNL     1     -11.514 -45.698  30.128  1.00  0.00    -0.331 N 
ATOM     23  H   UNL     1     -11.174 -44.744  29.955  1.00  0.00     0.348 HD
BRANCH  22  24
ATOM     24  C   UNL     1     -10.851 -46.146  31.416  1.00  0.00     0.299 C 
BRANCH  24  25
ATOM     25  C   UNL     1      -9.567 -45.420  31.705  1.00  0.00     0.006 A 
ATOM     26  C   UNL     1      -9.585 -44.128  32.253  1.00  0.00     0.009 A 
ATOM     27  C   UNL     1      -8.329 -46.032  31.447  1.00  0.00     0.009 A 
ATOM     28  C   UNL     1      -8.391 -43.468  32.545  1.00  0.00     0.001 A 
ATOM     29  C   UNL     1      -7.138 -45.367  31.741  1.00  0.00     0.001 A 
ATOM     30  C   UNL     1      -7.170 -44.088  32.291  1.00  0.00     0.000 A 
ENDBRANCH  24  25
ENDBRANCH  22  24
ENDBRANCH  16  17
ENDBRANCH   1  16
TORSDOF 6
ENDMDL
MODEL 2
REMARK VINA RESULT:   -11.992      0.794      1.975
REMARK INTER + INTRA:         -16.303
REMARK INTER:                 -15.925
REMARK INTRA:                  -0.377
REMARK UNBOUND:                -0.454
REMARK SMILES O=c1nc2cc(Cl)ccc2c(O)n1CC[C@H]1CC[N@H+](Cc2ccccc2)CC1
REMARK SMILES IDX 14 1 13 2 11 3 10 4 9 5 4 6 2 7 8 8 5 9 3 10 6 11 1 12 7 13
REMARK SMILES IDX 12 14 15 16 16 17 17 18 28 19 18 20 27 21 19 22 20 24 21 25
REMARK SMILES IDX 22 26 26 27 23 28 25 29 24 30
REMARK H PARENT 12 15 19 23
ROOT
ATOM      1  C   UNL     1     -14.009 -43.521  26.716  1.00  0.00     0.131 C 
ENDROOT
BRANCH   1   2
ATOM      2  N   UNL     1     -15.319 -43.090  26.232  1.00  0.00    -0.262 N 
ATOM      3  C   UNL     1     -15.587 -43.000  24.881  1.00  0.00     0.204 A 
ATOM      4  C   UNL     1     -16.794 -42.614  24.431  1.00  0.00     0.061 A 
ATOM      5  C   UNL     1     -17.222 -42.484  23.051  1.00  0.00     0.017 A 
ATOM      6  C   UNL     1     -17.764 -42.305  25.527  1.00  0.00     0.083 A 
ATOM      7  C   UNL     1     -16.298 -42.842  27.201  1.00  0.00     0.350 A 
ATOM      8  C   UNL     1     -18.463 -42.066  22.758  1.00  0.00     0.021 A 
ATOM      9  C   UNL     1     -19.111 -41.838  25.097  1.00  0.00     0.049 A 
ATOM     10  N   UNL     1     -17.529 -42.414  26.791  1.00  0.00    -0.193 NA
ATOM     11  C   UNL     1     -19.410 -41.734  23.797  1.00  0.00     0.043 A 
ATOM     12  O   UNL     1     -16.060 -43.017  28.397  1.00  0.00    -0.246 OA
ATOM     13  Cl  UNL     1     -20.975 -41.195  23.307  1.00  0.00    -0.084 Cl
BRANCH   3  14
ATOM     14  O   UNL     1     -14.535 -43.342  24.058  1.00  0.00    -0.494 OA
ATOM     15  H   UNL     1     -14.749 -44.151  23.569  1.00  0.00     0.295 HD
ENDBRANCH   3  14
ENDBRANCH   1   2
BRANCH   1  16
ATOM     16  C   UNL     1     -13.811 -45.034  26.535  1.00  0.00     0.026 C 
BRANCH  16  17
ATOM     17  C   UNL     1     -13.233 -45.740  27.779  1.00  0.00     0.002 C 
ATOM     18  C   UNL     1     -13.546 -44.913  29.035  1.00  0.00     0.065 C 
ATOM     19  C   UNL     1     -11.713 -45.943  27.661  1.00  0.00     0.065 C 
ATOM     20  C   UNL     1     -12.929 -45.514  30.289  1.00  0.00     0.262 C 
ATOM     21  C   UNL     1     -11.100 -46.529  28.925  1.00  0.00     0.262 C 
ATOM     22  N   UNL     1     -11.442 -45.654  30.105  1.00  0.00    -0.331 N 
ATOM     23  H   UNL     1     -11.058 -44.722  29.901  1.00  0.00     0.348 HD
BRANCH  22  24
ATOM     24  C   UNL     1     -10.767 -46.109  31.384  1.00  0.00     0.299 C 
BRANCH  24  25
ATOM     25  C   UNL     1      -9.550 -45.298  31.732  1.00  0.00     0.006 A 
ATOM     26  C   UNL     1      -9.681 -44.026  32.311  1.00  0.00     0.009 A 
ATOM     27  C   UNL     1      -8.263 -45.809  31.500  1.00  0.00     0.009 A 
ATOM     28  C   UNL     1      -8.550 -43.287  32.658  1.00  0.00     0.001 A 
ATOM     29  C   UNL     1      -7.135 -45.066  31.849  1.00  0.00     0.001 A 
ATOM     30  C   UNL     1      -7.279 -43.808  32.429  1.00  0.00     0.000 A 
ENDBRANCH  24  25
ENDBRANCH  22  24
ENDBRANCH  16  17
ENDBRANCH   1  16
TORSDOF 6
ENDMDL
MODEL 3
REMARK VINA RESULT:   -11.654      1.052      1.487
REMARK INTER + INTRA:         -15.855
REMARK INTER:                 -15.334
REMARK INTRA:                  -0.521
REMARK UNBOUND:                -0.454
REMARK SMILES O=c1nc2cc(Cl)ccc2c(O)n1CC[C@H]1CC[N@H+](Cc2ccccc2)CC1
REMARK SMILES IDX 14 1 13 2 11 3 10 4 9 5 4 6 2 7 8 8 5 9 3 10 6 11 1 12 7 13
REMARK SMILES IDX 12 14 15 16 16 17 17 18 28 19 18 20 27 21 19 22 20 24 21 25
REMARK SMILES IDX 22 26 26 27 23 28 25 29 24 30
REMARK H PARENT 12 15 19 23
ROOT
ATOM      1  C   UNL     1     -14.032 -43.444  26.399  1.00  0.00     0.131 C 
ENDROOT
BRANCH   1   2
ATOM      2  N   UNL     1     -15.378 -43.076  25.964  1.00  0.00    -0.262 N 
ATOM      3  C   UNL     1     -16.357 -42.739  26.876  1.00  0.00     0.204 A 
ATOM      4  C   UNL     1     -17.593 -42.390  26.479  1.00  0.00     0.061 A 
ATOM      5  C   UNL     1     -18.713 -42.003  27.315  1.00  0.00     0.017 A 
ATOM      6  C   UNL     1     -17.768 -42.415  24.993  1.00  0.00     0.083 A 
ATOM      7  C   UNL     1     -15.598 -43.019  24.582  1.00  0.00     0.350 A 
ATOM      8  C   UNL     1     -19.900 -41.697  26.769  1.00  0.00     0.021 A 
ATOM      9  C   UNL     1     -19.125 -42.072  24.488  1.00  0.00     0.049 A 
ATOM     10  N   UNL     1     -16.849 -42.702  24.134  1.00  0.00    -0.193 NA
ATOM     11  C   UNL     1     -20.103 -41.741  25.340  1.00  0.00     0.043 A 
ATOM     12  O   UNL     1     -14.682 -43.237  23.788  1.00  0.00    -0.246 OA
ATOM     13  Cl  UNL     1     -21.673 -41.341  24.745  1.00  0.00    -0.084 Cl
BRANCH   3  14
ATOM     14  O   UNL     1     -15.958 -42.783  28.195  1.00  0.00    -0.494 OA
ATOM     15  H   UNL     1     -16.188 -43.643  28.579  1.00  0.00     0.295 HD
ENDBRANCH   3  14
ENDBRANCH   1   2
BRANCH   1  16
ATOM     16  C   UNL     1     -13.983 -44.888  26.923  1.00  0.00     0.026 C 
BRANCH  16  17
ATOM     17  C   UNL     1     -12.682 -45.233  27.676  1.00  0.00     0.002 C 
ATOM     18  C   UNL     1     -13.022 -45.858  29.037  1.00  0.00     0.065 C 
ATOM     19  C   UNL     1     -11.800 -43.991  27.885  1.00  0.00     0.065 C 
ATOM     20  C   UNL     1     -11.780 -46.145  29.866  1.00  0.00     0.262 C 
ATOM     21  C   UNL     1     -10.567 -44.282  28.729  1.00  0.00     0.262 C 
ATOM     22  N   UNL     1     -10.988 -44.878  30.049  1.00  0.00    -0.331 N 
ATOM     23  H   UNL     1     -11.596 -44.185  30.503  1.00  0.00     0.348 HD
BRANCH  22  24
ATOM     24  C   UNL     1      -9.820 -45.087  30.993  1.00  0.00     0.299 C 
BRANCH  24  25
ATOM     25  C   UNL     1      -9.740 -44.046  32.074  1.00  0.00     0.006 A 
ATOM     26  C   UNL     1     -10.903 -43.423  32.554  1.00  0.00     0.009 A 
ATOM     27  C   UNL     1      -8.501 -43.693  32.634  1.00  0.00     0.009 A 
ATOM     28  C   UNL     1     -10.828 -42.477  33.577  1.00  0.00     0.001 A 
ATOM     29  C   UNL     1      -8.431 -42.746  33.656  1.00  0.00     0.001 A 
ATOM     30  C   UNL     1      -9.594 -42.141  34.128  1.00  0.00     0.000 A 
ENDBRANCH  24  25
ENDBRANCH  22  24
ENDBRANCH  16  17
ENDBRANCH   1  16
TORSDOF 6
ENDMDL
MODEL 4
REMARK VINA RESULT:   -10.617      3.745     10.070
REMARK INTER + INTRA:         -14.485
REMARK INTER:                 -14.461
REMARK INTRA:                  -0.024
REMARK UNBOUND:                -0.454
REMARK SMILES O=c1nc2cc(Cl)ccc2c(O)n1CC[C@H]1CC[N@H+](Cc2ccccc2)CC1
REMARK SMILES IDX 14 1 13 2 11 3 10 4 9 5 4 6 2 7 8 8 5 9 3 10 6 11 1 12 7 13
REMARK SMILES IDX 12 14 15 16 16 17 17 18 28 19 18 20 27 21 19 22 20 24 21 25
REMARK SMILES IDX 22 26 26 27 23 28 25 29 24 30
REMARK H PARENT 12 15 19 23
ROOT
ATOM      1  C   UNL     1     -13.698 -44.677  28.746  1.00  0.00     0.131 C 
ENDROOT
BRANCH   1   2
ATOM      2  N   UNL     1     -12.460 -44.842  29.505  1.00  0.00    -0.262 N 
ATOM      3  C   UNL     1     -11.398 -43.976  29.339  1.00  0.00     0.204 A 
ATOM      4  C   UNL     1     -10.262 -44.119  30.043  1.00  0.00     0.061 A 
ATOM      5  C   UNL     1      -9.076 -43.286  29.983  1.00  0.00     0.017 A 
ATOM      6  C   UNL     1     -10.289 -45.282  30.983  1.00  0.00     0.083 A 
ATOM      7  C   UNL     1     -12.435 -45.875  30.449  1.00  0.00     0.350 A 
ATOM      8  C   UNL     1      -8.005 -43.568  30.741  1.00  0.00     0.021 A 
ATOM      9  C   UNL     1      -9.047 -45.517  31.769  1.00  0.00     0.049 A 
ATOM     10  N   UNL     1     -11.288 -46.078  31.164  1.00  0.00    -0.193 NA
ATOM     11  C   UNL     1      -7.995 -44.702  31.635  1.00  0.00     0.043 A 
ATOM     12  O   UNL     1     -13.428 -46.578  30.642  1.00  0.00    -0.246 OA
ATOM     13  Cl  UNL     1      -6.560 -44.981  32.553  1.00  0.00    -0.084 Cl
BRANCH   3  14
ATOM     14  O   UNL     1     -11.609 -42.973  28.416  1.00  0.00    -0.494 OA
ATOM     15  H   UNL     1     -12.398 -43.173  27.888  1.00  0.00     0.295 HD
ENDBRANCH   3  14
ENDBRANCH   1   2
BRANCH   1  16
ATOM     16  C   UNL     1     -13.541 -45.164  27.297  1.00  0.00     0.026 C 
BRANCH  16  17
ATOM     17  C   UNL     1     -14.033 -44.151  26.243  1.00  0.00     0.002 C 
ATOM     18  C   UNL     1     -15.207 -43.341  26.812  1.00  0.00     0.065 C 
ATOM     19  C   UNL     1     -14.471 -44.851  24.944  1.00  0.00     0.065 C 
ATOM     20  C   UNL     1     -15.794 -42.380  25.789  1.00  0.00     0.262 C 
ATOM     21  C   UNL     1     -15.072 -43.886  23.932  1.00  0.00     0.262 C 
ATOM     22  N   UNL     1     -16.222 -43.143  24.564  1.00  0.00    -0.331 N 
ATOM     23  H   UNL     1     -16.907 -43.853  24.854  1.00  0.00     0.348 HD
BRANCH  22  24
ATOM     24  C   UNL     1     -16.948 -42.247  23.580  1.00  0.00     0.299 C 
BRANCH  24  25
ATOM     25  C   UNL     1     -18.323 -41.852  24.042  1.00  0.00     0.006 A 
ATOM     26  C   UNL     1     -19.185 -41.141  23.193  1.00  0.00     0.009 A 
ATOM     27  C   UNL     1     -18.773 -42.206  25.325  1.00  0.00     0.009 A 
ATOM     28  C   UNL     1     -20.471 -40.800  23.614  1.00  0.00     0.001 A 
ATOM     29  C   UNL     1     -20.059 -41.862  25.742  1.00  0.00     0.001 A 
ATOM     30  C   UNL     1     -20.907 -41.163  24.886  1.00  0.00     0.000 A 
ENDBRANCH  24  25
ENDBRANCH  22  24
ENDBRANCH  16  17
ENDBRANCH   1  16
TORSDOF 6
ENDMDL
MODEL 5
REMARK VINA RESULT:   -10.597      3.787      9.343
REMARK INTER + INTRA:         -14.459
REMARK INTER:                 -14.359
REMARK INTRA:                  -0.100
REMARK UNBOUND:                -0.454
REMARK SMILES O=c1nc2cc(Cl)ccc2c(O)n1CC[C@H]1CC[N@H+](Cc2ccccc2)CC1
REMARK SMILES IDX 14 1 13 2 11 3 10 4 9 5 4 6 2 7 8 8 5 9 3 10 6 11 1 12 7 13
REMARK SMILES IDX 12 14 15 16 16 17 17 18 28 19 18 20 27 21 19 22 20 24 21 25
REMARK SMILES IDX 22 26 26 27 23 28 25 29 24 30
REMARK H PARENT 12 15 19 23
ROOT
ATOM      1  C   UNL     1     -12.041 -46.232  29.962  1.00  0.00     0.131 C 
ENDROOT
BRANCH   1   2
ATOM      2  N   UNL     1     -11.555 -45.273  30.952  1.00  0.00    -0.262 N 
ATOM      3  C   UNL     1     -10.208 -45.147  31.224  1.00  0.00     0.204 A 
ATOM      4  C   UNL     1      -9.757 -44.258  32.127  1.00  0.00     0.061 A 
ATOM      5  C   UNL     1      -8.380 -44.008  32.507  1.00  0.00     0.017 A 
ATOM      6  C   UNL     1     -10.846 -43.462  32.772  1.00  0.00     0.083 A 
ATOM      7  C   UNL     1     -12.515 -44.450  31.554  1.00  0.00     0.350 A 
ATOM      8  C   UNL     1      -8.086 -43.093  33.444  1.00  0.00     0.021 A 
ATOM      9  C   UNL     1     -10.417 -42.483  33.808  1.00  0.00     0.049 A 
ATOM     10  N   UNL     1     -12.105 -43.555  32.502  1.00  0.00    -0.193 NA
ATOM     11  C   UNL     1      -9.121 -42.332  34.103  1.00  0.00     0.043 A 
ATOM     12  O   UNL     1     -13.700 -44.520  31.227  1.00  0.00    -0.246 OA
ATOM     13  Cl  UNL     1      -8.632 -41.192  35.303  1.00  0.00    -0.084 Cl
BRANCH   3  14
ATOM     14  O   UNL     1      -9.390 -45.987  30.499  1.00  0.00    -0.494 OA
ATOM     15  H   UNL     1      -9.377 -46.866  30.907  1.00  0.00     0.295 HD
ENDBRANCH   3  14
ENDBRANCH   1   2
BRANCH   1  16
ATOM     16  C   UNL     1     -11.234 -46.152  28.657  1.00  0.00     0.026 C 
BRANCH  16  17
ATOM     17  C   UNL     1     -11.910 -45.307  27.558  1.00  0.00     0.002 C 
ATOM     18  C   UNL     1     -11.854 -43.821  27.941  1.00  0.00     0.065 C 
ATOM     19  C   UNL     1     -13.373 -45.728  27.336  1.00  0.00     0.065 C 
ATOM     20  C   UNL     1     -12.580 -42.939  26.936  1.00  0.00     0.262 C 
ATOM     21  C   UNL     1     -14.097 -44.832  26.342  1.00  0.00     0.262 C 
ATOM     22  N   UNL     1     -14.007 -43.397  26.797  1.00  0.00    -0.331 N 
ATOM     23  H   UNL     1     -14.446 -43.355  27.725  1.00  0.00     0.348 HD
BRANCH  22  24
ATOM     24  C   UNL     1     -14.807 -42.455  25.918  1.00  0.00     0.299 C 
BRANCH  24  25
ATOM     25  C   UNL     1     -16.275 -42.450  26.239  1.00  0.00     0.006 A 
ATOM     26  C   UNL     1     -16.716 -42.415  27.571  1.00  0.00     0.009 A 
ATOM     27  C   UNL     1     -17.230 -42.463  25.208  1.00  0.00     0.009 A 
ATOM     28  C   UNL     1     -18.079 -42.383  27.865  1.00  0.00     0.001 A 
ATOM     29  C   UNL     1     -18.592 -42.432  25.507  1.00  0.00     0.001 A 
ATOM     30  C   UNL     1     -19.016 -42.389  26.833  1.00  0.00     0.000 A 
ENDBRANCH  24  25
ENDBRANCH  22  24
ENDBRANCH  16  17
ENDBRANCH   1  16
TORSDOF 6
ENDMDL
MODEL 6
REMARK VINA RESULT:   -10.411      3.613      9.359
REMARK INTER + INTRA:         -14.213
REMARK INTER:                 -14.760
REMARK INTRA:                   0.547
REMARK UNBOUND:                -0.454
REMARK SMILES O=c1nc2cc(Cl)ccc2c(O)n1CC[C@H]1CC[N@H+](Cc2ccccc2)CC1
REMARK SMILES IDX 14 1 13 2 11 3 10 4 9 5 4 6 2 7 8 8 5 9 3 10 6 11 1 12 7 13
REMARK SMILES IDX 12 14 15 16 16 17 17 18 28 19 18 20 27 21 19 22 20 24 21 25
REMARK SMILES IDX 22 26 26 27 23 28 25 29 24 30
REMARK H PARENT 12 15 19 23
ROOT
ATOM      1  C   UNL     1     -13.480 -45.718  28.926  1.00  0.00     0.131 C 
ENDROOT
BRANCH   1   2
ATOM      2  N   UNL     1     -12.543 -45.166  29.902  1.00  0.00    -0.262 N 
ATOM      3  C   UNL     1     -12.954 -44.249  30.848  1.00  0.00     0.204 A 
ATOM      4  C   UNL     1     -12.097 -43.747  31.754  1.00  0.00     0.061 A 
ATOM      5  C   UNL     1     -12.386 -42.792  32.807  1.00  0.00     0.017 A 
ATOM      6  C   UNL     1     -10.706 -44.277  31.614  1.00  0.00     0.083 A 
ATOM      7  C   UNL     1     -11.234 -45.662  29.869  1.00  0.00     0.350 A 
ATOM      8  C   UNL     1     -11.414 -42.368  33.629  1.00  0.00     0.021 A 
ATOM      9  C   UNL     1      -9.699 -43.734  32.565  1.00  0.00     0.049 A 
ATOM     10  N   UNL     1     -10.321 -45.155  30.750  1.00  0.00    -0.193 NA
ATOM     11  C   UNL     1     -10.057 -42.842  33.497  1.00  0.00     0.043 A 
ATOM     12  O   UNL     1     -10.915 -46.547  29.073  1.00  0.00    -0.246 OA
ATOM     13  Cl  UNL     1      -8.882 -42.220  34.598  1.00  0.00    -0.084 Cl
BRANCH   3  14
ATOM     14  O   UNL     1     -14.290 -43.913  30.785  1.00  0.00    -0.494 OA
ATOM     15  H   UNL     1     -14.496 -43.257  31.469  1.00  0.00     0.295 HD
ENDBRANCH   3  14
ENDBRANCH   1   2
BRANCH   1  16
ATOM     16  C   UNL     1     -12.927 -45.622  27.496  1.00  0.00     0.026 C 
BRANCH  16  17
ATOM     17  C   UNL     1     -13.566 -44.498  26.656  1.00  0.00     0.002 C 
ATOM     18  C   UNL     1     -14.699 -43.835  27.454  1.00  0.00     0.065 C 
ATOM     19  C   UNL     1     -14.119 -45.030  25.322  1.00  0.00     0.065 C 
ATOM     20  C   UNL     1     -15.427 -42.771  26.647  1.00  0.00     0.262 C 
ATOM     21  C   UNL     1     -14.860 -43.963  24.527  1.00  0.00     0.262 C 
ATOM     22  N   UNL     1     -15.960 -43.375  25.375  1.00  0.00    -0.331 N 
ATOM     23  H   UNL     1     -16.583 -44.152  25.629  1.00  0.00     0.348 HD
BRANCH  22  24
ATOM     24  C   UNL     1     -16.819 -42.387  24.611  1.00  0.00     0.299 C 
BRANCH  24  25
ATOM     25  C   UNL     1     -18.144 -42.123  25.270  1.00  0.00     0.006 A 
ATOM     26  C   UNL     1     -18.310 -42.326  26.649  1.00  0.00     0.009 A 
ATOM     27  C   UNL     1     -19.232 -41.650  24.518  1.00  0.00     0.009 A 
ATOM     28  C   UNL     1     -19.533 -42.054  27.262  1.00  0.00     0.001 A 
ATOM     29  C   UNL     1     -20.453 -41.380  25.136  1.00  0.00     0.001 A 
ATOM     30  C   UNL     1     -20.602 -41.579  26.506  1.00  0.00     0.000 A 
ENDBRANCH  24  25
ENDBRANCH  22  24
ENDBRANCH  16  17
ENDBRANCH   1  16
TORSDOF 6
ENDMDL
MODEL 7
REMARK VINA RESULT:   -10.318      2.220      3.465
REMARK INTER + INTRA:         -14.090
REMARK INTER:                 -13.572
REMARK INTRA:                  -0.518
REMARK UNBOUND:                -0.454
REMARK SMILES O=c1nc2cc(Cl)ccc2c(O)n1CC[C@H]1CC[N@H+](Cc2ccccc2)CC1
REMARK SMILES IDX 14 1 13 2 11 3 10 4 9 5 4 6 2 7 8 8 5 9 3 10 6 11 1 12 7 13
REMARK SMILES IDX 12 14 15 16 16 17 17 18 28 19 18 20 27 21 19 22 20 24 21 25
REMARK SMILES IDX 22 26 26 27 23 28 25 29 24 30
REMARK H PARENT 12 15 19 23
ROOT
ATOM      1  C   UNL     1     -15.941 -43.032  23.769  1.00  0.00     0.131 C 
ENDROOT
BRANCH   1   2
ATOM      2  N   UNL     1     -17.031 -42.166  23.324  1.00  0.00    -0.262 N 
ATOM      3  C   UNL     1     -18.282 -42.237  23.904  1.00  0.00     0.204 A 
ATOM      4  C   UNL     1     -19.284 -41.435  23.505  1.00  0.00     0.061 A 
ATOM      5  C   UNL     1     -20.638 -41.389  24.024  1.00  0.00     0.017 A 
ATOM      6  C   UNL     1     -18.895 -40.502  22.403  1.00  0.00     0.083 A 
ATOM      7  C   UNL     1     -16.723 -41.224  22.336  1.00  0.00     0.350 A 
ATOM      8  C   UNL     1     -21.539 -40.539  23.507  1.00  0.00     0.021 A 
ATOM      9  C   UNL     1     -19.970 -39.609  21.890  1.00  0.00     0.049 A 
ATOM     10  N   UNL     1     -17.721 -40.411  21.876  1.00  0.00    -0.193 NA
ATOM     11  C   UNL     1     -21.197 -39.649  22.423  1.00  0.00     0.043 A 
ATOM     12  O   UNL     1     -15.576 -41.120  21.899  1.00  0.00    -0.246 OA
ATOM     13  Cl  UNL     1     -22.436 -38.607  21.825  1.00  0.00    -0.084 Cl
BRANCH   3  14
ATOM     14  O   UNL     1     -18.401 -43.174  24.909  1.00  0.00    -0.494 OA
ATOM     15  H   UNL     1     -19.300 -43.537  24.914  1.00  0.00     0.295 HD
ENDBRANCH   3  14
ENDBRANCH   1   2
BRANCH   1  16
ATOM     16  C   UNL     1     -15.270 -42.487  25.039  1.00  0.00     0.026 C 
BRANCH  16  17
ATOM     17  C   UNL     1     -15.242 -43.491  26.209  1.00  0.00     0.002 C 
ATOM     18  C   UNL     1     -15.707 -42.798  27.498  1.00  0.00     0.065 C 
ATOM     19  C   UNL     1     -13.836 -44.080  26.418  1.00  0.00     0.065 C 
ATOM     20  C   UNL     1     -15.622 -43.715  28.709  1.00  0.00     0.262 C 
ATOM     21  C   UNL     1     -13.755 -44.984  27.641  1.00  0.00     0.262 C 
ATOM     22  N   UNL     1     -14.214 -44.225  28.861  1.00  0.00    -0.331 N 
ATOM     23  H   UNL     1     -13.590 -43.414  28.954  1.00  0.00     0.348 HD
BRANCH  22  24
ATOM     24  C   UNL     1     -14.050 -45.023  30.139  1.00  0.00     0.299 C 
BRANCH  24  25
ATOM     25  C   UNL     1     -12.655 -44.968  30.696  1.00  0.00     0.006 A 
ATOM     26  C   UNL     1     -12.167 -43.791  31.287  1.00  0.00     0.009 A 
ATOM     27  C   UNL     1     -11.824 -46.100  30.651  1.00  0.00     0.009 A 
ATOM     28  C   UNL     1     -10.882 -43.751  31.827  1.00  0.00     0.001 A 
ATOM     29  C   UNL     1     -10.539 -46.055  31.193  1.00  0.00     0.001 A 
ATOM     30  C   UNL     1     -10.070 -44.883  31.782  1.00  0.00     0.000 A 
ENDBRANCH  24  25
ENDBRANCH  22  24
ENDBRANCH  16  17
ENDBRANCH   1  16
TORSDOF 6
ENDMDL
MODEL 8
REMARK VINA RESULT:   -10.021      3.680     10.000
REMARK INTER + INTRA:         -13.697
REMARK INTER:                 -14.230
REMARK INTRA:                   0.533
REMARK UNBOUND:                -0.454
REMARK SMILES O=c1nc2cc(Cl)ccc2c(O)n1CC[C@H]1CC[N@H+](Cc2ccccc2)CC1
REMARK SMILES IDX 14 1 13 2 11 3 10 4 9 5 4 6 2 7 8 8 5 9 3 10 6 11 1 12 7 13
REMARK SMILES IDX 12 14 15 16 16 17 17 18 28 19 18 20 27 21 19 22 20 24 21 25
REMARK SMILES IDX 22 26 26 27 23 28 25 29 24 30
REMARK H PARENT 12 15 19 23
ROOT
ATOM      1  C   UNL     1     -13.883 -44.575  27.884  1.00  0.00     0.131 C 
ENDROOT
BRANCH   1   2
ATOM      2  N   UNL     1     -12.579 -44.558  28.543  1.00  0.00    -0.262 N 
ATOM      3  C   UNL     1     -12.220 -45.540  29.444  1.00  0.00     0.204 A 
ATOM      4  C   UNL     1     -11.018 -45.534  30.044  1.00  0.00     0.061 A 
ATOM      5  C   UNL     1     -10.502 -46.498  30.997  1.00  0.00     0.017 A 
ATOM      6  C   UNL     1     -10.156 -44.382  29.635  1.00  0.00     0.083 A 
ATOM      7  C   UNL     1     -11.695 -43.541  28.163  1.00  0.00     0.350 A 
ATOM      8  C   UNL     1      -9.278 -46.347  31.527  1.00  0.00     0.021 A 
ATOM      9  C   UNL     1      -8.822 -44.297  30.290  1.00  0.00     0.049 A 
ATOM     10  N   UNL     1     -10.473 -43.477  28.772  1.00  0.00    -0.193 NA
ATOM     11  C   UNL     1      -8.438 -45.228  31.171  1.00  0.00     0.043 A 
ATOM     12  O   UNL     1     -12.005 -42.730  27.289  1.00  0.00    -0.246 OA
ATOM     13  Cl  UNL     1      -6.888 -45.123  31.923  1.00  0.00    -0.084 Cl
BRANCH   3  14
ATOM     14  O   UNL     1     -13.181 -46.506  29.659  1.00  0.00    -0.494 OA
ATOM     15  H   UNL     1     -13.498 -46.456  30.574  1.00  0.00     0.295 HD
ENDBRANCH   3  14
ENDBRANCH   1   2
BRANCH   1  16
ATOM     16  C   UNL     1     -13.750 -44.842  26.376  1.00  0.00     0.026 C 
BRANCH  16  17
ATOM     17  C   UNL     1     -14.493 -43.817  25.495  1.00  0.00     0.002 C 
ATOM     18  C   UNL     1     -15.646 -43.188  26.292  1.00  0.00     0.065 C 
ATOM     19  C   UNL     1     -15.045 -44.464  24.213  1.00  0.00     0.065 C 
ATOM     20  C   UNL     1     -16.472 -42.227  25.450  1.00  0.00     0.262 C 
ATOM     21  C   UNL     1     -15.884 -43.502  23.384  1.00  0.00     0.262 C 
ATOM     22  N   UNL     1     -16.997 -42.942  24.234  1.00  0.00    -0.331 N 
ATOM     23  H   UNL     1     -17.555 -43.744  24.552  1.00  0.00     0.348 HD
BRANCH  22  24
ATOM     24  C   UNL     1     -17.947 -42.064  23.444  1.00  0.00     0.299 C 
BRANCH  24  25
ATOM     25  C   UNL     1     -19.176 -41.675  24.218  1.00  0.00     0.006 A 
ATOM     26  C   UNL     1     -19.294 -41.997  25.579  1.00  0.00     0.009 A 
ATOM     27  C   UNL     1     -20.217 -40.967  23.595  1.00  0.00     0.009 A 
ATOM     28  C   UNL     1     -20.424 -41.612  26.302  1.00  0.00     0.001 A 
ATOM     29  C   UNL     1     -21.344 -40.585  24.322  1.00  0.00     0.001 A 
ATOM     30  C   UNL     1     -21.446 -40.905  25.673  1.00  0.00     0.000 A 
ENDBRANCH  24  25
ENDBRANCH  22  24
ENDBRANCH  16  17
ENDBRANCH   1  16
TORSDOF 6
ENDMDL
MODEL 9
REMARK VINA RESULT:    -9.896      3.565      8.417
REMARK INTER + INTRA:         -13.532
REMARK INTER:                 -13.249
REMARK INTRA:                  -0.283
REMARK UNBOUND:                -0.454
REMARK SMILES O=c1nc2cc(Cl)ccc2c(O)n1CC[C@H]1CC[N@H+](Cc2ccccc2)CC1
REMARK SMILES IDX 14 1 13 2 11 3 10 4 9 5 4 6 2 7 8 8 5 9 3 10 6 11 1 12 7 13
REMARK SMILES IDX 12 14 15 16 16 17 17 18 28 19 18 20 27 21 19 22 20 24 21 25
REMARK SMILES IDX 22 26 26 27 23 28 25 29 24 30
REMARK H PARENT 12 15 19 23
ROOT
ATOM      1  C   UNL     1     -10.830 -46.538  29.914  1.00  0.00     0.131 C 
ENDROOT
BRANCH   1   2
ATOM      2  N   UNL     1     -11.328 -45.494  30.808  1.00  0.00    -0.262 N 
ATOM      3  C   UNL     1     -12.598 -45.557  31.343  1.00  0.00     0.204 A 
ATOM      4  C   UNL     1     -13.055 -44.605  32.175  1.00  0.00     0.061 A 
ATOM      5  C   UNL     1     -14.354 -44.543  32.817  1.00  0.00     0.017 A 
ATOM      6  C   UNL     1     -12.062 -43.517  32.433  1.00  0.00     0.083 A 
ATOM      7  C   UNL     1     -10.430 -44.474  31.144  1.00  0.00     0.350 A 
ATOM      8  C   UNL     1     -14.674 -43.511  33.613  1.00  0.00     0.021 A 
ATOM      9  C   UNL     1     -12.518 -42.411  33.320  1.00  0.00     0.049 A 
ATOM     10  N   UNL     1     -10.863 -43.466  31.960  1.00  0.00    -0.193 NA
ATOM     11  C   UNL     1     -13.744 -42.434  33.857  1.00  0.00     0.043 A 
ATOM     12  O   UNL     1      -9.272 -44.489  30.725  1.00  0.00    -0.246 OA
ATOM     13  Cl  UNL     1     -14.263 -41.149  34.886  1.00  0.00    -0.084 Cl
BRANCH   3  14
ATOM     14  O   UNL     1     -13.332 -46.661  30.963  1.00  0.00    -0.494 OA
ATOM     15  H   UNL     1     -13.547 -46.604  30.019  1.00  0.00     0.295 HD
ENDBRANCH   3  14
ENDBRANCH   1   2
BRANCH   1  16
ATOM     16  C   UNL     1     -11.281 -46.300  28.464  1.00  0.00     0.026 C 
BRANCH  16  17
ATOM     17  C   UNL     1     -12.201 -45.074  28.291  1.00  0.00     0.002 C 
ATOM     18  C   UNL     1     -13.408 -45.452  27.420  1.00  0.00     0.065 C 
ATOM     19  C   UNL     1     -11.455 -43.890  27.653  1.00  0.00     0.065 C 
ATOM     20  C   UNL     1     -14.313 -44.261  27.141  1.00  0.00     0.262 C 
ATOM     21  C   UNL     1     -12.370 -42.708  27.362  1.00  0.00     0.262 C 
ATOM     22  N   UNL     1     -13.517 -43.160  26.493  1.00  0.00    -0.331 N 
ATOM     23  H   UNL     1     -13.103 -43.533  25.629  1.00  0.00     0.348 HD
BRANCH  22  24
ATOM     24  C   UNL     1     -14.409 -42.012  26.063  1.00  0.00     0.299 C 
BRANCH  24  25
ATOM     25  C   UNL     1     -15.588 -42.455  25.243  1.00  0.00     0.006 A 
ATOM     26  C   UNL     1     -16.877 -42.479  25.798  1.00  0.00     0.009 A 
ATOM     27  C   UNL     1     -15.420 -42.834  23.900  1.00  0.00     0.009 A 
ATOM     28  C   UNL     1     -17.973 -42.864  25.027  1.00  0.00     0.001 A 
ATOM     29  C   UNL     1     -16.520 -43.219  23.133  1.00  0.00     0.001 A 
ATOM     30  C   UNL     1     -17.794 -43.232  23.695  1.00  0.00     0.000 A 
ENDBRANCH  24  25
ENDBRANCH  22  24
ENDBRANCH  16  17
ENDBRANCH   1  16
TORSDOF 6
ENDMDL
