MODEL 1
REMARK VINA RESULT:   -12.261      0.000      0.000
REMARK INTER + INTRA:         -17.117
REMARK INTER:                 -16.561
REMARK INTRA:                  -0.556
REMARK UNBOUND:                -0.556
REMARK SMILES COc1cc2c(cc1OC)C(=O)/C(=C/c1cc[n+](Cc3ccccc3C)cc1)C2
REMARK SMILES IDX 15 1 16 2 17 3 18 4 27 5 28 6 14 7 13 8 3 9 4 10 8 11 5 12
REMARK SMILES IDX 7 13 6 14 29 15 11 16 12 17 2 18 1 19 9 20 10 21 19 22 20 23
REMARK SMILES IDX 21 24 25 25 22 26 24 27 23 28 26 29
REMARK H PARENT
ROOT
ATOM      1  C   UNL     1     -13.088 -44.115  27.571  1.00  0.00    -0.013 A 
ATOM      2  C   UNL     1     -13.822 -45.049  28.298  1.00  0.00     0.079 A 
ATOM      3  C   UNL     1     -13.369 -45.457  29.547  1.00  0.00     0.309 A 
ATOM      4  N   UNL     1     -12.224 -44.953  30.066  1.00  0.00    -0.201 N 
ATOM      5  C   UNL     1     -11.505 -44.035  29.380  1.00  0.00     0.309 A 
ATOM      6  C   UNL     1     -11.919 -43.601  28.126  1.00  0.00     0.079 A 
ENDROOT
BRANCH   1   7
ATOM      7  C   UNL     1     -13.590 -43.657  26.278  1.00  0.00     0.016 C 
BRANCH   7   8
ATOM      8  C   UNL     1     -14.856 -43.295  26.030  1.00  0.00     0.005 C 
ATOM      9  C   UNL     1     -19.279 -41.865  25.270  1.00  0.00     0.161 A 
ATOM     10  C   UNL     1     -18.357 -42.050  26.313  1.00  0.00     0.055 A 
ATOM     11  C   UNL     1     -18.918 -42.166  23.925  1.00  0.00     0.161 A 
ATOM     12  C   UNL     1     -17.094 -42.528  26.006  1.00  0.00    -0.028 A 
ATOM     13  C   UNL     1     -17.640 -42.649  23.631  1.00  0.00     0.063 A 
ATOM     14  C   UNL     1     -16.760 -42.816  24.684  1.00  0.00     0.030 A 
ATOM     15  C   UNL     1     -15.954 -42.806  26.941  1.00  0.00     0.076 C 
ATOM     16  C   UNL     1     -15.379 -43.299  24.628  1.00  0.00     0.189 C 
ATOM     17  O   UNL     1     -14.773 -43.637  23.632  1.00  0.00    -0.289 OA
BRANCH   9  18
ATOM     18  O   UNL     1     -20.559 -41.399  25.448  1.00  0.00    -0.493 OA
ATOM     19  C   UNL     1     -21.021 -41.206  26.777  1.00  0.00     0.278 C 
ENDBRANCH   9  18
BRANCH  11  20
ATOM     20  O   UNL     1     -19.895 -41.951  22.984  1.00  0.00    -0.493 OA
ATOM     21  C   UNL     1     -19.767 -40.810  22.146  1.00  0.00     0.278 C 
ENDBRANCH  11  20
ENDBRANCH   7   8
ENDBRANCH   1   7
BRANCH   4  22
ATOM     22  C   UNL     1     -11.775 -45.394  31.415  1.00  0.00     0.393 C 
BRANCH  22  23
ATOM     23  C   UNL     1     -10.267 -45.386  31.516  1.00  0.00     0.020 A 
ATOM     24  C   UNL     1      -9.545 -46.462  30.961  1.00  0.00     0.010 A 
ATOM     25  C   UNL     1      -9.558 -44.335  32.139  1.00  0.00    -0.042 A 
ATOM     26  C   UNL     1      -8.154 -46.510  31.040  1.00  0.00     0.001 A 
ATOM     27  C   UNL     1      -8.157 -44.402  32.211  1.00  0.00     0.004 A 
ATOM     28  C   UNL     1      -7.462 -45.482  31.668  1.00  0.00     0.000 A 
ATOM     29  C   UNL     1     -10.243 -43.128  32.725  1.00  0.00     0.045 C 
ENDBRANCH  22  23
ENDBRANCH   4  22
TORSDOF 6
ENDMDL
MODEL 2
REMARK VINA RESULT:   -12.139      0.441      1.661
REMARK INTER + INTRA:         -16.952
REMARK INTER:                 -16.469
REMARK INTRA:                  -0.483
REMARK UNBOUND:                -0.556
REMARK SMILES COc1cc2c(cc1OC)C(=O)/C(=C/c1cc[n+](Cc3ccccc3C)cc1)C2
REMARK SMILES IDX 15 1 16 2 17 3 18 4 27 5 28 6 14 7 13 8 3 9 4 10 8 11 5 12
REMARK SMILES IDX 7 13 6 14 29 15 11 16 12 17 2 18 1 19 9 20 10 21 19 22 20 23
REMARK SMILES IDX 21 24 25 25 22 26 24 27 23 28 26 29
REMARK H PARENT
ROOT
ATOM      1  C   UNL     1     -13.046 -44.175  27.628  1.00  0.00    -0.013 A 
ATOM      2  C   UNL     1     -11.768 -43.844  28.070  1.00  0.00     0.079 A 
ATOM      3  C   UNL     1     -11.293 -44.381  29.261  1.00  0.00     0.309 A 
ATOM      4  N   UNL     1     -12.058 -45.226  29.993  1.00  0.00    -0.201 N 
ATOM      5  C   UNL     1     -13.297 -45.568  29.572  1.00  0.00     0.309 A 
ATOM      6  C   UNL     1     -13.815 -45.053  28.389  1.00  0.00     0.079 A 
ENDROOT
BRANCH   1   7
ATOM      7  C   UNL     1     -13.526 -43.643  26.355  1.00  0.00     0.016 C 
BRANCH   7   8
ATOM      8  C   UNL     1     -14.792 -43.287  26.098  1.00  0.00     0.005 C 
ATOM      9  C   UNL     1     -19.217 -41.881  25.310  1.00  0.00     0.161 A 
ATOM     10  C   UNL     1     -18.302 -42.064  26.359  1.00  0.00     0.055 A 
ATOM     11  C   UNL     1     -18.845 -42.176  23.967  1.00  0.00     0.161 A 
ATOM     12  C   UNL     1     -17.034 -42.533  26.060  1.00  0.00    -0.028 A 
ATOM     13  C   UNL     1     -17.561 -42.650  23.680  1.00  0.00     0.063 A 
ATOM     14  C   UNL     1     -16.689 -42.816  24.740  1.00  0.00     0.030 A 
ATOM     15  C   UNL     1     -15.900 -42.808  27.003  1.00  0.00     0.076 C 
ATOM     16  C   UNL     1     -15.304 -43.290  24.692  1.00  0.00     0.189 C 
ATOM     17  O   UNL     1     -14.689 -43.621  23.700  1.00  0.00    -0.289 OA
BRANCH   9  18
ATOM     18  O   UNL     1     -20.501 -41.423  25.480  1.00  0.00    -0.493 OA
ATOM     19  C   UNL     1     -21.021 -41.364  26.800  1.00  0.00     0.278 C 
ENDBRANCH   9  18
BRANCH  11  20
ATOM     20  O   UNL     1     -19.816 -41.963  23.019  1.00  0.00    -0.493 OA
ATOM     21  C   UNL     1     -19.559 -40.991  22.014  1.00  0.00     0.278 C 
ENDBRANCH  11  20
ENDBRANCH   7   8
ENDBRANCH   1   7
BRANCH   4  22
ATOM     22  C   UNL     1     -11.514 -45.800  31.253  1.00  0.00     0.393 C 
BRANCH  22  23
ATOM     23  C   UNL     1     -10.398 -44.945  31.805  1.00  0.00     0.020 A 
ATOM     24  C   UNL     1     -10.728 -43.752  32.480  1.00  0.00     0.010 A 
ATOM     25  C   UNL     1      -9.037 -45.303  31.675  1.00  0.00    -0.042 A 
ATOM     26  C   UNL     1      -9.735 -42.920  32.996  1.00  0.00     0.001 A 
ATOM     27  C   UNL     1      -8.052 -44.451  32.199  1.00  0.00     0.004 A 
ATOM     28  C   UNL     1      -8.398 -43.268  32.852  1.00  0.00     0.000 A 
ATOM     29  C   UNL     1      -8.592 -46.576  31.004  1.00  0.00     0.045 C 
ENDBRANCH  22  23
ENDBRANCH   4  22
TORSDOF 6
ENDMDL
MODEL 3
REMARK VINA RESULT:   -10.975      1.030      1.998
REMARK INTER + INTRA:         -15.381
REMARK INTER:                 -15.691
REMARK INTRA:                   0.310
REMARK UNBOUND:                -0.556
REMARK SMILES COc1cc2c(cc1OC)C(=O)/C(=C/c1cc[n+](Cc3ccccc3C)cc1)C2
REMARK SMILES IDX 15 1 16 2 17 3 18 4 27 5 28 6 14 7 13 8 3 9 4 10 8 11 5 12
REMARK SMILES IDX 7 13 6 14 29 15 11 16 12 17 2 18 1 19 9 20 10 21 19 22 20 23
REMARK SMILES IDX 21 24 25 25 22 26 24 27 23 28 26 29
REMARK H PARENT
ROOT
ATOM      1  C   UNL     1     -13.013 -44.248  27.339  1.00  0.00    -0.013 A 
ATOM      2  C   UNL     1     -13.481 -45.464  27.831  1.00  0.00     0.079 A 
ATOM      3  C   UNL     1     -13.084 -45.893  29.093  1.00  0.00     0.309 A 
ATOM      4  N   UNL     1     -12.251 -45.138  29.849  1.00  0.00    -0.201 N 
ATOM      5  C   UNL     1     -11.797 -43.949  29.392  1.00  0.00     0.309 A 
ATOM      6  C   UNL     1     -12.166 -43.482  28.135  1.00  0.00     0.079 A 
ENDROOT
BRANCH   1   7
ATOM      7  C   UNL     1     -13.467 -43.781  26.031  1.00  0.00     0.016 C 
BRANCH   7   8
ATOM      8  C   UNL     1     -14.715 -43.384  25.748  1.00  0.00     0.005 C 
ATOM      9  C   UNL     1     -19.114 -42.134  24.622  1.00  0.00     0.161 A 
ATOM     10  C   UNL     1     -17.899 -42.502  24.023  1.00  0.00     0.055 A 
ATOM     11  C   UNL     1     -19.228 -42.061  26.040  1.00  0.00     0.161 A 
ATOM     12  C   UNL     1     -16.818 -42.793  24.839  1.00  0.00    -0.028 A 
ATOM     13  C   UNL     1     -18.128 -42.357  26.851  1.00  0.00     0.063 A 
ATOM     14  C   UNL     1     -16.949 -42.716  26.224  1.00  0.00     0.030 A 
ATOM     15  C   UNL     1     -15.433 -43.201  24.433  1.00  0.00     0.076 C 
ATOM     16  C   UNL     1     -15.675 -43.072  26.852  1.00  0.00     0.189 C 
ATOM     17  O   UNL     1     -15.443 -43.108  28.043  1.00  0.00    -0.289 OA
BRANCH   9  18
ATOM     18  O   UNL     1     -20.254 -41.822  23.921  1.00  0.00    -0.493 OA
ATOM     19  C   UNL     1     -20.339 -40.540  23.318  1.00  0.00     0.278 C 
ENDBRANCH   9  18
BRANCH  11  20
ATOM     20  O   UNL     1     -20.460 -41.690  26.520  1.00  0.00    -0.493 OA
ATOM     21  C   UNL     1     -21.393 -42.720  26.818  1.00  0.00     0.278 C 
ENDBRANCH  11  20
ENDBRANCH   7   8
ENDBRANCH   1   7
BRANCH   4  22
ATOM     22  C   UNL     1     -11.859 -45.614  31.203  1.00  0.00     0.393 C 
BRANCH  22  23
ATOM     23  C   UNL     1     -10.366 -45.501  31.410  1.00  0.00     0.020 A 
ATOM     24  C   UNL     1      -9.534 -46.528  30.921  1.00  0.00     0.010 A 
ATOM     25  C   UNL     1      -9.776 -44.398  32.067  1.00  0.00    -0.042 A 
ATOM     26  C   UNL     1      -8.152 -46.478  31.097  1.00  0.00     0.001 A 
ATOM     27  C   UNL     1      -8.383 -44.367  32.237  1.00  0.00     0.004 A 
ATOM     28  C   UNL     1      -7.578 -45.400  31.759  1.00  0.00     0.000 A 
ATOM     29  C   UNL     1     -10.583 -43.236  32.588  1.00  0.00     0.045 C 
ENDBRANCH  22  23
ENDBRANCH   4  22
TORSDOF 6
ENDMDL
MODEL 4
REMARK VINA RESULT:   -10.782      3.890     10.244
REMARK INTER + INTRA:         -15.119
REMARK INTER:                 -14.409
REMARK INTRA:                  -0.711
REMARK UNBOUND:                -0.556
REMARK SMILES COc1cc2c(cc1OC)C(=O)/C(=C/c1cc[n+](Cc3ccccc3C)cc1)C2
REMARK SMILES IDX 15 1 16 2 17 3 18 4 27 5 28 6 14 7 13 8 3 9 4 10 8 11 5 12
REMARK SMILES IDX 7 13 6 14 29 15 11 16 12 17 2 18 1 19 9 20 10 21 19 22 20 23
REMARK SMILES IDX 21 24 25 25 22 26 24 27 23 28 26 29
REMARK H PARENT
ROOT
ATOM      1  C   UNL     1     -12.446 -45.166  27.709  1.00  0.00    -0.013 A 
ATOM      2  C   UNL     1     -12.274 -43.790  27.588  1.00  0.00     0.079 A 
ATOM      3  C   UNL     1     -13.041 -43.080  26.672  1.00  0.00     0.309 A 
ATOM      4  N   UNL     1     -13.957 -43.712  25.900  1.00  0.00    -0.201 N 
ATOM      5  C   UNL     1     -14.147 -45.047  26.014  1.00  0.00     0.309 A 
ATOM      6  C   UNL     1     -13.399 -45.797  26.914  1.00  0.00     0.079 A 
ENDROOT
BRANCH   1   7
ATOM      7  C   UNL     1     -11.668 -45.902  28.704  1.00  0.00     0.016 C 
BRANCH   7   8
ATOM      8  C   UNL     1     -10.939 -45.341  29.678  1.00  0.00     0.005 C 
ATOM      9  C   UNL     1      -8.273 -43.276  32.965  1.00  0.00     0.161 A 
ATOM     10  C   UNL     1      -8.162 -43.959  31.744  1.00  0.00     0.055 A 
ATOM     11  C   UNL     1      -9.550 -43.046  33.552  1.00  0.00     0.161 A 
ATOM     12  C   UNL     1      -9.319 -44.402  31.123  1.00  0.00    -0.028 A 
ATOM     13  C   UNL     1     -10.709 -43.499  32.915  1.00  0.00     0.063 A 
ATOM     14  C   UNL     1     -10.560 -44.167  31.713  1.00  0.00     0.030 A 
ATOM     15  C   UNL     1      -9.450 -45.149  29.830  1.00  0.00     0.076 C 
ATOM     16  C   UNL     1     -11.613 -44.726  30.864  1.00  0.00     0.189 C 
ATOM     17  O   UNL     1     -12.807 -44.696  31.081  1.00  0.00    -0.289 OA
BRANCH   9  18
ATOM     18  O   UNL     1      -7.201 -42.790  33.675  1.00  0.00    -0.493 OA
ATOM     19  C   UNL     1      -5.896 -43.139  33.238  1.00  0.00     0.278 C 
ENDBRANCH   9  18
BRANCH  11  20
ATOM     20  O   UNL     1      -9.544 -42.370  34.747  1.00  0.00    -0.493 OA
ATOM     21  C   UNL     1     -10.488 -41.321  34.920  1.00  0.00     0.278 C 
ENDBRANCH  11  20
ENDBRANCH   7   8
ENDBRANCH   1   7
BRANCH   4  22
ATOM     22  C   UNL     1     -14.778 -42.923  24.942  1.00  0.00     0.393 C 
BRANCH  22  23
ATOM     23  C   UNL     1     -16.185 -42.732  25.459  1.00  0.00     0.020 A 
ATOM     24  C   UNL     1     -16.384 -42.584  26.847  1.00  0.00     0.010 A 
ATOM     25  C   UNL     1     -17.306 -42.688  24.599  1.00  0.00    -0.042 A 
ATOM     26  C   UNL     1     -17.663 -42.419  27.376  1.00  0.00     0.001 A 
ATOM     27  C   UNL     1     -18.586 -42.525  25.152  1.00  0.00     0.004 A 
ATOM     28  C   UNL     1     -18.764 -42.393  26.528  1.00  0.00     0.000 A 
ATOM     29  C   UNL     1     -17.186 -42.800  23.102  1.00  0.00     0.045 C 
ENDBRANCH  22  23
ENDBRANCH   4  22
TORSDOF 6
ENDMDL
MODEL 5
REMARK VINA RESULT:   -10.731      1.868      3.678
REMARK INTER + INTRA:         -15.051
REMARK INTER:                 -14.571
REMARK INTRA:                  -0.480
REMARK UNBOUND:                -0.556
REMARK SMILES COc1cc2c(cc1OC)C(=O)/C(=C/c1cc[n+](Cc3ccccc3C)cc1)C2
REMARK SMILES IDX 15 1 16 2 17 3 18 4 27 5 28 6 14 7 13 8 3 9 4 10 8 11 5 12
REMARK SMILES IDX 7 13 6 14 29 15 11 16 12 17 2 18 1 19 9 20 10 21 19 22 20 23
REMARK SMILES IDX 21 24 25 25 22 26 24 27 23 28 26 29
REMARK H PARENT
ROOT
ATOM      1  C   UNL     1     -11.468 -45.587  28.576  1.00  0.00    -0.013 A 
ATOM      2  C   UNL     1     -10.937 -44.309  28.429  1.00  0.00     0.079 A 
ATOM      3  C   UNL     1      -9.936 -43.878  29.292  1.00  0.00     0.309 A 
ATOM      4  N   UNL     1      -9.468 -44.691  30.269  1.00  0.00    -0.201 N 
ATOM      5  C   UNL     1      -9.964 -45.941  30.418  1.00  0.00     0.309 A 
ATOM      6  C   UNL     1     -10.968 -46.412  29.580  1.00  0.00     0.079 A 
ENDROOT
BRANCH   1   7
ATOM      7  C   UNL     1     -12.490 -46.051  27.640  1.00  0.00     0.016 C 
BRANCH   7   8
ATOM      8  C   UNL     1     -13.406 -45.269  27.052  1.00  0.00     0.005 C 
ATOM      9  C   UNL     1     -16.658 -42.664  24.857  1.00  0.00     0.161 A 
ATOM     10  C   UNL     1     -15.555 -43.488  24.582  1.00  0.00     0.055 A 
ATOM     11  C   UNL     1     -17.066 -42.426  26.200  1.00  0.00     0.161 A 
ATOM     12  C   UNL     1     -14.876 -44.064  25.644  1.00  0.00    -0.028 A 
ATOM     13  C   UNL     1     -16.371 -43.014  27.261  1.00  0.00     0.063 A 
ATOM     14  C   UNL     1     -15.291 -43.819  26.951  1.00  0.00     0.030 A 
ATOM     15  C   UNL     1     -13.679 -44.967  25.599  1.00  0.00     0.076 C 
ATOM     16  C   UNL     1     -14.417 -44.540  27.879  1.00  0.00     0.189 C 
ATOM     17  O   UNL     1     -14.499 -44.547  29.090  1.00  0.00    -0.289 OA
BRANCH   9  18
ATOM     18  O   UNL     1     -17.409 -42.038  23.891  1.00  0.00    -0.493 OA
ATOM     19  C   UNL     1     -16.777 -41.701  22.666  1.00  0.00     0.278 C 
ENDBRANCH   9  18
BRANCH  11  20
ATOM     20  O   UNL     1     -18.155 -41.604  26.355  1.00  0.00    -0.493 OA
ATOM     21  C   UNL     1     -19.159 -42.002  27.279  1.00  0.00     0.278 C 
ENDBRANCH  11  20
ENDBRANCH   7   8
ENDBRANCH   1   7
BRANCH   4  22
ATOM     22  C   UNL     1      -8.382 -44.209  31.165  1.00  0.00     0.393 C 
BRANCH  22  23
ATOM     23  C   UNL     1      -8.946 -43.488  32.367  1.00  0.00     0.020 A 
ATOM     24  C   UNL     1     -10.343 -43.334  32.472  1.00  0.00     0.010 A 
ATOM     25  C   UNL     1      -8.122 -42.973  33.393  1.00  0.00    -0.042 A 
ATOM     26  C   UNL     1     -10.912 -42.665  33.553  1.00  0.00     0.001 A 
ATOM     27  C   UNL     1      -8.714 -42.299  34.473  1.00  0.00     0.004 A 
ATOM     28  C   UNL     1     -10.098 -42.145  34.552  1.00  0.00     0.000 A 
ATOM     29  C   UNL     1      -6.623 -43.124  33.384  1.00  0.00     0.045 C 
ENDBRANCH  22  23
ENDBRANCH   4  22
TORSDOF 6
ENDMDL
MODEL 6
REMARK VINA RESULT:   -10.609      2.551      4.253
REMARK INTER + INTRA:         -14.886
REMARK INTER:                 -14.400
REMARK INTRA:                  -0.485
REMARK UNBOUND:                -0.556
REMARK SMILES COc1cc2c(cc1OC)C(=O)/C(=C/c1cc[n+](Cc3ccccc3C)cc1)C2
REMARK SMILES IDX 15 1 16 2 17 3 18 4 27 5 28 6 14 7 13 8 3 9 4 10 8 11 5 12
REMARK SMILES IDX 7 13 6 14 29 15 11 16 12 17 2 18 1 19 9 20 10 21 19 22 20 23
REMARK SMILES IDX 21 24 25 25 22 26 24 27 23 28 26 29
REMARK H PARENT
ROOT
ATOM      1  C   UNL     1     -15.534 -43.054  24.395  1.00  0.00    -0.013 A 
ATOM      2  C   UNL     1     -14.767 -44.213  24.327  1.00  0.00     0.079 A 
ATOM      3  C   UNL     1     -14.171 -44.711  25.480  1.00  0.00     0.309 A 
ATOM      4  N   UNL     1     -14.332 -44.082  26.669  1.00  0.00    -0.201 N 
ATOM      5  C   UNL     1     -15.085 -42.961  26.755  1.00  0.00     0.309 A 
ATOM      6  C   UNL     1     -15.697 -42.426  25.627  1.00  0.00     0.079 A 
ENDROOT
BRANCH   1   7
ATOM      7  C   UNL     1     -16.194 -42.559  23.189  1.00  0.00     0.016 C 
BRANCH   7   8
ATOM      8  C   UNL     1     -17.425 -42.033  23.147  1.00  0.00     0.005 C 
ATOM      9  C   UNL     1     -21.749 -40.166  23.196  1.00  0.00     0.161 A 
ATOM     10  C   UNL     1     -20.974 -41.136  23.851  1.00  0.00     0.055 A 
ATOM     11  C   UNL     1     -21.198 -39.398  22.131  1.00  0.00     0.161 A 
ATOM     12  C   UNL     1     -19.664 -41.327  23.441  1.00  0.00    -0.028 A 
ATOM     13  C   UNL     1     -19.875 -39.602  21.728  1.00  0.00     0.063 A 
ATOM     14  C   UNL     1     -19.143 -40.565  22.398  1.00  0.00     0.030 A 
ATOM     15  C   UNL     1     -18.655 -42.297  23.981  1.00  0.00     0.076 C 
ATOM     16  C   UNL     1     -17.751 -40.954  22.163  1.00  0.00     0.189 C 
ATOM     17  O   UNL     1     -17.002 -40.489  21.328  1.00  0.00    -0.289 OA
BRANCH   9  18
ATOM     18  O   UNL     1     -23.057 -39.886  23.511  1.00  0.00    -0.493 OA
ATOM     19  C   UNL     1     -23.483 -40.097  24.849  1.00  0.00     0.278 C 
ENDBRANCH   9  18
BRANCH  11  20
ATOM     20  O   UNL     1     -22.043 -38.479  21.560  1.00  0.00    -0.493 OA
ATOM     21  C   UNL     1     -22.442 -38.693  20.212  1.00  0.00     0.278 C 
ENDBRANCH  11  20
ENDBRANCH   7   8
ENDBRANCH   1   7
BRANCH   4  22
ATOM     22  C   UNL     1     -13.698 -44.649  27.890  1.00  0.00     0.393 C 
BRANCH  22  23
ATOM     23  C   UNL     1     -12.277 -44.158  28.044  1.00  0.00     0.020 A 
ATOM     24  C   UNL     1     -11.952 -42.865  27.587  1.00  0.00     0.010 A 
ATOM     25  C   UNL     1     -11.267 -44.948  28.637  1.00  0.00    -0.042 A 
ATOM     26  C   UNL     1     -10.654 -42.371  27.693  1.00  0.00     0.001 A 
ATOM     27  C   UNL     1      -9.963 -44.434  28.732  1.00  0.00     0.004 A 
ATOM     28  C   UNL     1      -9.659 -43.157  28.262  1.00  0.00     0.000 A 
ATOM     29  C   UNL     1     -11.529 -46.326  29.187  1.00  0.00     0.045 C 
ENDBRANCH  22  23
ENDBRANCH   4  22
TORSDOF 6
ENDMDL
MODEL 7
REMARK VINA RESULT:   -10.495      3.582     10.317
REMARK INTER + INTRA:         -14.732
REMARK INTER:                 -14.268
REMARK INTRA:                  -0.464
REMARK UNBOUND:                -0.556
REMARK SMILES COc1cc2c(cc1OC)C(=O)/C(=C/c1cc[n+](Cc3ccccc3C)cc1)C2
REMARK SMILES IDX 15 1 16 2 17 3 18 4 27 5 28 6 14 7 13 8 3 9 4 10 8 11 5 12
REMARK SMILES IDX 7 13 6 14 29 15 11 16 12 17 2 18 1 19 9 20 10 21 19 22 20 23
REMARK SMILES IDX 21 24 25 25 22 26 24 27 23 28 26 29
REMARK H PARENT
ROOT
ATOM      1  C   UNL     1     -14.039 -44.585  26.658  1.00  0.00    -0.013 A 
ATOM      2  C   UNL     1     -14.486 -43.308  26.982  1.00  0.00     0.079 A 
ATOM      3  C   UNL     1     -15.014 -42.491  25.988  1.00  0.00     0.309 A 
ATOM      4  N   UNL     1     -15.102 -42.928  24.709  1.00  0.00    -0.201 N 
ATOM      5  C   UNL     1     -14.685 -44.172  24.378  1.00  0.00     0.309 A 
ATOM      6  C   UNL     1     -14.147 -45.021  25.339  1.00  0.00     0.079 A 
ENDROOT
BRANCH   1   7
ATOM      7  C   UNL     1     -13.525 -45.455  27.713  1.00  0.00     0.016 C 
BRANCH   7   8
ATOM      8  C   UNL     1     -12.531 -45.139  28.554  1.00  0.00     0.005 C 
ATOM      9  C   UNL     1      -8.945 -43.938  31.361  1.00  0.00     0.161 A 
ATOM     10  C   UNL     1      -9.201 -44.493  30.097  1.00  0.00     0.055 A 
ATOM     11  C   UNL     1     -10.021 -43.555  32.214  1.00  0.00     0.161 A 
ATOM     12  C   UNL     1     -10.517 -44.658  29.698  1.00  0.00    -0.028 A 
ATOM     13  C   UNL     1     -11.344 -43.728  31.798  1.00  0.00     0.063 A 
ATOM     14  C   UNL     1     -11.555 -44.277  30.547  1.00  0.00     0.030 A 
ATOM     15  C   UNL     1     -11.032 -45.226  28.409  1.00  0.00     0.076 C 
ATOM     16  C   UNL     1     -12.838 -44.549  29.895  1.00  0.00     0.189 C 
ATOM     17  O   UNL     1     -13.941 -44.336  30.355  1.00  0.00    -0.289 OA
BRANCH   9  18
ATOM     18  O   UNL     1      -7.686 -43.726  31.868  1.00  0.00    -0.493 OA
ATOM     19  C   UNL     1      -6.877 -44.859  32.147  1.00  0.00     0.278 C 
ENDBRANCH   9  18
BRANCH  11  20
ATOM     20  O   UNL     1      -9.658 -43.025  33.428  1.00  0.00    -0.493 OA
ATOM     21  C   UNL     1     -10.601 -42.198  34.097  1.00  0.00     0.278 C 
ENDBRANCH  11  20
ENDBRANCH   7   8
ENDBRANCH   1   7
BRANCH   4  22
ATOM     22  C   UNL     1     -15.690 -42.040  23.670  1.00  0.00     0.393 C 
BRANCH  22  23
ATOM     23  C   UNL     1     -17.199 -42.036  23.748  1.00  0.00     0.020 A 
ATOM     24  C   UNL     1     -17.828 -42.760  24.781  1.00  0.00     0.010 A 
ATOM     25  C   UNL     1     -18.001 -41.324  22.827  1.00  0.00    -0.042 A 
ATOM     26  C   UNL     1     -19.216 -42.800  24.888  1.00  0.00     0.001 A 
ATOM     27  C   UNL     1     -19.398 -41.379  22.950  1.00  0.00     0.004 A 
ATOM     28  C   UNL     1     -20.001 -42.113  23.971  1.00  0.00     0.000 A 
ATOM     29  C   UNL     1     -17.417 -40.493  21.714  1.00  0.00     0.045 C 
ENDBRANCH  22  23
ENDBRANCH   4  22
TORSDOF 6
ENDMDL
MODEL 8
REMARK VINA RESULT:   -10.275      2.350      4.118
REMARK INTER + INTRA:         -14.435
REMARK INTER:                 -14.400
REMARK INTRA:                  -0.034
REMARK UNBOUND:                -0.556
REMARK SMILES COc1cc2c(cc1OC)C(=O)/C(=C/c1cc[n+](Cc3ccccc3C)cc1)C2
REMARK SMILES IDX 15 1 16 2 17 3 18 4 27 5 28 6 14 7 13 8 3 9 4 10 8 11 5 12
REMARK SMILES IDX 7 13 6 14 29 15 11 16 12 17 2 18 1 19 9 20 10 21 19 22 20 23
REMARK SMILES IDX 21 24 25 25 22 26 24 27 23 28 26 29
REMARK H PARENT
ROOT
ATOM      1  C   UNL     1     -15.909 -43.070  25.295  1.00  0.00    -0.013 A 
ATOM      2  C   UNL     1     -14.989 -43.960  24.747  1.00  0.00     0.079 A 
ATOM      3  C   UNL     1     -14.098 -44.626  25.580  1.00  0.00     0.309 A 
ATOM      4  N   UNL     1     -14.117 -44.421  26.918  1.00  0.00    -0.201 N 
ATOM      5  C   UNL     1     -15.012 -43.570  27.469  1.00  0.00     0.309 A 
ATOM      6  C   UNL     1     -15.921 -42.880  26.674  1.00  0.00     0.079 A 
ENDROOT
BRANCH   1   7
ATOM      7  C   UNL     1     -16.872 -42.405  24.420  1.00  0.00     0.016 C 
BRANCH   7   8
ATOM      8  C   UNL     1     -18.117 -42.056  24.773  1.00  0.00     0.005 C 
ATOM      9  C   UNL     1     -22.417 -40.724  26.156  1.00  0.00     0.161 A 
ATOM     10  C   UNL     1     -21.206 -41.209  26.677  1.00  0.00     0.055 A 
ATOM     11  C   UNL     1     -22.567 -40.508  24.756  1.00  0.00     0.161 A 
ATOM     12  C   UNL     1     -20.164 -41.469  25.802  1.00  0.00    -0.028 A 
ATOM     13  C   UNL     1     -21.507 -40.776  23.885  1.00  0.00     0.063 A 
ATOM     14  C   UNL     1     -20.331 -41.251  24.435  1.00  0.00     0.030 A 
ATOM     15  C   UNL     1     -18.794 -41.990  26.119  1.00  0.00     0.076 C 
ATOM     16  C   UNL     1     -19.092 -41.597  23.735  1.00  0.00     0.189 C 
ATOM     17  O   UNL     1     -18.894 -41.523  22.540  1.00  0.00    -0.289 OA
BRANCH   9  18
ATOM     18  O   UNL     1     -23.520 -40.430  26.921  1.00  0.00    -0.493 OA
ATOM     19  C   UNL     1     -23.457 -39.300  27.779  1.00  0.00     0.278 C 
ENDBRANCH   9  18
BRANCH  11  20
ATOM     20  O   UNL     1     -23.792 -40.034  24.355  1.00  0.00    -0.493 OA
ATOM     21  C   UNL     1     -23.814 -38.979  23.403  1.00  0.00     0.278 C 
ENDBRANCH  11  20
ENDBRANCH   7   8
ENDBRANCH   1   7
BRANCH   4  22
ATOM     22  C   UNL     1     -13.164 -45.164  27.787  1.00  0.00     0.393 C 
BRANCH  22  23
ATOM     23  C   UNL     1     -11.896 -44.371  28.006  1.00  0.00     0.020 A 
ATOM     24  C   UNL     1     -11.884 -43.003  27.667  1.00  0.00     0.010 A 
ATOM     25  C   UNL     1     -10.726 -44.952  28.545  1.00  0.00    -0.042 A 
ATOM     26  C   UNL     1     -10.736 -42.231  27.837  1.00  0.00     0.001 A 
ATOM     27  C   UNL     1      -9.579 -44.159  28.705  1.00  0.00     0.004 A 
ATOM     28  C   UNL     1      -9.583 -42.810  28.352  1.00  0.00     0.000 A 
ATOM     29  C   UNL     1     -10.658 -46.396  28.970  1.00  0.00     0.045 C 
ENDBRANCH  22  23
ENDBRANCH   4  22
TORSDOF 6
ENDMDL
MODEL 9
REMARK VINA RESULT:   -10.227      3.486     10.016
REMARK INTER + INTRA:         -14.370
REMARK INTER:                 -13.525
REMARK INTRA:                  -0.845
REMARK UNBOUND:                -0.556
REMARK SMILES COc1cc2c(cc1OC)C(=O)/C(=C/c1cc[n+](Cc3ccccc3C)cc1)C2
REMARK SMILES IDX 15 1 16 2 17 3 18 4 27 5 28 6 14 7 13 8 3 9 4 10 8 11 5 12
REMARK SMILES IDX 7 13 6 14 29 15 11 16 12 17 2 18 1 19 9 20 10 21 19 22 20 23
REMARK SMILES IDX 21 24 25 25 22 26 24 27 23 28 26 29
REMARK H PARENT
ROOT
ATOM      1  C   UNL     1     -15.282 -43.222  26.063  1.00  0.00    -0.013 A 
ATOM      2  C   UNL     1     -15.750 -42.881  27.329  1.00  0.00     0.079 A 
ATOM      3  C   UNL     1     -17.068 -42.470  27.487  1.00  0.00     0.309 A 
ATOM      4  N   UNL     1     -17.903 -42.402  26.423  1.00  0.00    -0.201 N 
ATOM      5  C   UNL     1     -17.470 -42.742  25.187  1.00  0.00     0.309 A 
ATOM      6  C   UNL     1     -16.158 -43.156  24.983  1.00  0.00     0.079 A 
ENDROOT
BRANCH   1   7
ATOM      7  C   UNL     1     -13.909 -43.696  25.909  1.00  0.00     0.016 C 
BRANCH   7   8
ATOM      8  C   UNL     1     -13.011 -43.785  26.899  1.00  0.00     0.005 C 
ATOM      9  C   UNL     1      -9.923 -43.931  30.453  1.00  0.00     0.161 A 
ATOM     10  C   UNL     1     -10.440 -43.044  29.495  1.00  0.00     0.055 A 
ATOM     11  C   UNL     1     -10.373 -45.281  30.505  1.00  0.00     0.161 A 
ATOM     12  C   UNL     1     -11.396 -43.511  28.606  1.00  0.00    -0.028 A 
ATOM     13  C   UNL     1     -11.337 -45.738  29.602  1.00  0.00     0.063 A 
ATOM     14  C   UNL     1     -11.823 -44.836  28.674  1.00  0.00     0.030 A 
ATOM     15  C   UNL     1     -12.084 -42.760  27.505  1.00  0.00     0.076 C 
ATOM     16  C   UNL     1     -12.830 -45.073  27.638  1.00  0.00     0.189 C 
ATOM     17  O   UNL     1     -13.409 -46.118  27.421  1.00  0.00    -0.289 OA
BRANCH   9  18
ATOM     18  O   UNL     1      -8.974 -43.587  31.385  1.00  0.00    -0.493 OA
ATOM     19  C   UNL     1      -7.620 -43.512  30.964  1.00  0.00     0.278 C 
ENDBRANCH   9  18
BRANCH  11  20
ATOM     20  O   UNL     1      -9.800 -46.062  31.480  1.00  0.00    -0.493 OA
ATOM     21  C   UNL     1      -8.750 -46.939  31.094  1.00  0.00     0.278 C 
ENDBRANCH  11  20
ENDBRANCH   7   8
ENDBRANCH   1   7
BRANCH   4  22
ATOM     22  C   UNL     1     -19.315 -41.977  26.626  1.00  0.00     0.393 C 
BRANCH  22  23
ATOM     23  C   UNL     1     -20.254 -43.158  26.557  1.00  0.00     0.020 A 
ATOM     24  C   UNL     1     -20.450 -43.938  27.715  1.00  0.00     0.010 A 
ATOM     25  C   UNL     1     -20.950 -43.502  25.376  1.00  0.00    -0.042 A 
ATOM     26  C   UNL     1     -21.295 -45.046  27.701  1.00  0.00     0.001 A 
ATOM     27  C   UNL     1     -21.795 -44.624  25.381  1.00  0.00     0.004 A 
ATOM     28  C   UNL     1     -21.964 -45.390  26.533  1.00  0.00     0.000 A 
ATOM     29  C   UNL     1     -20.832 -42.706  24.102  1.00  0.00     0.045 C 
ENDBRANCH  22  23
ENDBRANCH   4  22
TORSDOF 6
ENDMDL
