MODEL 1
REMARK VINA RESULT:   -11.253      0.000      0.000
REMARK INTER + INTRA:         -17.689
REMARK INTER:                 -17.174
REMARK INTRA:                  -0.514
REMARK UNBOUND:                -0.514
REMARK SMILES COc1cc2c(cc1OC)S[C@H](C(=O)CCc1cc[n+](Cc3coc([N+](=O)[O-])c3)cc1)C2
REMARK SMILES IDX 16 1 15 2 13 3 14 4 12 5 3 6 4 7 8 8 5 9 7 10 6 11 32 12
REMARK SMILES IDX 11 13 2 14 1 15 9 16 10 17 17 18 18 19 31 20 19 21 30 22
REMARK SMILES IDX 20 23 21 24 22 25 23 26 29 27 24 28 25 29 26 30 27 31 28 32
REMARK H PARENT
ROOT
ATOM      1  C   UNL     1     -13.276 -43.976  26.665  1.00  0.00     0.044 C 
ENDROOT
BRANCH   1   2
ATOM      2  C   UNL     1     -13.737 -44.969  27.724  1.00  0.00     0.081 C 
BRANCH   2   3
ATOM      3  C   UNL     1     -12.701 -45.973  28.077  1.00  0.00     0.146 C 
ATOM      4  O   UNL     1     -12.068 -46.621  27.266  1.00  0.00    -0.298 OA
BRANCH   3   5
ATOM      5  C   UNL     1     -12.469 -46.137  29.558  1.00  0.00     0.123 C 
ATOM      6  C   UNL     1     -12.985 -42.750  32.994  1.00  0.00     0.161 A 
ATOM      7  C   UNL     1     -13.668 -43.627  32.197  1.00  0.00     0.055 A 
ATOM      8  C   UNL     1     -11.611 -42.574  32.974  1.00  0.00     0.161 A 
ATOM      9  C   UNL     1     -12.913 -44.412  31.285  1.00  0.00    -0.029 A 
ATOM     10  C   UNL     1     -10.889 -43.341  32.085  1.00  0.00     0.065 A 
ATOM     11  C   UNL     1     -11.567 -44.249  31.258  1.00  0.00     0.015 A 
ATOM     12  C   UNL     1     -13.464 -45.387  30.355  1.00  0.00     0.059 C 
ATOM     13  S   UNL     1     -10.909 -45.393  30.064  1.00  0.00    -0.114 SA
BRANCH   6  14
ATOM     14  O   UNL     1     -13.691 -41.970  33.894  1.00  0.00    -0.493 OA
ATOM     15  C   UNL     1     -14.992 -41.526  33.659  1.00  0.00     0.278 C 
ENDBRANCH   6  14
BRANCH   8  16
ATOM     16  O   UNL     1     -11.067 -41.653  33.837  1.00  0.00    -0.493 OA
ATOM     17  C   UNL     1      -9.985 -42.004  34.674  1.00  0.00     0.278 C 
ENDBRANCH   8  16
ENDBRANCH   3   5
ENDBRANCH   2   3
ENDBRANCH   1   2
BRANCH   1  18
ATOM     18  C   UNL     1     -14.538 -43.595  25.910  1.00  0.00    -0.036 A 
ATOM     19  C   UNL     1     -14.740 -43.890  24.592  1.00  0.00     0.074 A 
ATOM     20  C   UNL     1     -15.496 -42.975  26.719  1.00  0.00     0.074 A 
ATOM     21  C   UNL     1     -15.983 -43.540  24.065  1.00  0.00     0.308 A 
ATOM     22  C   UNL     1     -16.701 -42.661  26.126  1.00  0.00     0.308 A 
ATOM     23  N   UNL     1     -16.939 -42.941  24.817  1.00  0.00    -0.201 N 
BRANCH  23  24
ATOM     24  C   UNL     1     -18.243 -42.623  24.317  1.00  0.00     0.397 C 
BRANCH  24  25
ATOM     25  C   UNL     1     -18.301 -41.705  23.182  1.00  0.00     0.063 A 
ATOM     26  C   UNL     1     -17.159 -41.290  22.487  1.00  0.00     0.213 A 
ATOM     27  C   UNL     1     -19.366 -41.100  22.542  1.00  0.00     0.143 A 
ATOM     28  O   UNL     1     -17.502 -40.498  21.507  1.00  0.00    -0.409 OA
ATOM     29  C   UNL     1     -18.817 -40.357  21.500  1.00  0.00     0.433 A 
BRANCH  29  30
ATOM     30  N   UNL     1     -19.550 -39.563  20.567  1.00  0.00     0.102 N 
ATOM     31  O   UNL     1     -19.322 -39.718  19.330  1.00  0.00    -0.256 OA
ATOM     32  O   UNL     1     -20.497 -38.650  20.985  1.00  0.00    -0.256 OA
ENDBRANCH  29  30
ENDBRANCH  24  25
ENDBRANCH  23  24
ENDBRANCH   1  18
TORSDOF 9
ENDMDL
MODEL 2
REMARK VINA RESULT:   -11.230      4.264     11.000
REMARK INTER + INTRA:         -17.653
REMARK INTER:                 -16.801
REMARK INTRA:                  -0.852
REMARK UNBOUND:                -0.514
REMARK SMILES COc1cc2c(cc1OC)S[C@H](C(=O)CCc1cc[n+](Cc3coc([N+](=O)[O-])c3)cc1)C2
REMARK SMILES IDX 16 1 15 2 13 3 14 4 12 5 3 6 4 7 8 8 5 9 7 10 6 11 32 12
REMARK SMILES IDX 11 13 2 14 1 15 9 16 10 17 17 18 18 19 31 20 19 21 30 22
REMARK SMILES IDX 20 23 21 24 22 25 23 26 29 27 24 28 25 29 26 30 27 31 28 32
REMARK H PARENT
ROOT
ATOM      1  C   UNL     1     -13.800 -45.337  26.186  1.00  0.00     0.044 C 
ENDROOT
BRANCH   1   2
ATOM      2  C   UNL     1     -13.968 -43.847  25.921  1.00  0.00     0.081 C 
BRANCH   2   3
ATOM      3  C   UNL     1     -14.677 -43.554  24.649  1.00  0.00     0.146 C 
ATOM      4  O   UNL     1     -14.552 -44.202  23.628  1.00  0.00    -0.298 OA
BRANCH   3   5
ATOM      5  C   UNL     1     -15.601 -42.364  24.709  1.00  0.00     0.123 C 
ATOM      6  C   UNL     1     -20.408 -42.422  25.363  1.00  0.00     0.161 A 
ATOM      7  C   UNL     1     -19.205 -42.523  26.006  1.00  0.00     0.055 A 
ATOM      8  C   UNL     1     -20.560 -42.252  23.996  1.00  0.00     0.161 A 
ATOM      9  C   UNL     1     -18.028 -42.449  25.215  1.00  0.00    -0.029 A 
ATOM     10  C   UNL     1     -19.410 -42.181  23.239  1.00  0.00     0.065 A 
ATOM     11  C   UNL     1     -18.164 -42.281  23.876  1.00  0.00     0.015 A 
ATOM     12  C   UNL     1     -16.666 -42.547  25.718  1.00  0.00     0.059 C 
ATOM     13  S   UNL     1     -16.530 -42.179  23.177  1.00  0.00    -0.114 SA
BRANCH   6  14
ATOM     14  O   UNL     1     -21.576 -42.490  26.106  1.00  0.00    -0.493 OA
ATOM     15  C   UNL     1     -21.973 -43.635  26.795  1.00  0.00     0.278 C 
ENDBRANCH   6  14
BRANCH   8  16
ATOM     16  O   UNL     1     -21.836 -42.166  23.494  1.00  0.00    -0.493 OA
ATOM     17  C   UNL     1     -22.183 -41.141  22.587  1.00  0.00     0.278 C 
ENDBRANCH   8  16
ENDBRANCH   3   5
ENDBRANCH   2   3
ENDBRANCH   1   2
BRANCH   1  18
ATOM     18  C   UNL     1     -13.255 -45.424  27.602  1.00  0.00    -0.036 A 
ATOM     19  C   UNL     1     -13.842 -44.806  28.670  1.00  0.00     0.074 A 
ATOM     20  C   UNL     1     -12.135 -46.254  27.709  1.00  0.00     0.074 A 
ATOM     21  C   UNL     1     -13.263 -45.046  29.916  1.00  0.00     0.308 A 
ATOM     22  C   UNL     1     -11.620 -46.444  28.975  1.00  0.00     0.308 A 
ATOM     23  N   UNL     1     -12.179 -45.848  30.061  1.00  0.00    -0.201 N 
BRANCH  23  24
ATOM     24  C   UNL     1     -11.600 -46.156  31.334  1.00  0.00     0.397 C 
BRANCH  24  25
ATOM     25  C   UNL     1     -10.274 -45.603  31.600  1.00  0.00     0.063 A 
ATOM     26  C   UNL     1      -9.094 -46.312  31.342  1.00  0.00     0.213 A 
ATOM     27  C   UNL     1      -9.870 -44.373  32.083  1.00  0.00     0.143 A 
ATOM     28  O   UNL     1      -8.061 -45.572  31.644  1.00  0.00    -0.409 OA
ATOM     29  C   UNL     1      -8.479 -44.400  32.092  1.00  0.00     0.433 A 
BRANCH  29  30
ATOM     30  N   UNL     1      -7.627 -43.335  32.515  1.00  0.00     0.102 N 
ATOM     31  O   UNL     1      -6.797 -42.857  31.686  1.00  0.00    -0.256 OA
ATOM     32  O   UNL     1      -7.700 -42.819  33.793  1.00  0.00    -0.256 OA
ENDBRANCH  29  30
ENDBRANCH  24  25
ENDBRANCH  23  24
ENDBRANCH   1  18
TORSDOF 9
ENDMDL
MODEL 3
REMARK VINA RESULT:   -10.916      3.919     11.351
REMARK INTER + INTRA:         -17.173
REMARK INTER:                 -16.249
REMARK INTRA:                  -0.925
REMARK UNBOUND:                -0.514
REMARK SMILES COc1cc2c(cc1OC)S[C@H](C(=O)CCc1cc[n+](Cc3coc([N+](=O)[O-])c3)cc1)C2
REMARK SMILES IDX 16 1 15 2 13 3 14 4 12 5 3 6 4 7 8 8 5 9 7 10 6 11 32 12
REMARK SMILES IDX 11 13 2 14 1 15 9 16 10 17 17 18 18 19 31 20 19 21 30 22
REMARK SMILES IDX 20 23 21 24 22 25 23 26 29 27 24 28 25 29 26 30 27 31 28 32
REMARK H PARENT
ROOT
ATOM      1  C   UNL     1     -14.265 -44.595  26.008  1.00  0.00     0.044 C 
ENDROOT
BRANCH   1   2
ATOM      2  C   UNL     1     -14.529 -43.095  26.017  1.00  0.00     0.081 C 
BRANCH   2   3
ATOM      3  C   UNL     1     -15.041 -42.582  24.722  1.00  0.00     0.146 C 
ATOM      4  O   UNL     1     -14.454 -41.780  24.021  1.00  0.00    -0.298 OA
BRANCH   3   5
ATOM      5  C   UNL     1     -16.379 -43.142  24.313  1.00  0.00     0.123 C 
ATOM      6  C   UNL     1     -20.114 -40.700  22.407  1.00  0.00     0.161 A 
ATOM      7  C   UNL     1     -18.900 -41.261  22.120  1.00  0.00     0.055 A 
ATOM      8  C   UNL     1     -20.699 -40.686  23.663  1.00  0.00     0.161 A 
ATOM      9  C   UNL     1     -18.189 -41.872  23.187  1.00  0.00    -0.029 A 
ATOM     10  C   UNL     1     -19.999 -41.282  24.690  1.00  0.00     0.065 A 
ATOM     11  C   UNL     1     -18.752 -41.865  24.421  1.00  0.00     0.015 A 
ATOM     12  C   UNL     1     -16.884 -42.508  23.076  1.00  0.00     0.059 C 
ATOM     13  S   UNL     1     -17.655 -42.737  25.518  1.00  0.00    -0.114 SA
BRANCH   6  14
ATOM     14  O   UNL     1     -20.833 -40.097  21.388  1.00  0.00    -0.493 OA
ATOM     15  C   UNL     1     -20.291 -39.821  20.134  1.00  0.00     0.278 C 
ENDBRANCH   6  14
BRANCH   8  16
ATOM     16  O   UNL     1     -21.927 -40.083  23.796  1.00  0.00    -0.493 OA
ATOM     17  C   UNL     1     -23.095 -40.861  23.953  1.00  0.00     0.278 C 
ENDBRANCH   8  16
ENDBRANCH   3   5
ENDBRANCH   2   3
ENDBRANCH   1   2
BRANCH   1  18
ATOM     18  C   UNL     1     -13.715 -44.905  27.391  1.00  0.00    -0.036 A 
ATOM     19  C   UNL     1     -14.257 -44.406  28.541  1.00  0.00     0.074 A 
ATOM     20  C   UNL     1     -12.645 -45.805  27.368  1.00  0.00     0.074 A 
ATOM     21  C   UNL     1     -13.684 -44.846  29.734  1.00  0.00     0.308 A 
ATOM     22  C   UNL     1     -12.133 -46.193  28.588  1.00  0.00     0.308 A 
ATOM     23  N   UNL     1     -12.648 -45.720  29.753  1.00  0.00    -0.201 N 
BRANCH  23  24
ATOM     24  C   UNL     1     -12.078 -46.231  30.964  1.00  0.00     0.397 C 
BRANCH  24  25
ATOM     25  C   UNL     1     -10.742 -45.753  31.310  1.00  0.00     0.063 A 
ATOM     26  C   UNL     1      -9.628 -46.598  31.365  1.00  0.00     0.213 A 
ATOM     27  C   UNL     1     -10.266 -44.490  31.606  1.00  0.00     0.143 A 
ATOM     28  O   UNL     1      -8.563 -45.905  31.669  1.00  0.00    -0.409 OA
ATOM     29  C   UNL     1      -8.898 -44.635  31.822  1.00  0.00     0.433 A 
BRANCH  29  30
ATOM     30  N   UNL     1      -7.992 -43.584  32.156  1.00  0.00     0.102 N 
ATOM     31  O   UNL     1      -7.439 -42.939  31.216  1.00  0.00    -0.256 OA
ATOM     32  O   UNL     1      -7.719 -43.257  33.469  1.00  0.00    -0.256 OA
ENDBRANCH  29  30
ENDBRANCH  24  25
ENDBRANCH  23  24
ENDBRANCH   1  18
TORSDOF 9
ENDMDL
MODEL 4
REMARK VINA RESULT:   -10.883      3.076      3.688
REMARK INTER + INTRA:         -17.123
REMARK INTER:                 -16.071
REMARK INTRA:                  -1.052
REMARK UNBOUND:                -0.514
REMARK SMILES COc1cc2c(cc1OC)S[C@H](C(=O)CCc1cc[n+](Cc3coc([N+](=O)[O-])c3)cc1)C2
REMARK SMILES IDX 16 1 15 2 13 3 14 4 12 5 3 6 4 7 8 8 5 9 7 10 6 11 32 12
REMARK SMILES IDX 11 13 2 14 1 15 9 16 10 17 17 18 18 19 31 20 19 21 30 22
REMARK SMILES IDX 20 23 21 24 22 25 23 26 29 27 24 28 25 29 26 30 27 31 28 32
REMARK H PARENT
ROOT
ATOM      1  C   UNL     1     -13.472 -44.014  26.519  1.00  0.00     0.044 C 
ENDROOT
BRANCH   1   2
ATOM      2  C   UNL     1     -13.883 -44.832  27.736  1.00  0.00     0.081 C 
BRANCH   2   3
ATOM      3  C   UNL     1     -12.937 -45.933  28.050  1.00  0.00     0.146 C 
ATOM      4  O   UNL     1     -12.401 -46.636  27.215  1.00  0.00    -0.298 OA
BRANCH   3   5
ATOM      5  C   UNL     1     -12.668 -46.125  29.520  1.00  0.00     0.123 C 
ATOM      6  C   UNL     1     -12.965 -42.770  33.014  1.00  0.00     0.161 A 
ATOM      7  C   UNL     1     -13.701 -43.612  32.226  1.00  0.00     0.055 A 
ATOM      8  C   UNL     1     -11.586 -42.641  32.955  1.00  0.00     0.161 A 
ATOM      9  C   UNL     1     -13.001 -44.410  31.282  1.00  0.00    -0.029 A 
ATOM     10  C   UNL     1     -10.919 -43.420  32.035  1.00  0.00     0.065 A 
ATOM     11  C   UNL     1     -11.651 -44.293  31.217  1.00  0.00     0.015 A 
ATOM     12  C   UNL     1     -13.612 -45.353  30.356  1.00  0.00     0.059 C 
ATOM     13  S   UNL     1     -11.069 -45.442  29.989  1.00  0.00    -0.114 SA
BRANCH   6  14
ATOM     14  O   UNL     1     -13.617 -41.979  33.944  1.00  0.00    -0.493 OA
ATOM     15  C   UNL     1     -14.951 -41.593  33.814  1.00  0.00     0.278 C 
ENDBRANCH   6  14
BRANCH   8  16
ATOM     16  O   UNL     1     -10.985 -41.751  33.813  1.00  0.00    -0.493 OA
ATOM     17  C   UNL     1     -10.065 -42.200  34.785  1.00  0.00     0.278 C 
ENDBRANCH   8  16
ENDBRANCH   3   5
ENDBRANCH   2   3
ENDBRANCH   1   2
BRANCH   1  18
ATOM     18  C   UNL     1     -14.771 -43.447  25.971  1.00  0.00    -0.036 A 
ATOM     19  C   UNL     1     -15.109 -43.490  24.649  1.00  0.00     0.074 A 
ATOM     20  C   UNL     1     -15.613 -42.941  26.967  1.00  0.00     0.074 A 
ATOM     21  C   UNL     1     -16.370 -42.995  24.317  1.00  0.00     0.308 A 
ATOM     22  C   UNL     1     -16.844 -42.471  26.561  1.00  0.00     0.308 A 
ATOM     23  N   UNL     1     -17.215 -42.500  25.254  1.00  0.00    -0.201 N 
BRANCH  23  24
ATOM     24  C   UNL     1     -18.537 -42.039  24.949  1.00  0.00     0.397 C 
BRANCH  24  25
ATOM     25  C   UNL     1     -19.592 -42.415  25.887  1.00  0.00     0.063 A 
ATOM     26  C   UNL     1     -20.208 -41.492  26.740  1.00  0.00     0.213 A 
ATOM     27  C   UNL     1     -20.217 -43.623  26.133  1.00  0.00     0.143 A 
ATOM     28  O   UNL     1     -21.130 -42.091  27.445  1.00  0.00    -0.409 OA
ATOM     29  C   UNL     1     -21.171 -43.371  27.113  1.00  0.00     0.433 A 
BRANCH  29  30
ATOM     30  N   UNL     1     -22.060 -44.335  27.678  1.00  0.00     0.102 N 
ATOM     31  O   UNL     1     -22.542 -45.230  26.922  1.00  0.00    -0.256 OA
ATOM     32  O   UNL     1     -22.391 -44.312  29.018  1.00  0.00    -0.256 OA
ENDBRANCH  29  30
ENDBRANCH  24  25
ENDBRANCH  23  24
ENDBRANCH   1  18
TORSDOF 9
ENDMDL
MODEL 5
REMARK VINA RESULT:   -10.856      4.267     11.059
REMARK INTER + INTRA:         -17.083
REMARK INTER:                 -16.189
REMARK INTRA:                  -0.894
REMARK UNBOUND:                -0.514
REMARK SMILES COc1cc2c(cc1OC)S[C@H](C(=O)CCc1cc[n+](Cc3coc([N+](=O)[O-])c3)cc1)C2
REMARK SMILES IDX 16 1 15 2 13 3 14 4 12 5 3 6 4 7 8 8 5 9 7 10 6 11 32 12
REMARK SMILES IDX 11 13 2 14 1 15 9 16 10 17 17 18 18 19 31 20 19 21 30 22
REMARK SMILES IDX 20 23 21 24 22 25 23 26 29 27 24 28 25 29 26 30 27 31 28 32
REMARK H PARENT
ROOT
ATOM      1  C   UNL     1     -13.434 -44.878  27.734  1.00  0.00     0.044 C 
ENDROOT
BRANCH   1   2
ATOM      2  C   UNL     1     -13.293 -43.762  26.707  1.00  0.00     0.081 C 
BRANCH   2   3
ATOM      3  C   UNL     1     -14.297 -43.839  25.616  1.00  0.00     0.146 C 
ATOM      4  O   UNL     1     -14.471 -44.815  24.911  1.00  0.00    -0.298 OA
BRANCH   3   5
ATOM      5  C   UNL     1     -15.122 -42.591  25.435  1.00  0.00     0.123 C 
ATOM      6  C   UNL     1     -19.956 -42.220  25.638  1.00  0.00     0.161 A 
ATOM      7  C   UNL     1     -18.823 -42.319  26.399  1.00  0.00     0.055 A 
ATOM      8  C   UNL     1     -19.977 -42.227  24.253  1.00  0.00     0.161 A 
ATOM      9  C   UNL     1     -17.582 -42.435  25.718  1.00  0.00    -0.029 A 
ATOM     10  C   UNL     1     -18.767 -42.340  23.604  1.00  0.00     0.065 A 
ATOM     11  C   UNL     1     -17.591 -42.441  24.362  1.00  0.00     0.015 A 
ATOM     12  C   UNL     1     -16.279 -42.560  26.355  1.00  0.00     0.059 C 
ATOM     13  S   UNL     1     -15.901 -42.549  23.812  1.00  0.00    -0.114 SA
BRANCH   6  14
ATOM     14  O   UNL     1     -21.182 -42.106  26.271  1.00  0.00    -0.493 OA
ATOM     15  C   UNL     1     -21.679 -40.896  26.755  1.00  0.00     0.278 C 
ENDBRANCH   6  14
BRANCH   8  16
ATOM     16  O   UNL     1     -21.196 -42.119  23.626  1.00  0.00    -0.493 OA
ATOM     17  C   UNL     1     -21.495 -40.995  22.826  1.00  0.00     0.278 C 
ENDBRANCH   8  16
ENDBRANCH   3   5
ENDBRANCH   2   3
ENDBRANCH   1   2
BRANCH   1  18
ATOM     18  C   UNL     1     -12.099 -44.914  28.459  1.00  0.00    -0.036 A 
ATOM     19  C   UNL     1     -11.197 -43.889  28.418  1.00  0.00     0.074 A 
ATOM     20  C   UNL     1     -11.921 -46.070  29.225  1.00  0.00     0.074 A 
ATOM     21  C   UNL     1     -10.052 -44.044  29.200  1.00  0.00     0.308 A 
ATOM     22  C   UNL     1     -10.764 -46.149  29.971  1.00  0.00     0.308 A 
ATOM     23  N   UNL     1      -9.844 -45.149  29.958  1.00  0.00    -0.201 N 
BRANCH  23  24
ATOM     24  C   UNL     1      -8.706 -45.307  30.812  1.00  0.00     0.397 C 
BRANCH  24  25
ATOM     25  C   UNL     1      -8.565 -44.340  31.898  1.00  0.00     0.063 A 
ATOM     26  C   UNL     1      -7.319 -43.916  32.375  1.00  0.00     0.213 A 
ATOM     27  C   UNL     1      -9.502 -43.641  32.635  1.00  0.00     0.143 A 
ATOM     28  O   UNL     1      -7.486 -43.033  33.322  1.00  0.00    -0.409 OA
ATOM     29  C   UNL     1      -8.780 -42.836  33.511  1.00  0.00     0.433 A 
BRANCH  29  30
ATOM     30  N   UNL     1      -9.340 -41.935  34.467  1.00  0.00     0.102 N 
ATOM     31  O   UNL     1      -8.696 -41.709  35.535  1.00  0.00    -0.256 OA
ATOM     32  O   UNL     1     -10.549 -41.308  34.245  1.00  0.00    -0.256 OA
ENDBRANCH  29  30
ENDBRANCH  24  25
ENDBRANCH  23  24
ENDBRANCH   1  18
TORSDOF 9
ENDMDL
MODEL 6
REMARK VINA RESULT:   -10.586      3.736     10.251
REMARK INTER + INTRA:         -16.670
REMARK INTER:                 -15.914
REMARK INTRA:                  -0.756
REMARK UNBOUND:                -0.514
REMARK SMILES COc1cc2c(cc1OC)S[C@H](C(=O)CCc1cc[n+](Cc3coc([N+](=O)[O-])c3)cc1)C2
REMARK SMILES IDX 16 1 15 2 13 3 14 4 12 5 3 6 4 7 8 8 5 9 7 10 6 11 32 12
REMARK SMILES IDX 11 13 2 14 1 15 9 16 10 17 17 18 18 19 31 20 19 21 30 22
REMARK SMILES IDX 20 23 21 24 22 25 23 26 29 27 24 28 25 29 26 30 27 31 28 32
REMARK H PARENT
ROOT
ATOM      1  C   UNL     1     -13.791 -45.284  26.004  1.00  0.00     0.044 C 
ENDROOT
BRANCH   1   2
ATOM      2  C   UNL     1     -14.168 -43.817  25.849  1.00  0.00     0.081 C 
BRANCH   2   3
ATOM      3  C   UNL     1     -14.874 -43.525  24.575  1.00  0.00     0.146 C 
ATOM      4  O   UNL     1     -14.746 -44.174  23.555  1.00  0.00    -0.298 OA
BRANCH   3   5
ATOM      5  C   UNL     1     -15.795 -42.334  24.630  1.00  0.00     0.123 C 
ATOM      6  C   UNL     1     -20.646 -42.391  24.747  1.00  0.00     0.161 A 
ATOM      7  C   UNL     1     -19.521 -42.558  25.507  1.00  0.00     0.055 A 
ATOM      8  C   UNL     1     -20.645 -42.109  23.391  1.00  0.00     0.161 A 
ATOM      9  C   UNL     1     -18.264 -42.432  24.858  1.00  0.00    -0.029 A 
ATOM     10  C   UNL     1     -19.419 -41.990  22.772  1.00  0.00     0.065 A 
ATOM     11  C   UNL     1     -18.251 -42.155  23.531  1.00  0.00     0.015 A 
ATOM     12  C   UNL     1     -16.966 -42.586  25.498  1.00  0.00     0.059 C 
ATOM     13  S   UNL     1     -16.550 -42.014  23.026  1.00  0.00    -0.114 SA
BRANCH   6  14
ATOM     14  O   UNL     1     -21.888 -42.507  25.350  1.00  0.00    -0.493 OA
ATOM     15  C   UNL     1     -22.195 -41.923  26.578  1.00  0.00     0.278 C 
ENDBRANCH   6  14
BRANCH   8  16
ATOM     16  O   UNL     1     -21.859 -41.968  22.761  1.00  0.00    -0.493 OA
ATOM     17  C   UNL     1     -22.338 -42.974  21.892  1.00  0.00     0.278 C 
ENDBRANCH   8  16
ENDBRANCH   3   5
ENDBRANCH   2   3
ENDBRANCH   1   2
BRANCH   1  18
ATOM     18  C   UNL     1     -13.431 -45.443  27.472  1.00  0.00    -0.036 A 
ATOM     19  C   UNL     1     -12.393 -46.216  27.909  1.00  0.00     0.074 A 
ATOM     20  C   UNL     1     -14.225 -44.664  28.319  1.00  0.00     0.074 A 
ATOM     21  C   UNL     1     -12.145 -46.196  29.282  1.00  0.00     0.308 A 
ATOM     22  C   UNL     1     -13.917 -44.696  29.663  1.00  0.00     0.308 A 
ATOM     23  N   UNL     1     -12.890 -45.451  30.135  1.00  0.00    -0.201 N 
BRANCH  23  24
ATOM     24  C   UNL     1     -12.621 -45.368  31.539  1.00  0.00     0.397 C 
BRANCH  24  25
ATOM     25  C   UNL     1     -12.993 -44.121  32.203  1.00  0.00     0.063 A 
ATOM     26  C   UNL     1     -12.082 -43.081  32.421  1.00  0.00     0.213 A 
ATOM     27  C   UNL     1     -14.200 -43.668  32.701  1.00  0.00     0.143 A 
ATOM     28  O   UNL     1     -12.686 -42.080  33.004  1.00  0.00    -0.409 OA
ATOM     29  C   UNL     1     -13.959 -42.388  33.190  1.00  0.00     0.433 A 
BRANCH  29  30
ATOM     30  N   UNL     1     -14.927 -41.533  33.799  1.00  0.00     0.102 N 
ATOM     31  O   UNL     1     -16.025 -41.336  33.197  1.00  0.00    -0.256 OA
ATOM     32  O   UNL     1     -14.692 -40.933  35.019  1.00  0.00    -0.256 OA
ENDBRANCH  29  30
ENDBRANCH  24  25
ENDBRANCH  23  24
ENDBRANCH   1  18
TORSDOF 9
ENDMDL
MODEL 7
REMARK VINA RESULT:   -10.278      3.241      4.382
REMARK INTER + INTRA:         -16.200
REMARK INTER:                 -15.416
REMARK INTRA:                  -0.784
REMARK UNBOUND:                -0.514
REMARK SMILES COc1cc2c(cc1OC)S[C@H](C(=O)CCc1cc[n+](Cc3coc([N+](=O)[O-])c3)cc1)C2
REMARK SMILES IDX 16 1 15 2 13 3 14 4 12 5 3 6 4 7 8 8 5 9 7 10 6 11 32 12
REMARK SMILES IDX 11 13 2 14 1 15 9 16 10 17 17 18 18 19 31 20 19 21 30 22
REMARK SMILES IDX 20 23 21 24 22 25 23 26 29 27 24 28 25 29 26 30 27 31 28 32
REMARK H PARENT
ROOT
ATOM      1  C   UNL     1     -15.984 -43.111  25.877  1.00  0.00     0.044 C 
ENDROOT
BRANCH   1   2
ATOM      2  C   UNL     1     -14.880 -43.936  25.229  1.00  0.00     0.081 C 
BRANCH   2   3
ATOM      3  C   UNL     1     -14.009 -44.626  26.214  1.00  0.00     0.146 C 
ATOM      4  O   UNL     1     -13.682 -45.795  26.140  1.00  0.00    -0.298 OA
BRANCH   3   5
ATOM      5  C   UNL     1     -13.533 -43.754  27.347  1.00  0.00     0.123 C 
ATOM      6  C   UNL     1      -8.977 -42.342  28.239  1.00  0.00     0.161 A 
ATOM      7  C   UNL     1     -10.075 -42.100  27.461  1.00  0.00     0.055 A 
ATOM      8  C   UNL     1      -8.896 -43.337  29.200  1.00  0.00     0.161 A 
ATOM      9  C   UNL     1     -11.213 -42.928  27.653  1.00  0.00    -0.029 A 
ATOM     10  C   UNL     1     -10.007 -44.134  29.378  1.00  0.00     0.065 A 
ATOM     11  C   UNL     1     -11.146 -43.904  28.593  1.00  0.00     0.015 A 
ATOM     12  C   UNL     1     -12.464 -42.828  26.915  1.00  0.00     0.059 C 
ATOM     13  S   UNL     1     -12.724 -44.728  28.629  1.00  0.00    -0.114 SA
BRANCH   6  14
ATOM     14  O   UNL     1      -7.851 -41.552  28.076  1.00  0.00    -0.493 OA
ATOM     15  C   UNL     1      -7.376 -41.152  26.828  1.00  0.00     0.278 C 
ENDBRANCH   6  14
BRANCH   8  16
ATOM     16  O   UNL     1      -7.722 -43.458  29.905  1.00  0.00    -0.493 OA
ATOM     17  C   UNL     1      -7.738 -43.549  31.315  1.00  0.00     0.278 C 
ENDBRANCH   8  16
ENDBRANCH   3   5
ENDBRANCH   2   3
ENDBRANCH   1   2
BRANCH   1  18
ATOM     18  C   UNL     1     -16.741 -42.490  24.715  1.00  0.00    -0.036 A 
ATOM     19  C   UNL     1     -18.099 -42.349  24.696  1.00  0.00     0.074 A 
ATOM     20  C   UNL     1     -15.901 -42.016  23.702  1.00  0.00     0.074 A 
ATOM     21  C   UNL     1     -18.636 -41.690  23.590  1.00  0.00     0.308 A 
ATOM     22  C   UNL     1     -16.506 -41.374  22.642  1.00  0.00     0.308 A 
ATOM     23  N   UNL     1     -17.855 -41.213  22.590  1.00  0.00    -0.201 N 
BRANCH  23  24
ATOM     24  C   UNL     1     -18.374 -40.483  21.472  1.00  0.00     0.397 C 
BRANCH  24  25
ATOM     25  C   UNL     1     -19.812 -40.222  21.474  1.00  0.00     0.063 A 
ATOM     26  C   UNL     1     -20.746 -41.142  20.983  1.00  0.00     0.213 A 
ATOM     27  C   UNL     1     -20.552 -39.150  21.934  1.00  0.00     0.143 A 
ATOM     28  O   UNL     1     -21.953 -40.666  21.133  1.00  0.00    -0.409 OA
ATOM     29  C   UNL     1     -21.885 -39.473  21.701  1.00  0.00     0.433 A 
BRANCH  29  30
ATOM     30  N   UNL     1     -23.009 -38.654  22.020  1.00  0.00     0.102 N 
ATOM     31  O   UNL     1     -23.409 -38.616  23.222  1.00  0.00    -0.256 OA
ATOM     32  O   UNL     1     -23.653 -37.905  21.055  1.00  0.00    -0.256 OA
ENDBRANCH  29  30
ENDBRANCH  24  25
ENDBRANCH  23  24
ENDBRANCH   1  18
TORSDOF 9
ENDMDL
MODEL 8
REMARK VINA RESULT:    -9.751      3.923     11.164
REMARK INTER + INTRA:         -15.396
REMARK INTER:                 -14.850
REMARK INTRA:                  -0.546
REMARK UNBOUND:                -0.514
REMARK SMILES COc1cc2c(cc1OC)S[C@H](C(=O)CCc1cc[n+](Cc3coc([N+](=O)[O-])c3)cc1)C2
REMARK SMILES IDX 16 1 15 2 13 3 14 4 12 5 3 6 4 7 8 8 5 9 7 10 6 11 32 12
REMARK SMILES IDX 11 13 2 14 1 15 9 16 10 17 17 18 18 19 31 20 19 21 30 22
REMARK SMILES IDX 20 23 21 24 22 25 23 26 29 27 24 28 25 29 26 30 27 31 28 32
REMARK H PARENT
ROOT
ATOM      1  C   UNL     1     -12.572 -44.831  27.578  1.00  0.00     0.044 C 
ENDROOT
BRANCH   1   2
ATOM      2  C   UNL     1     -14.062 -44.764  27.268  1.00  0.00     0.081 C 
BRANCH   2   3
ATOM      3  C   UNL     1     -14.352 -44.431  25.850  1.00  0.00     0.146 C 
ATOM      4  O   UNL     1     -14.185 -45.195  24.919  1.00  0.00    -0.298 OA
BRANCH   3   5
ATOM      5  C   UNL     1     -14.893 -43.042  25.632  1.00  0.00     0.123 C 
ATOM      6  C   UNL     1     -19.541 -41.763  25.078  1.00  0.00     0.161 A 
ATOM      7  C   UNL     1     -18.593 -42.108  26.002  1.00  0.00     0.055 A 
ATOM      8  C   UNL     1     -19.324 -41.706  23.711  1.00  0.00     0.161 A 
ATOM      9  C   UNL     1     -17.295 -42.431  25.524  1.00  0.00    -0.029 A 
ATOM     10  C   UNL     1     -18.060 -42.022  23.260  1.00  0.00     0.065 A 
ATOM     11  C   UNL     1     -17.071 -42.377  24.188  1.00  0.00     0.015 A 
ATOM     12  C   UNL     1     -16.166 -42.829  26.353  1.00  0.00     0.059 C 
ATOM     13  S   UNL     1     -15.360 -42.783  23.912  1.00  0.00    -0.114 SA
BRANCH   6  14
ATOM     14  O   UNL     1     -20.817 -41.443  25.512  1.00  0.00    -0.493 OA
ATOM     15  C   UNL     1     -21.122 -41.171  26.845  1.00  0.00     0.278 C 
ENDBRANCH   6  14
BRANCH   8  16
ATOM     16  O   UNL     1     -20.376 -41.342  22.906  1.00  0.00    -0.493 OA
ATOM     17  C   UNL     1     -21.087 -42.315  22.168  1.00  0.00     0.278 C 
ENDBRANCH   8  16
ENDBRANCH   3   5
ENDBRANCH   2   3
ENDBRANCH   1   2
BRANCH   1  18
ATOM     18  C   UNL     1     -12.446 -44.328  29.006  1.00  0.00    -0.036 A 
ATOM     19  C   UNL     1     -13.173 -44.835  30.045  1.00  0.00     0.074 A 
ATOM     20  C   UNL     1     -11.463 -43.345  29.157  1.00  0.00     0.074 A 
ATOM     21  C   UNL     1     -12.885 -44.319  31.309  1.00  0.00     0.308 A 
ATOM     22  C   UNL     1     -11.235 -42.885  30.437  1.00  0.00     0.308 A 
ATOM     23  N   UNL     1     -11.937 -43.367  31.496  1.00  0.00    -0.201 N 
BRANCH  23  24
ATOM     24  C   UNL     1     -11.582 -42.862  32.789  1.00  0.00     0.397 C 
BRANCH  24  25
ATOM     25  C   UNL     1     -10.162 -42.877  33.129  1.00  0.00     0.063 A 
ATOM     26  C   UNL     1      -9.646 -42.217  34.250  1.00  0.00     0.213 A 
ATOM     27  C   UNL     1      -9.080 -43.498  32.533  1.00  0.00     0.143 A 
ATOM     28  O   UNL     1      -8.358 -42.421  34.327  1.00  0.00    -0.409 OA
ATOM     29  C   UNL     1      -7.975 -43.185  33.319  1.00  0.00     0.433 A 
BRANCH  29  30
ATOM     30  N   UNL     1      -6.635 -43.616  33.081  1.00  0.00     0.102 N 
ATOM     31  O   UNL     1      -6.449 -44.758  32.565  1.00  0.00    -0.256 OA
ATOM     32  O   UNL     1      -5.554 -42.816  33.392  1.00  0.00    -0.256 OA
ENDBRANCH  29  30
ENDBRANCH  24  25
ENDBRANCH  23  24
ENDBRANCH   1  18
TORSDOF 9
ENDMDL
MODEL 9
REMARK VINA RESULT:    -9.719      2.406      3.024
REMARK INTER + INTRA:         -15.348
REMARK INTER:                 -15.016
REMARK INTRA:                  -0.331
REMARK UNBOUND:                -0.514
REMARK SMILES COc1cc2c(cc1OC)S[C@H](C(=O)CCc1cc[n+](Cc3coc([N+](=O)[O-])c3)cc1)C2
REMARK SMILES IDX 16 1 15 2 13 3 14 4 12 5 3 6 4 7 8 8 5 9 7 10 6 11 32 12
REMARK SMILES IDX 11 13 2 14 1 15 9 16 10 17 17 18 18 19 31 20 19 21 30 22
REMARK SMILES IDX 20 23 21 24 22 25 23 26 29 27 24 28 25 29 26 30 27 31 28 32
REMARK H PARENT
ROOT
ATOM      1  C   UNL     1     -13.403 -43.800  26.922  1.00  0.00     0.044 C 
ENDROOT
BRANCH   1   2
ATOM      2  C   UNL     1     -13.849 -44.918  27.855  1.00  0.00     0.081 C 
BRANCH   2   3
ATOM      3  C   UNL     1     -12.874 -46.034  27.942  1.00  0.00     0.146 C 
ATOM      4  O   UNL     1     -12.493 -46.689  26.991  1.00  0.00    -0.298 OA
BRANCH   3   5
ATOM      5  C   UNL     1     -12.362 -46.310  29.333  1.00  0.00     0.123 C 
ATOM      6  C   UNL     1     -10.694 -43.065  32.533  1.00  0.00     0.161 A 
ATOM      7  C   UNL     1     -11.832 -43.595  31.988  1.00  0.00     0.055 A 
ATOM      8  C   UNL     1      -9.406 -43.428  32.173  1.00  0.00     0.161 A 
ATOM      9  C   UNL     1     -11.680 -44.588  30.984  1.00  0.00    -0.029 A 
ATOM     10  C   UNL     1      -9.272 -44.392  31.197  1.00  0.00     0.065 A 
ATOM     11  C   UNL     1     -10.423 -44.952  30.625  1.00  0.00     0.015 A 
ATOM     12  C   UNL     1     -12.769 -45.255  30.286  1.00  0.00     0.059 C 
ATOM     13  S   UNL     1     -10.563 -46.232  29.396  1.00  0.00    -0.114 SA
BRANCH   6  14
ATOM     14  O   UNL     1     -10.807 -42.095  33.515  1.00  0.00    -0.493 OA
ATOM     15  C   UNL     1     -11.984 -41.868  34.228  1.00  0.00     0.278 C 
ENDBRANCH   6  14
BRANCH   8  16
ATOM     16  O   UNL     1      -8.359 -42.806  32.811  1.00  0.00    -0.493 OA
ATOM     17  C   UNL     1      -7.102 -43.442  32.916  1.00  0.00     0.278 C 
ENDBRANCH   8  16
ENDBRANCH   3   5
ENDBRANCH   2   3
ENDBRANCH   1   2
BRANCH   1  18
ATOM     18  C   UNL     1     -14.635 -43.460  26.101  1.00  0.00    -0.036 A 
ATOM     19  C   UNL     1     -15.773 -42.932  26.640  1.00  0.00     0.074 A 
ATOM     20  C   UNL     1     -14.459 -43.678  24.730  1.00  0.00     0.074 A 
ATOM     21  C   UNL     1     -16.788 -42.604  25.741  1.00  0.00     0.308 A 
ATOM     22  C   UNL     1     -15.507 -43.328  23.905  1.00  0.00     0.308 A 
ATOM     23  N   UNL     1     -16.653 -42.798  24.406  1.00  0.00    -0.201 N 
BRANCH  23  24
ATOM     24  C   UNL     1     -17.656 -42.417  23.456  1.00  0.00     0.397 C 
BRANCH  24  25
ATOM     25  C   UNL     1     -18.981 -42.112  23.992  1.00  0.00     0.063 A 
ATOM     26  C   UNL     1     -20.162 -42.445  23.321  1.00  0.00     0.213 A 
ATOM     27  C   UNL     1     -19.380 -41.517  25.175  1.00  0.00     0.143 A 
ATOM     28  O   UNL     1     -21.193 -42.084  24.037  1.00  0.00    -0.409 OA
ATOM     29  C   UNL     1     -20.771 -41.524  25.158  1.00  0.00     0.433 A 
BRANCH  29  30
ATOM     30  N   UNL     1     -21.619 -41.009  26.185  1.00  0.00     0.102 N 
ATOM     31  O   UNL     1     -21.439 -41.406  27.375  1.00  0.00    -0.256 OA
ATOM     32  O   UNL     1     -22.611 -40.090  25.907  1.00  0.00    -0.256 OA
ENDBRANCH  29  30
ENDBRANCH  24  25
ENDBRANCH  23  24
ENDBRANCH   1  18
TORSDOF 9
ENDMDL
