MODEL 1
REMARK VINA RESULT:   -11.241      0.000      0.000
REMARK INTER + INTRA:         -15.008
REMARK INTER:                 -14.526
REMARK INTRA:                  -0.481
REMARK UNBOUND:                -0.481
REMARK SMILES O=C(C[NH2+]Cc1cc(F)cc(F)c1)Nc1ccc2nc3n(c(=O)c2c1)CCC3
REMARK SMILES IDX 3 1 4 2 5 5 6 6 7 7 13 8 8 9 11 10 10 11 9 12 12 13 2 14
REMARK SMILES IDX 14 15 1 16 15 18 16 19 25 20 17 21 24 22 18 23 22 24 19 25
REMARK SMILES IDX 21 26 20 27 26 28 28 29 27 30 23 31
REMARK H PARENT 4 3 4 4 14 17
ROOT
ATOM      1  C   UNL     1     -11.304 -45.156  28.543  1.00  0.00     0.362 C 
ENDROOT
BRANCH   1   2
ATOM      2  N   UNL     1     -11.343 -46.372  29.437  1.00  0.00    -0.335 N 
ATOM      3  H   UNL     1     -10.528 -46.979  29.287  1.00  0.00     0.347 HD
ATOM      4  H   UNL     1     -12.174 -46.913  29.144  1.00  0.00     0.347 HD
BRANCH   2   5
ATOM      5  C   UNL     1     -11.512 -46.082  30.888  1.00  0.00     0.297 C 
BRANCH   5   6
ATOM      6  C   UNL     1     -10.315 -45.357  31.432  1.00  0.00     0.012 A 
ATOM      7  C   UNL     1     -10.472 -44.157  32.141  1.00  0.00     0.049 A 
ATOM      8  C   UNL     1      -9.024 -45.885  31.283  1.00  0.00     0.049 A 
ATOM      9  C   UNL     1      -9.358 -43.505  32.673  1.00  0.00     0.126 A 
ATOM     10  C   UNL     1      -7.927 -45.213  31.825  1.00  0.00     0.126 A 
ATOM     11  C   UNL     1      -8.081 -44.024  32.521  1.00  0.00     0.078 A 
ATOM     12  F   UNL     1      -9.532 -42.363  33.347  1.00  0.00    -0.207 F 
ATOM     13  F   UNL     1      -6.706 -45.738  31.671  1.00  0.00    -0.207 F 
ENDBRANCH   5   6
ENDBRANCH   2   5
ENDBRANCH   1   2
BRANCH   1  14
ATOM     14  C   UNL     1     -12.552 -45.105  27.658  1.00  0.00     0.279 C 
ATOM     15  N   UNL     1     -12.974 -43.833  27.339  1.00  0.00    -0.321 N 
ATOM     16  O   UNL     1     -13.058 -46.175  27.318  1.00  0.00    -0.268 OA
ATOM     17  H   UNL     1     -12.438 -43.040  27.680  1.00  0.00     0.170 HD
BRANCH  15  18
ATOM     18  C   UNL     1     -14.093 -43.482  26.549  1.00  0.00     0.042 A 
ATOM     19  C   UNL     1     -14.101 -43.480  25.151  1.00  0.00     0.028 A 
ATOM     20  C   UNL     1     -15.258 -43.115  27.229  1.00  0.00     0.042 A 
ATOM     21  C   UNL     1     -15.257 -43.115  24.444  1.00  0.00     0.031 A 
ATOM     22  C   UNL     1     -16.408 -42.754  26.513  1.00  0.00     0.068 A 
ATOM     23  C   UNL     1     -16.422 -42.749  25.114  1.00  0.00     0.078 A 
ATOM     24  C   UNL     1     -17.643 -42.366  27.228  1.00  0.00     0.261 A 
ATOM     25  N   UNL     1     -17.553 -42.384  24.362  1.00  0.00    -0.234 NA
ATOM     26  N   UNL     1     -18.703 -42.076  26.407  1.00  0.00    -0.296 N 
ATOM     27  C   UNL     1     -18.612 -42.076  25.029  1.00  0.00     0.112 A 
ATOM     28  C   UNL     1     -19.997 -41.630  26.849  1.00  0.00     0.128 C 
ATOM     29  C   UNL     1     -19.920 -41.638  24.445  1.00  0.00     0.077 C 
ATOM     30  C   UNL     1     -20.875 -41.819  25.622  1.00  0.00     0.030 C 
ATOM     31  O   UNL     1     -17.667 -42.316  28.452  1.00  0.00    -0.269 OA
ENDBRANCH  15  18
ENDBRANCH   1  14
TORSDOF 5
ENDMDL
MODEL 2
REMARK VINA RESULT:   -11.164      1.110      1.999
REMARK INTER + INTRA:         -14.909
REMARK INTER:                 -14.596
REMARK INTRA:                  -0.313
REMARK UNBOUND:                -0.481
REMARK SMILES O=C(C[NH2+]Cc1cc(F)cc(F)c1)Nc1ccc2nc3n(c(=O)c2c1)CCC3
REMARK SMILES IDX 3 1 4 2 5 5 6 6 7 7 13 8 8 9 11 10 10 11 9 12 12 13 2 14
REMARK SMILES IDX 14 15 1 16 15 18 16 19 25 20 17 21 24 22 18 23 22 24 19 25
REMARK SMILES IDX 21 26 20 27 26 28 28 29 27 30 23 31
REMARK H PARENT 4 3 4 4 14 17
ROOT
ATOM      1  C   UNL     1     -12.593 -44.795  28.894  1.00  0.00     0.362 C 
ENDROOT
BRANCH   1   2
ATOM      2  N   UNL     1     -12.817 -46.111  29.598  1.00  0.00    -0.335 N 
ATOM      3  H   UNL     1     -12.245 -46.860  29.191  1.00  0.00     0.347 HD
ATOM      4  H   UNL     1     -13.805 -46.362  29.422  1.00  0.00     0.347 HD
BRANCH   2   5
ATOM      5  C   UNL     1     -12.643 -46.072  31.077  1.00  0.00     0.297 C 
BRANCH   5   6
ATOM      6  C   UNL     1     -11.260 -45.612  31.440  1.00  0.00     0.012 A 
ATOM      7  C   UNL     1     -10.141 -46.387  31.102  1.00  0.00     0.049 A 
ATOM      8  C   UNL     1     -11.055 -44.381  32.081  1.00  0.00     0.049 A 
ATOM      9  C   UNL     1      -8.857 -45.939  31.413  1.00  0.00     0.126 A 
ATOM     10  C   UNL     1      -9.760 -43.956  32.381  1.00  0.00     0.126 A 
ATOM     11  C   UNL     1      -8.654 -44.724  32.051  1.00  0.00     0.078 A 
ATOM     12  F   UNL     1      -7.804 -46.694  31.079  1.00  0.00    -0.207 F 
ATOM     13  F   UNL     1      -9.590 -42.777  32.991  1.00  0.00    -0.207 F 
ENDBRANCH   5   6
ENDBRANCH   2   5
ENDBRANCH   1   2
BRANCH   1  14
ATOM     14  C   UNL     1     -13.425 -44.728  27.610  1.00  0.00     0.279 C 
ATOM     15  N   UNL     1     -14.096 -43.539  27.426  1.00  0.00    -0.321 N 
ATOM     16  O   UNL     1     -13.423 -45.715  26.875  1.00  0.00    -0.268 OA
ATOM     17  H   UNL     1     -13.984 -42.802  28.116  1.00  0.00     0.170 HD
BRANCH  15  18
ATOM     18  C   UNL     1     -14.940 -43.199  26.344  1.00  0.00     0.042 A 
ATOM     19  C   UNL     1     -14.547 -43.217  25.002  1.00  0.00     0.028 A 
ATOM     20  C   UNL     1     -16.250 -42.821  26.656  1.00  0.00     0.042 A 
ATOM     21  C   UNL     1     -15.450 -42.862  23.989  1.00  0.00     0.031 A 
ATOM     22  C   UNL     1     -17.144 -42.470  25.635  1.00  0.00     0.068 A 
ATOM     23  C   UNL     1     -16.756 -42.485  24.292  1.00  0.00     0.078 A 
ATOM     24  C   UNL     1     -18.530 -42.070  25.960  1.00  0.00     0.261 A 
ATOM     25  N   UNL     1     -17.622 -42.130  23.241  1.00  0.00    -0.234 NA
ATOM     26  N   UNL     1     -19.309 -41.792  24.866  1.00  0.00    -0.296 N 
ATOM     27  C   UNL     1     -18.826 -41.812  23.573  1.00  0.00     0.112 A 
ATOM     28  C   UNL     1     -20.673 -41.339  24.912  1.00  0.00     0.128 C 
ATOM     29  C   UNL     1     -19.909 -41.381  22.631  1.00  0.00     0.077 C 
ATOM     30  C   UNL     1     -21.163 -41.545  23.488  1.00  0.00     0.030 C 
ATOM     31  O   UNL     1     -18.904 -42.002  27.126  1.00  0.00    -0.269 OA
ENDBRANCH  15  18
ENDBRANCH   1  14
TORSDOF 5
ENDMDL
MODEL 3
REMARK VINA RESULT:   -11.011      1.615      2.387
REMARK INTER + INTRA:         -14.711
REMARK INTER:                 -14.500
REMARK INTRA:                  -0.211
REMARK UNBOUND:                -0.481
REMARK SMILES O=C(C[NH2+]Cc1cc(F)cc(F)c1)Nc1ccc2nc3n(c(=O)c2c1)CCC3
REMARK SMILES IDX 3 1 4 2 5 5 6 6 7 7 13 8 8 9 11 10 10 11 9 12 12 13 2 14
REMARK SMILES IDX 14 15 1 16 15 18 16 19 25 20 17 21 24 22 18 23 22 24 19 25
REMARK SMILES IDX 21 26 20 27 26 28 28 29 27 30 23 31
REMARK H PARENT 4 3 4 4 14 17
ROOT
ATOM      1  C   UNL     1     -13.505 -45.254  29.509  1.00  0.00     0.362 C 
ENDROOT
BRANCH   1   2
ATOM      2  N   UNL     1     -12.659 -44.200  30.182  1.00  0.00    -0.335 N 
ATOM      3  H   UNL     1     -13.088 -43.270  30.114  1.00  0.00     0.347 HD
ATOM      4  H   UNL     1     -11.776 -44.160  29.646  1.00  0.00     0.347 HD
BRANCH   2   5
ATOM      5  C   UNL     1     -12.288 -44.496  31.594  1.00  0.00     0.297 C 
BRANCH   5   6
ATOM      6  C   UNL     1     -10.813 -44.745  31.718  1.00  0.00     0.012 A 
ATOM      7  C   UNL     1     -10.274 -46.000  31.399  1.00  0.00     0.049 A 
ATOM      8  C   UNL     1      -9.939 -43.719  32.109  1.00  0.00     0.049 A 
ATOM      9  C   UNL     1      -8.898 -46.215  31.484  1.00  0.00     0.126 A 
ATOM     10  C   UNL     1      -8.566 -43.960  32.185  1.00  0.00     0.126 A 
ATOM     11  C   UNL     1      -8.035 -45.202  31.875  1.00  0.00     0.078 A 
ATOM     12  F   UNL     1      -8.406 -47.419  31.173  1.00  0.00    -0.207 F 
ATOM     13  F   UNL     1      -7.754 -42.965  32.559  1.00  0.00    -0.207 F 
ENDBRANCH   5   6
ENDBRANCH   2   5
ENDBRANCH   1   2
BRANCH   1  14
ATOM     14  C   UNL     1     -13.732 -44.895  28.038  1.00  0.00     0.279 C 
ATOM     15  N   UNL     1     -14.627 -43.868  27.833  1.00  0.00    -0.321 N 
ATOM     16  O   UNL     1     -13.115 -45.538  27.190  1.00  0.00    -0.268 OA
ATOM     17  H   UNL     1     -15.047 -43.416  28.641  1.00  0.00     0.170 HD
BRANCH  15  18
ATOM     18  C   UNL     1     -15.035 -43.332  26.590  1.00  0.00     0.042 A 
ATOM     19  C   UNL     1     -14.178 -43.112  25.507  1.00  0.00     0.028 A 
ATOM     20  C   UNL     1     -16.388 -43.006  26.453  1.00  0.00     0.042 A 
ATOM     21  C   UNL     1     -14.666 -42.574  24.308  1.00  0.00     0.031 A 
ATOM     22  C   UNL     1     -16.866 -42.471  25.249  1.00  0.00     0.068 A 
ATOM     23  C   UNL     1     -16.012 -42.247  24.164  1.00  0.00     0.078 A 
ATOM     24  C   UNL     1     -18.296 -42.125  25.099  1.00  0.00     0.261 A 
ATOM     25  N   UNL     1     -16.453 -41.703  22.943  1.00  0.00    -0.234 NA
ATOM     26  N   UNL     1     -18.634 -41.649  23.859  1.00  0.00    -0.296 N 
ATOM     27  C   UNL     1     -17.712 -41.440  22.854  1.00  0.00     0.112 A 
ATOM     28  C   UNL     1     -19.945 -41.200  23.472  1.00  0.00     0.128 C 
ATOM     29  C   UNL     1     -18.399 -40.838  21.666  1.00  0.00     0.077 C 
ATOM     30  C   UNL     1     -19.867 -41.143  21.955  1.00  0.00     0.030 C 
ATOM     31  O   UNL     1     -19.073 -42.264  26.037  1.00  0.00    -0.269 OA
ENDBRANCH  15  18
ENDBRANCH   1  14
TORSDOF 5
ENDMDL
MODEL 4
REMARK VINA RESULT:   -10.867      3.837      9.795
REMARK INTER + INTRA:         -14.525
REMARK INTER:                 -14.182
REMARK INTRA:                  -0.343
REMARK UNBOUND:                -0.481
REMARK SMILES O=C(C[NH2+]Cc1cc(F)cc(F)c1)Nc1ccc2nc3n(c(=O)c2c1)CCC3
REMARK SMILES IDX 3 1 4 2 5 5 6 6 7 7 13 8 8 9 11 10 10 11 9 12 12 13 2 14
REMARK SMILES IDX 14 15 1 16 15 18 16 19 25 20 17 21 24 22 18 23 22 24 19 25
REMARK SMILES IDX 21 26 20 27 26 28 28 29 27 30 23 31
REMARK H PARENT 4 3 4 4 14 17
ROOT
ATOM      1  C   UNL     1     -15.350 -42.648  23.871  1.00  0.00     0.362 C 
ENDROOT
BRANCH   1   2
ATOM      2  N   UNL     1     -16.764 -43.126  23.646  1.00  0.00    -0.335 N 
ATOM      3  H   UNL     1     -17.072 -43.763  24.389  1.00  0.00     0.347 HD
ATOM      4  H   UNL     1     -16.741 -43.678  22.771  1.00  0.00     0.347 HD
BRANCH   2   5
ATOM      5  C   UNL     1     -17.769 -42.045  23.442  1.00  0.00     0.297 C 
BRANCH   5   6
ATOM      6  C   UNL     1     -18.647 -41.898  24.651  1.00  0.00     0.012 A 
ATOM      7  C   UNL     1     -18.201 -42.324  25.911  1.00  0.00     0.049 A 
ATOM      8  C   UNL     1     -19.909 -41.290  24.556  1.00  0.00     0.049 A 
ATOM      9  C   UNL     1     -19.009 -42.153  27.036  1.00  0.00     0.126 A 
ATOM     10  C   UNL     1     -20.697 -41.132  25.697  1.00  0.00     0.126 A 
ATOM     11  C   UNL     1     -20.258 -41.558  26.941  1.00  0.00     0.078 A 
ATOM     12  F   UNL     1     -18.562 -42.566  28.228  1.00  0.00    -0.207 F 
ATOM     13  F   UNL     1     -21.895 -40.549  25.581  1.00  0.00    -0.207 F 
ENDBRANCH   5   6
ENDBRANCH   2   5
ENDBRANCH   1   2
BRANCH   1  14
ATOM     14  C   UNL     1     -14.589 -43.637  24.759  1.00  0.00     0.279 C 
ATOM     15  N   UNL     1     -14.115 -43.100  25.935  1.00  0.00    -0.321 N 
ATOM     16  O   UNL     1     -14.468 -44.794  24.355  1.00  0.00    -0.268 OA
ATOM     17  H   UNL     1     -14.312 -42.125  26.142  1.00  0.00     0.170 HD
BRANCH  15  18
ATOM     18  C   UNL     1     -13.377 -43.769  26.939  1.00  0.00     0.042 A 
ATOM     19  C   UNL     1     -13.756 -44.983  27.519  1.00  0.00     0.028 A 
ATOM     20  C   UNL     1     -12.192 -43.161  27.365  1.00  0.00     0.042 A 
ATOM     21  C   UNL     1     -12.964 -45.579  28.511  1.00  0.00     0.031 A 
ATOM     22  C   UNL     1     -11.406 -43.766  28.356  1.00  0.00     0.068 A 
ATOM     23  C   UNL     1     -11.782 -44.980  28.942  1.00  0.00     0.078 A 
ATOM     24  C   UNL     1     -10.153 -43.127  28.811  1.00  0.00     0.261 A 
ATOM     25  N   UNL     1     -11.025 -45.612  29.945  1.00  0.00    -0.234 NA
ATOM     26  N   UNL     1      -9.463 -43.845  29.754  1.00  0.00    -0.296 N 
ATOM     27  C   UNL     1      -9.929 -45.028  30.291  1.00  0.00     0.112 A 
ATOM     28  C   UNL     1      -8.243 -43.423  30.390  1.00  0.00     0.128 C 
ATOM     29  C   UNL     1      -8.979 -45.504  31.347  1.00  0.00     0.077 C 
ATOM     30  C   UNL     1      -7.721 -44.697  31.034  1.00  0.00     0.030 C 
ATOM     31  O   UNL     1      -9.804 -42.043  28.357  1.00  0.00    -0.269 OA
ENDBRANCH  15  18
ENDBRANCH   1  14
TORSDOF 5
ENDMDL
MODEL 5
REMARK VINA RESULT:   -10.617      4.643     10.543
REMARK INTER + INTRA:         -14.202
REMARK INTER:                 -13.950
REMARK INTRA:                  -0.252
REMARK UNBOUND:                -0.481
REMARK SMILES O=C(C[NH2+]Cc1cc(F)cc(F)c1)Nc1ccc2nc3n(c(=O)c2c1)CCC3
REMARK SMILES IDX 3 1 4 2 5 5 6 6 7 7 13 8 8 9 11 10 10 11 9 12 12 13 2 14
REMARK SMILES IDX 14 15 1 16 15 18 16 19 25 20 17 21 24 22 18 23 22 24 19 25
REMARK SMILES IDX 21 26 20 27 26 28 28 29 27 30 23 31
REMARK H PARENT 4 3 4 4 14 17
ROOT
ATOM      1  C   UNL     1     -16.391 -42.678  26.022  1.00  0.00     0.362 C 
ENDROOT
BRANCH   1   2
ATOM      2  N   UNL     1     -16.340 -42.348  24.550  1.00  0.00    -0.335 N 
ATOM      3  H   UNL     1     -15.431 -42.589  24.139  1.00  0.00     0.347 HD
ATOM      4  H   UNL     1     -16.433 -41.320  24.486  1.00  0.00     0.347 HD
BRANCH   2   5
ATOM      5  C   UNL     1     -17.445 -42.928  23.736  1.00  0.00     0.297 C 
BRANCH   5   6
ATOM      6  C   UNL     1     -18.482 -41.887  23.425  1.00  0.00     0.012 A 
ATOM      7  C   UNL     1     -18.410 -41.143  22.238  1.00  0.00     0.049 A 
ATOM      8  C   UNL     1     -19.567 -41.671  24.288  1.00  0.00     0.049 A 
ATOM      9  C   UNL     1     -19.395 -40.201  21.939  1.00  0.00     0.126 A 
ATOM     10  C   UNL     1     -20.539 -40.722  23.964  1.00  0.00     0.126 A 
ATOM     11  C   UNL     1     -20.464 -39.983  22.794  1.00  0.00     0.078 A 
ATOM     12  F   UNL     1     -19.306 -39.504  20.801  1.00  0.00    -0.207 F 
ATOM     13  F   UNL     1     -21.565 -40.535  24.803  1.00  0.00    -0.207 F 
ENDBRANCH   5   6
ENDBRANCH   2   5
ENDBRANCH   1   2
BRANCH   1  14
ATOM     14  C   UNL     1     -14.992 -43.019  26.541  1.00  0.00     0.279 C 
ATOM     15  N   UNL     1     -14.841 -44.324  26.958  1.00  0.00    -0.321 N 
ATOM     16  O   UNL     1     -14.147 -42.125  26.542  1.00  0.00    -0.268 OA
ATOM     17  H   UNL     1     -15.631 -44.958  26.877  1.00  0.00     0.170 HD
BRANCH  15  18
ATOM     18  C   UNL     1     -13.671 -44.917  27.486  1.00  0.00     0.042 A 
ATOM     19  C   UNL     1     -13.047 -46.045  26.946  1.00  0.00     0.028 A 
ATOM     20  C   UNL     1     -13.117 -44.322  28.624  1.00  0.00     0.042 A 
ATOM     21  C   UNL     1     -11.887 -46.571  27.535  1.00  0.00     0.031 A 
ATOM     22  C   UNL     1     -11.957 -44.854  29.204  1.00  0.00     0.068 A 
ATOM     23  C   UNL     1     -11.330 -45.984  28.669  1.00  0.00     0.078 A 
ATOM     24  C   UNL     1     -11.368 -44.228  30.407  1.00  0.00     0.261 A 
ATOM     25  N   UNL     1     -10.170 -46.552  29.229  1.00  0.00    -0.234 NA
ATOM     26  N   UNL     1     -10.214 -44.826  30.846  1.00  0.00    -0.296 N 
ATOM     27  C   UNL     1      -9.681 -45.957  30.262  1.00  0.00     0.112 A 
ATOM     28  C   UNL     1      -9.473 -44.439  32.017  1.00  0.00     0.128 C 
ATOM     29  C   UNL     1      -8.473 -46.393  31.033  1.00  0.00     0.077 C 
ATOM     30  C   UNL     1      -8.136 -45.139  31.838  1.00  0.00     0.030 C 
ATOM     31  O   UNL     1     -11.906 -43.262  30.936  1.00  0.00    -0.269 OA
ENDBRANCH  15  18
ENDBRANCH   1  14
TORSDOF 5
ENDMDL
MODEL 6
REMARK VINA RESULT:   -10.515      1.635      2.016
REMARK INTER + INTRA:         -14.069
REMARK INTER:                 -13.598
REMARK INTRA:                  -0.471
REMARK UNBOUND:                -0.481
REMARK SMILES O=C(C[NH2+]Cc1cc(F)cc(F)c1)Nc1ccc2nc3n(c(=O)c2c1)CCC3
REMARK SMILES IDX 3 1 4 2 5 5 6 6 7 7 13 8 8 9 11 10 10 11 9 12 12 13 2 14
REMARK SMILES IDX 14 15 1 16 15 18 16 19 25 20 17 21 24 22 18 23 22 24 19 25
REMARK SMILES IDX 21 26 20 27 26 28 28 29 27 30 23 31
REMARK H PARENT 4 3 4 4 14 17
ROOT
ATOM      1  C   UNL     1     -12.190 -44.767  28.463  1.00  0.00     0.362 C 
ENDROOT
BRANCH   1   2
ATOM      2  N   UNL     1     -13.148 -45.623  29.256  1.00  0.00    -0.335 N 
ATOM      3  H   UNL     1     -13.503 -46.410  28.700  1.00  0.00     0.347 HD
ATOM      4  H   UNL     1     -13.961 -45.018  29.467  1.00  0.00     0.347 HD
BRANCH   2   5
ATOM      5  C   UNL     1     -12.626 -46.109  30.564  1.00  0.00     0.297 C 
BRANCH   5   6
ATOM      6  C   UNL     1     -12.131 -44.964  31.400  1.00  0.00     0.012 A 
ATOM      7  C   UNL     1     -13.031 -44.025  31.924  1.00  0.00     0.049 A 
ATOM      8  C   UNL     1     -10.769 -44.835  31.712  1.00  0.00     0.049 A 
ATOM      9  C   UNL     1     -12.569 -42.983  32.729  1.00  0.00     0.126 A 
ATOM     10  C   UNL     1     -10.333 -43.783  32.519  1.00  0.00     0.126 A 
ATOM     11  C   UNL     1     -11.223 -42.852  33.033  1.00  0.00     0.078 A 
ATOM     12  F   UNL     1     -13.447 -42.100  33.219  1.00  0.00    -0.207 F 
ATOM     13  F   UNL     1      -9.030 -43.682  32.804  1.00  0.00    -0.207 F 
ENDBRANCH   5   6
ENDBRANCH   2   5
ENDBRANCH   1   2
BRANCH   1  14
ATOM     14  C   UNL     1     -12.957 -43.887  27.473  1.00  0.00     0.279 C 
ATOM     15  N   UNL     1     -14.106 -44.458  26.973  1.00  0.00    -0.321 N 
ATOM     16  O   UNL     1     -12.493 -42.776  27.215  1.00  0.00    -0.268 OA
ATOM     17  H   UNL     1     -14.374 -45.383  27.297  1.00  0.00     0.170 HD
BRANCH  15  18
ATOM     18  C   UNL     1     -15.004 -43.886  26.042  1.00  0.00     0.042 A 
ATOM     19  C   UNL     1     -14.783 -43.836  24.662  1.00  0.00     0.028 A 
ATOM     20  C   UNL     1     -16.185 -43.340  26.553  1.00  0.00     0.042 A 
ATOM     21  C   UNL     1     -15.727 -43.248  23.808  1.00  0.00     0.031 A 
ATOM     22  C   UNL     1     -17.123 -42.756  25.691  1.00  0.00     0.068 A 
ATOM     23  C   UNL     1     -16.906 -42.702  24.310  1.00  0.00     0.078 A 
ATOM     24  C   UNL     1     -18.374 -42.177  26.227  1.00  0.00     0.261 A 
ATOM     25  N   UNL     1     -17.820 -42.116  23.414  1.00  0.00    -0.234 NA
ATOM     26  N   UNL     1     -19.219 -41.676  25.270  1.00  0.00    -0.296 N 
ATOM     27  C   UNL     1     -18.905 -41.646  23.927  1.00  0.00     0.112 A 
ATOM     28  C   UNL     1     -20.473 -41.021  25.532  1.00  0.00     0.128 C 
ATOM     29  C   UNL     1     -20.005 -40.962  23.174  1.00  0.00     0.077 C 
ATOM     30  C   UNL     1     -21.157 -41.009  24.175  1.00  0.00     0.030 C 
ATOM     31  O   UNL     1     -18.589 -42.165  27.434  1.00  0.00    -0.269 OA
ENDBRANCH  15  18
ENDBRANCH   1  14
TORSDOF 5
ENDMDL
MODEL 7
REMARK VINA RESULT:   -10.410      4.259      9.848
REMARK INTER + INTRA:         -13.934
REMARK INTER:                 -13.454
REMARK INTRA:                  -0.480
REMARK UNBOUND:                -0.481
REMARK SMILES O=C(C[NH2+]Cc1cc(F)cc(F)c1)Nc1ccc2nc3n(c(=O)c2c1)CCC3
REMARK SMILES IDX 3 1 4 2 5 5 6 6 7 7 13 8 8 9 11 10 10 11 9 12 12 13 2 14
REMARK SMILES IDX 14 15 1 16 15 18 16 19 25 20 17 21 24 22 18 23 22 24 19 25
REMARK SMILES IDX 21 26 20 27 26 28 28 29 27 30 23 31
REMARK H PARENT 4 3 4 4 14 17
ROOT
ATOM      1  C   UNL     1     -16.113 -42.716  25.021  1.00  0.00     0.362 C 
ENDROOT
BRANCH   1   2
ATOM      2  N   UNL     1     -17.062 -42.726  26.195  1.00  0.00    -0.335 N 
ATOM      3  H   UNL     1     -16.638 -42.301  27.028  1.00  0.00     0.347 HD
ATOM      4  H   UNL     1     -17.223 -43.723  26.421  1.00  0.00     0.347 HD
BRANCH   2   5
ATOM      5  C   UNL     1     -18.399 -42.126  25.931  1.00  0.00     0.297 C 
BRANCH   5   6
ATOM      6  C   UNL     1     -19.493 -43.115  26.211  1.00  0.00     0.012 A 
ATOM      7  C   UNL     1     -20.091 -43.831  25.163  1.00  0.00     0.049 A 
ATOM      8  C   UNL     1     -19.908 -43.379  27.525  1.00  0.00     0.049 A 
ATOM      9  C   UNL     1     -21.084 -44.773  25.433  1.00  0.00     0.126 A 
ATOM     10  C   UNL     1     -20.904 -44.326  27.768  1.00  0.00     0.126 A 
ATOM     11  C   UNL     1     -21.498 -45.030  26.732  1.00  0.00     0.078 A 
ATOM     12  F   UNL     1     -21.639 -45.444  24.418  1.00  0.00    -0.207 F 
ATOM     13  F   UNL     1     -21.280 -44.561  29.030  1.00  0.00    -0.207 F 
ENDBRANCH   5   6
ENDBRANCH   2   5
ENDBRANCH   1   2
BRANCH   1  14
ATOM     14  C   UNL     1     -14.773 -43.346  25.412  1.00  0.00     0.279 C 
ATOM     15  N   UNL     1     -14.803 -44.066  26.586  1.00  0.00    -0.321 N 
ATOM     16  O   UNL     1     -13.813 -43.159  24.666  1.00  0.00    -0.268 OA
ATOM     17  H   UNL     1     -15.683 -44.149  27.088  1.00  0.00     0.170 HD
BRANCH  15  18
ATOM     18  C   UNL     1     -13.722 -44.746  27.193  1.00  0.00     0.042 A 
ATOM     19  C   UNL     1     -13.206 -45.966  26.743  1.00  0.00     0.028 A 
ATOM     20  C   UNL     1     -13.144 -44.145  28.315  1.00  0.00     0.042 A 
ATOM     21  C   UNL     1     -12.130 -46.574  27.407  1.00  0.00     0.031 A 
ATOM     22  C   UNL     1     -12.068 -44.761  28.970  1.00  0.00     0.068 A 
ATOM     23  C   UNL     1     -11.549 -45.981  28.525  1.00  0.00     0.078 A 
ATOM     24  C   UNL     1     -11.454 -44.128  30.157  1.00  0.00     0.261 A 
ATOM     25  N   UNL     1     -10.477 -46.633  29.161  1.00  0.00    -0.234 NA
ATOM     26  N   UNL     1     -10.386 -44.816  30.674  1.00  0.00    -0.296 N 
ATOM     27  C   UNL     1      -9.960 -46.032  30.177  1.00  0.00     0.112 A 
ATOM     28  C   UNL     1      -9.646 -44.439  31.848  1.00  0.00     0.128 C 
ATOM     29  C   UNL     1      -8.832 -46.545  31.018  1.00  0.00     0.077 C 
ATOM     30  C   UNL     1      -8.387 -45.287  31.762  1.00  0.00     0.030 C 
ATOM     31  O   UNL     1     -11.901 -43.080  30.608  1.00  0.00    -0.269 OA
ENDBRANCH  15  18
ENDBRANCH   1  14
TORSDOF 5
ENDMDL
MODEL 8
REMARK VINA RESULT:    -9.947      3.468      5.626
REMARK INTER + INTRA:         -13.336
REMARK INTER:                 -13.257
REMARK INTRA:                  -0.078
REMARK UNBOUND:                -0.481
REMARK SMILES O=C(C[NH2+]Cc1cc(F)cc(F)c1)Nc1ccc2nc3n(c(=O)c2c1)CCC3
REMARK SMILES IDX 3 1 4 2 5 5 6 6 7 7 13 8 8 9 11 10 10 11 9 12 12 13 2 14
REMARK SMILES IDX 14 15 1 16 15 18 16 19 25 20 17 21 24 22 18 23 22 24 19 25
REMARK SMILES IDX 21 26 20 27 26 28 28 29 27 30 23 31
REMARK H PARENT 4 3 4 4 14 17
ROOT
ATOM      1  C   UNL     1     -14.825 -43.629  25.202  1.00  0.00     0.362 C 
ENDROOT
BRANCH   1   2
ATOM      2  N   UNL     1     -14.368 -44.081  26.568  1.00  0.00    -0.335 N 
ATOM      3  H   UNL     1     -15.134 -44.057  27.250  1.00  0.00     0.347 HD
ATOM      4  H   UNL     1     -13.671 -43.383  26.879  1.00  0.00     0.347 HD
BRANCH   2   5
ATOM      5  C   UNL     1     -13.689 -45.406  26.599  1.00  0.00     0.297 C 
BRANCH   5   6
ATOM      6  C   UNL     1     -12.993 -45.619  27.912  1.00  0.00     0.012 A 
ATOM      7  C   UNL     1     -11.701 -46.163  27.952  1.00  0.00     0.049 A 
ATOM      8  C   UNL     1     -13.598 -45.236  29.119  1.00  0.00     0.049 A 
ATOM      9  C   UNL     1     -11.046 -46.328  29.174  1.00  0.00     0.126 A 
ATOM     10  C   UNL     1     -12.921 -45.411  30.327  1.00  0.00     0.126 A 
ATOM     11  C   UNL     1     -11.646 -45.955  30.367  1.00  0.00     0.078 A 
ATOM     12  F   UNL     1      -9.813 -46.848  29.188  1.00  0.00    -0.207 F 
ATOM     13  F   UNL     1     -13.518 -45.037  31.464  1.00  0.00    -0.207 F 
ENDBRANCH   5   6
ENDBRANCH   2   5
ENDBRANCH   1   2
BRANCH   1  14
ATOM     14  C   UNL     1     -16.155 -42.878  25.306  1.00  0.00     0.279 C 
ATOM     15  N   UNL     1     -16.804 -42.698  24.104  1.00  0.00    -0.321 N 
ATOM     16  O   UNL     1     -16.519 -42.509  26.422  1.00  0.00    -0.268 OA
ATOM     17  H   UNL     1     -16.386 -43.079  23.260  1.00  0.00     0.170 HD
BRANCH  15  18
ATOM     18  C   UNL     1     -18.037 -42.038  23.895  1.00  0.00     0.042 A 
ATOM     19  C   UNL     1     -19.069 -41.979  24.836  1.00  0.00     0.028 A 
ATOM     20  C   UNL     1     -18.217 -41.409  22.659  1.00  0.00     0.042 A 
ATOM     21  C   UNL     1     -20.263 -41.303  24.546  1.00  0.00     0.031 A 
ATOM     22  C   UNL     1     -19.414 -40.734  22.380  1.00  0.00     0.068 A 
ATOM     23  C   UNL     1     -20.451 -40.674  23.317  1.00  0.00     0.078 A 
ATOM     24  C   UNL     1     -19.610 -40.067  21.075  1.00  0.00     0.261 A 
ATOM     25  N   UNL     1     -21.669 -40.014  23.070  1.00  0.00    -0.234 NA
ATOM     26  N   UNL     1     -20.808 -39.412  20.950  1.00  0.00    -0.296 N 
ATOM     27  C   UNL     1     -21.782 -39.429  21.927  1.00  0.00     0.112 A 
ATOM     28  C   UNL     1     -21.260 -38.726  19.769  1.00  0.00     0.128 C 
ATOM     29  C   UNL     1     -22.990 -38.688  21.439  1.00  0.00     0.077 C 
ATOM     30  C   UNL     1     -22.424 -37.886  20.269  1.00  0.00     0.030 C 
ATOM     31  O   UNL     1     -18.747 -40.128  20.206  1.00  0.00    -0.269 OA
ENDBRANCH  15  18
ENDBRANCH   1  14
TORSDOF 5
ENDMDL
MODEL 9
REMARK VINA RESULT:    -9.813      2.666      3.605
REMARK INTER + INTRA:         -13.163
REMARK INTER:                 -12.777
REMARK INTRA:                  -0.386
REMARK UNBOUND:                -0.481
REMARK SMILES O=C(C[NH2+]Cc1cc(F)cc(F)c1)Nc1ccc2nc3n(c(=O)c2c1)CCC3
REMARK SMILES IDX 3 1 4 2 5 5 6 6 7 7 13 8 8 9 11 10 10 11 9 12 12 13 2 14
REMARK SMILES IDX 14 15 1 16 15 18 16 19 25 20 17 21 24 22 18 23 22 24 19 25
REMARK SMILES IDX 21 26 20 27 26 28 28 29 27 30 23 31
REMARK H PARENT 4 3 4 4 14 17
ROOT
ATOM      1  C   UNL     1     -14.279 -44.358  27.057  1.00  0.00     0.362 C 
ENDROOT
BRANCH   1   2
ATOM      2  N   UNL     1     -13.274 -43.832  28.052  1.00  0.00    -0.335 N 
ATOM      3  H   UNL     1     -13.704 -43.175  28.714  1.00  0.00     0.347 HD
ATOM      4  H   UNL     1     -12.586 -43.291  27.501  1.00  0.00     0.347 HD
BRANCH   2   5
ATOM      5  C   UNL     1     -12.507 -44.877  28.786  1.00  0.00     0.297 C 
BRANCH   5   6
ATOM      6  C   UNL     1     -11.175 -44.347  29.234  1.00  0.00     0.012 A 
ATOM      7  C   UNL     1     -10.721 -44.578  30.541  1.00  0.00     0.049 A 
ATOM      8  C   UNL     1     -10.339 -43.653  28.346  1.00  0.00     0.049 A 
ATOM      9  C   UNL     1      -9.468 -44.111  30.941  1.00  0.00     0.126 A 
ATOM     10  C   UNL     1      -9.091 -43.197  28.772  1.00  0.00     0.126 A 
ATOM     11  C   UNL     1      -8.645 -43.421  30.065  1.00  0.00     0.078 A 
ATOM     12  F   UNL     1      -9.056 -44.344  32.192  1.00  0.00    -0.207 F 
ATOM     13  F   UNL     1      -8.312 -42.539  27.906  1.00  0.00    -0.207 F 
ENDBRANCH   5   6
ENDBRANCH   2   5
ENDBRANCH   1   2
BRANCH   1  14
ATOM     14  C   UNL     1     -14.911 -43.202  26.275  1.00  0.00     0.279 C 
ATOM     15  N   UNL     1     -15.656 -43.592  25.184  1.00  0.00    -0.321 N 
ATOM     16  O   UNL     1     -14.703 -42.058  26.677  1.00  0.00    -0.268 OA
ATOM     17  H   UNL     1     -15.754 -44.584  24.987  1.00  0.00     0.170 HD
BRANCH  15  18
ATOM     18  C   UNL     1     -16.343 -42.750  24.280  1.00  0.00     0.042 A 
ATOM     19  C   UNL     1     -15.749 -42.121  23.182  1.00  0.00     0.028 A 
ATOM     20  C   UNL     1     -17.706 -42.544  24.517  1.00  0.00     0.042 A 
ATOM     21  C   UNL     1     -16.506 -41.298  22.334  1.00  0.00     0.031 A 
ATOM     22  C   UNL     1     -18.453 -41.721  23.662  1.00  0.00     0.068 A 
ATOM     23  C   UNL     1     -17.864 -41.088  22.563  1.00  0.00     0.078 A 
ATOM     24  C   UNL     1     -19.895 -41.500  23.908  1.00  0.00     0.261 A 
ATOM     25  N   UNL     1     -18.579 -40.249  21.689  1.00  0.00    -0.234 NA
ATOM     26  N   UNL     1     -20.512 -40.708  22.974  1.00  0.00    -0.296 N 
ATOM     27  C   UNL     1     -19.837 -40.106  21.932  1.00  0.00     0.112 A 
ATOM     28  C   UNL     1     -21.892 -40.305  23.010  1.00  0.00     0.128 C 
ATOM     29  C   UNL     1     -20.787 -39.249  21.153  1.00  0.00     0.077 C 
ATOM     30  C   UNL     1     -22.145 -39.781  21.605  1.00  0.00     0.030 C 
ATOM     31  O   UNL     1     -20.446 -42.000  24.882  1.00  0.00    -0.269 OA
ENDBRANCH  15  18
ENDBRANCH   1  14
TORSDOF 5
ENDMDL
