MODEL 1
REMARK VINA RESULT:   -11.013      0.000      0.000
REMARK INTER + INTRA:         -17.054
REMARK INTER:                 -16.163
REMARK INTRA:                  -0.891
REMARK UNBOUND:                -0.891
REMARK SMILES COc1ccc(/C=C/C(=O)Nc2cc[n+](Cc3ccc(F)cc3)cc2)cc1OC
REMARK SMILES IDX 9 1 10 2 11 3 8 5 7 6 6 7 3 8 4 9 27 10 5 11 26 12 2 13 1 14
REMARK SMILES IDX 28 15 29 16 12 17 13 18 25 19 14 20 24 21 15 22 16 23 17 24
REMARK SMILES IDX 18 25 23 26 19 27 22 28 20 29 21 30
REMARK H PARENT 11 4
ROOT
ATOM      1  C   UNL     1     -13.960 -43.829  26.299  1.00  0.00     0.248 C 
ATOM      2  O   UNL     1     -13.596 -42.777  26.808  1.00  0.00    -0.270 OA
ATOM      3  N   UNL     1     -13.774 -45.097  26.813  1.00  0.00    -0.322 N 
ATOM      4  H   UNL     1     -14.249 -45.846  26.322  1.00  0.00     0.170 HD
ENDROOT
BRANCH   1   5
ATOM      5  C   UNL     1     -14.760 -43.792  25.049  1.00  0.00     0.072 C 
BRANCH   5   6
ATOM      6  C   UNL     1     -15.345 -42.675  24.588  1.00  0.00     0.014 C 
BRANCH   6   7
ATOM      7  C   UNL     1     -16.793 -42.443  24.664  1.00  0.00    -0.022 A 
ATOM      8  C   UNL     1     -19.565 -41.902  24.882  1.00  0.00     0.160 A 
ATOM      9  C   UNL     1     -18.797 -42.199  26.015  1.00  0.00     0.051 A 
ATOM     10  C   UNL     1     -18.935 -41.892  23.627  1.00  0.00     0.161 A 
ATOM     11  C   UNL     1     -17.426 -42.464  25.907  1.00  0.00     0.012 A 
ATOM     12  C   UNL     1     -17.556 -42.138  23.532  1.00  0.00     0.058 A 
BRANCH   8  13
ATOM     13  O   UNL     1     -20.896 -41.585  24.931  1.00  0.00    -0.493 OA
ATOM     14  C   UNL     1     -21.409 -41.015  26.128  1.00  0.00     0.278 C 
ENDBRANCH   8  13
BRANCH  10  15
ATOM     15  O   UNL     1     -19.511 -41.606  22.415  1.00  0.00    -0.493 OA
ATOM     16  C   UNL     1     -18.991 -40.480  21.716  1.00  0.00     0.278 C 
ENDBRANCH  10  15
ENDBRANCH   6   7
ENDBRANCH   5   6
ENDBRANCH   1   5
BRANCH   3  17
ATOM     17  C   UNL     1     -13.072 -45.434  27.987  1.00  0.00     0.053 A 
ATOM     18  C   UNL     1     -13.558 -45.212  29.272  1.00  0.00     0.097 A 
ATOM     19  C   UNL     1     -11.817 -46.020  27.847  1.00  0.00     0.097 A 
ATOM     20  C   UNL     1     -12.798 -45.582  30.376  1.00  0.00     0.310 A 
ATOM     21  C   UNL     1     -11.089 -46.376  28.979  1.00  0.00     0.310 A 
ATOM     22  N   UNL     1     -11.583 -46.150  30.219  1.00  0.00    -0.201 N 
BRANCH  22  23
ATOM     23  C   UNL     1     -10.792 -46.546  31.412  1.00  0.00     0.393 C 
BRANCH  23  24
ATOM     24  C   UNL     1      -9.700 -45.545  31.698  1.00  0.00     0.017 A 
ATOM     25  C   UNL     1     -10.022 -44.271  32.201  1.00  0.00     0.013 A 
ATOM     26  C   UNL     1      -8.351 -45.863  31.461  1.00  0.00     0.013 A 
ATOM     27  C   UNL     1      -9.013 -43.345  32.475  1.00  0.00     0.040 A 
ATOM     28  C   UNL     1      -7.348 -44.932  31.737  1.00  0.00     0.040 A 
ATOM     29  C   UNL     1      -7.686 -43.684  32.243  1.00  0.00     0.123 A 
ATOM     30  F   UNL     1      -6.722 -42.794  32.508  1.00  0.00    -0.207 F 
ENDBRANCH  23  24
ENDBRANCH  22  23
ENDBRANCH   3  17
TORSDOF 8
ENDMDL
MODEL 2
REMARK VINA RESULT:   -10.946      0.781      1.688
REMARK INTER + INTRA:         -16.956
REMARK INTER:                 -16.044
REMARK INTRA:                  -0.913
REMARK UNBOUND:                -0.891
REMARK SMILES COc1ccc(/C=C/C(=O)Nc2cc[n+](Cc3ccc(F)cc3)cc2)cc1OC
REMARK SMILES IDX 9 1 10 2 11 3 8 5 7 6 6 7 3 8 4 9 27 10 5 11 26 12 2 13 1 14
REMARK SMILES IDX 28 15 29 16 12 17 13 18 25 19 14 20 24 21 15 22 16 23 17 24
REMARK SMILES IDX 18 25 23 26 19 27 22 28 20 29 21 30
REMARK H PARENT 11 4
ROOT
ATOM      1  C   UNL     1     -13.990 -43.820  26.349  1.00  0.00     0.248 C 
ATOM      2  O   UNL     1     -13.709 -42.770  26.911  1.00  0.00    -0.270 OA
ATOM      3  N   UNL     1     -13.724 -45.094  26.809  1.00  0.00    -0.322 N 
ATOM      4  H   UNL     1     -14.137 -45.852  26.276  1.00  0.00     0.170 HD
ENDROOT
BRANCH   1   5
ATOM      5  C   UNL     1     -14.770 -43.782  25.087  1.00  0.00     0.072 C 
BRANCH   5   6
ATOM      6  C   UNL     1     -15.131 -42.638  24.485  1.00  0.00     0.014 C 
BRANCH   6   7
ATOM      7  C   UNL     1     -16.527 -42.302  24.179  1.00  0.00    -0.022 A 
ATOM      8  C   UNL     1     -19.217 -41.731  23.495  1.00  0.00     0.160 A 
ATOM      9  C   UNL     1     -18.178 -41.507  22.583  1.00  0.00     0.051 A 
ATOM     10  C   UNL     1     -18.897 -42.233  24.767  1.00  0.00     0.161 A 
ATOM     11  C   UNL     1     -16.849 -41.792  22.920  1.00  0.00     0.012 A 
ATOM     12  C   UNL     1     -17.564 -42.535  25.088  1.00  0.00     0.058 A 
BRANCH   8  13
ATOM     13  O   UNL     1     -20.538 -41.520  23.206  1.00  0.00    -0.493 OA
ATOM     14  C   UNL     1     -21.033 -40.188  23.251  1.00  0.00     0.278 C 
ENDBRANCH   8  13
BRANCH  10  15
ATOM     15  O   UNL     1     -19.772 -42.534  25.782  1.00  0.00    -0.493 OA
ATOM     16  C   UNL     1     -19.711 -41.705  26.937  1.00  0.00     0.278 C 
ENDBRANCH  10  15
ENDBRANCH   6   7
ENDBRANCH   5   6
ENDBRANCH   1   5
BRANCH   3  17
ATOM     17  C   UNL     1     -13.019 -45.435  27.981  1.00  0.00     0.053 A 
ATOM     18  C   UNL     1     -13.524 -45.266  29.266  1.00  0.00     0.097 A 
ATOM     19  C   UNL     1     -11.741 -45.969  27.837  1.00  0.00     0.097 A 
ATOM     20  C   UNL     1     -12.760 -45.635  30.368  1.00  0.00     0.310 A 
ATOM     21  C   UNL     1     -11.010 -46.327  28.967  1.00  0.00     0.310 A 
ATOM     22  N   UNL     1     -11.523 -46.153  30.207  1.00  0.00    -0.201 N 
BRANCH  22  23
ATOM     23  C   UNL     1     -10.727 -46.550  31.396  1.00  0.00     0.393 C 
BRANCH  23  24
ATOM     24  C   UNL     1      -9.634 -45.549  31.679  1.00  0.00     0.017 A 
ATOM     25  C   UNL     1      -9.955 -44.268  32.164  1.00  0.00     0.013 A 
ATOM     26  C   UNL     1      -8.284 -45.875  31.458  1.00  0.00     0.013 A 
ATOM     27  C   UNL     1      -8.946 -43.342  32.434  1.00  0.00     0.040 A 
ATOM     28  C   UNL     1      -7.280 -44.944  31.730  1.00  0.00     0.040 A 
ATOM     29  C   UNL     1      -7.619 -43.688  32.218  1.00  0.00     0.123 A 
ATOM     30  F   UNL     1      -6.653 -42.799  32.480  1.00  0.00    -0.207 F 
ENDBRANCH  23  24
ENDBRANCH  22  23
ENDBRANCH   3  17
TORSDOF 8
ENDMDL
MODEL 3
REMARK VINA RESULT:   -10.516      4.437      9.417
REMARK INTER + INTRA:         -16.325
REMARK INTER:                 -16.542
REMARK INTRA:                   0.217
REMARK UNBOUND:                -0.891
REMARK SMILES COc1ccc(/C=C/C(=O)Nc2cc[n+](Cc3ccc(F)cc3)cc2)cc1OC
REMARK SMILES IDX 9 1 10 2 11 3 8 5 7 6 6 7 3 8 4 9 27 10 5 11 26 12 2 13 1 14
REMARK SMILES IDX 28 15 29 16 12 17 13 18 25 19 14 20 24 21 15 22 16 23 17 24
REMARK SMILES IDX 18 25 23 26 19 27 22 28 20 29 21 30
REMARK H PARENT 11 4
ROOT
ATOM      1  C   UNL     1     -10.516 -46.041  28.884  1.00  0.00     0.248 C 
ATOM      2  O   UNL     1     -10.449 -46.857  27.975  1.00  0.00    -0.270 OA
ATOM      3  N   UNL     1     -11.373 -44.961  28.957  1.00  0.00    -0.322 N 
ATOM      4  H   UNL     1     -11.379 -44.460  29.839  1.00  0.00     0.170 HD
ENDROOT
BRANCH   1   5
ATOM      5  C   UNL     1      -9.674 -46.229  30.093  1.00  0.00     0.072 C 
BRANCH   5   6
ATOM      6  C   UNL     1     -10.159 -46.140  31.342  1.00  0.00     0.014 C 
BRANCH   6   7
ATOM      7  C   UNL     1     -11.012 -45.033  31.791  1.00  0.00    -0.022 A 
ATOM      8  C   UNL     1     -12.713 -42.972  32.733  1.00  0.00     0.160 A 
ATOM      9  C   UNL     1     -13.240 -44.130  32.148  1.00  0.00     0.051 A 
ATOM     10  C   UNL     1     -11.318 -42.844  32.830  1.00  0.00     0.161 A 
ATOM     11  C   UNL     1     -12.399 -45.150  31.685  1.00  0.00     0.012 A 
ATOM     12  C   UNL     1     -10.484 -43.880  32.382  1.00  0.00     0.058 A 
BRANCH   8  13
ATOM     13  O   UNL     1     -13.484 -41.965  33.249  1.00  0.00    -0.493 OA
ATOM     14  C   UNL     1     -14.896 -42.068  33.122  1.00  0.00     0.278 C 
ENDBRANCH   8  13
BRANCH  10  15
ATOM     15  O   UNL     1     -10.620 -41.800  33.385  1.00  0.00    -0.493 OA
ATOM     16  C   UNL     1      -9.846 -42.099  34.542  1.00  0.00     0.278 C 
ENDBRANCH  10  15
ENDBRANCH   6   7
ENDBRANCH   5   6
ENDBRANCH   1   5
BRANCH   3  17
ATOM     17  C   UNL     1     -12.292 -44.549  27.971  1.00  0.00     0.053 A 
ATOM     18  C   UNL     1     -13.292 -45.366  27.453  1.00  0.00     0.097 A 
ATOM     19  C   UNL     1     -12.185 -43.247  27.488  1.00  0.00     0.097 A 
ATOM     20  C   UNL     1     -14.159 -44.874  26.485  1.00  0.00     0.310 A 
ATOM     21  C   UNL     1     -13.075 -42.794  26.518  1.00  0.00     0.310 A 
ATOM     22  N   UNL     1     -14.040 -43.608  26.030  1.00  0.00    -0.201 N 
BRANCH  22  23
ATOM     23  C   UNL     1     -14.983 -43.099  25.002  1.00  0.00     0.393 C 
BRANCH  23  24
ATOM     24  C   UNL     1     -16.314 -42.738  25.615  1.00  0.00     0.017 A 
ATOM     25  C   UNL     1     -17.421 -42.461  24.792  1.00  0.00     0.013 A 
ATOM     26  C   UNL     1     -16.468 -42.667  27.011  1.00  0.00     0.013 A 
ATOM     27  C   UNL     1     -18.656 -42.135  25.357  1.00  0.00     0.040 A 
ATOM     28  C   UNL     1     -17.706 -42.340  27.568  1.00  0.00     0.040 A 
ATOM     29  C   UNL     1     -18.788 -42.080  26.738  1.00  0.00     0.123 A 
ATOM     30  F   UNL     1     -19.974 -41.769  27.276  1.00  0.00    -0.207 F 
ENDBRANCH  23  24
ENDBRANCH  22  23
ENDBRANCH   3  17
TORSDOF 8
ENDMDL
MODEL 4
REMARK VINA RESULT:    -9.879      4.525     10.303
REMARK INTER + INTRA:         -15.391
REMARK INTER:                 -14.662
REMARK INTRA:                  -0.729
REMARK UNBOUND:                -0.891
REMARK SMILES COc1ccc(/C=C/C(=O)Nc2cc[n+](Cc3ccc(F)cc3)cc2)cc1OC
REMARK SMILES IDX 9 1 10 2 11 3 8 5 7 6 6 7 3 8 4 9 27 10 5 11 26 12 2 13 1 14
REMARK SMILES IDX 28 15 29 16 12 17 13 18 25 19 14 20 24 21 15 22 16 23 17 24
REMARK SMILES IDX 18 25 23 26 19 27 22 28 20 29 21 30
REMARK H PARENT 11 4
ROOT
ATOM      1  C   UNL     1     -12.546 -45.210  28.382  1.00  0.00     0.248 C 
ATOM      2  O   UNL     1     -11.579 -44.497  28.152  1.00  0.00    -0.270 OA
ATOM      3  N   UNL     1     -13.758 -45.189  27.720  1.00  0.00    -0.322 N 
ATOM      4  H   UNL     1     -14.405 -45.933  27.959  1.00  0.00     0.170 HD
ENDROOT
BRANCH   1   5
ATOM      5  C   UNL     1     -12.434 -46.278  29.407  1.00  0.00     0.072 C 
BRANCH   5   6
ATOM      6  C   UNL     1     -12.764 -46.093  30.695  1.00  0.00     0.014 C 
BRANCH   6   7
ATOM      7  C   UNL     1     -12.228 -44.992  31.506  1.00  0.00    -0.022 A 
ATOM      8  C   UNL     1     -11.132 -42.833  32.976  1.00  0.00     0.160 A 
ATOM      9  C   UNL     1     -10.305 -43.802  32.393  1.00  0.00     0.051 A 
ATOM     10  C   UNL     1     -12.523 -42.961  32.830  1.00  0.00     0.161 A 
ATOM     11  C   UNL     1     -10.847 -44.868  31.665  1.00  0.00     0.012 A 
ATOM     12  C   UNL     1     -13.055 -44.021  32.080  1.00  0.00     0.058 A 
BRANCH   8  13
ATOM     13  O   UNL     1     -10.659 -41.742  33.655  1.00  0.00    -0.493 OA
ATOM     14  C   UNL     1     -10.147 -41.937  34.967  1.00  0.00     0.278 C 
ENDBRANCH   8  13
BRANCH  10  15
ATOM     15  O   UNL     1     -13.487 -42.108  33.307  1.00  0.00    -0.493 OA
ATOM     16  C   UNL     1     -14.794 -42.261  32.764  1.00  0.00     0.278 C 
ENDBRANCH  10  15
ENDBRANCH   6   7
ENDBRANCH   5   6
ENDBRANCH   1   5
BRANCH   3  17
ATOM     17  C   UNL     1     -14.142 -44.301  26.696  1.00  0.00     0.053 A 
ATOM     18  C   UNL     1     -14.443 -42.959  26.907  1.00  0.00     0.097 A 
ATOM     19  C   UNL     1     -14.227 -44.802  25.400  1.00  0.00     0.097 A 
ATOM     20  C   UNL     1     -14.809 -42.152  25.836  1.00  0.00     0.310 A 
ATOM     21  C   UNL     1     -14.596 -43.959  24.355  1.00  0.00     0.310 A 
ATOM     22  N   UNL     1     -14.884 -42.657  24.585  1.00  0.00    -0.201 N 
BRANCH  22  23
ATOM     23  C   UNL     1     -15.267 -41.775  23.453  1.00  0.00     0.393 C 
BRANCH  23  24
ATOM     24  C   UNL     1     -16.764 -41.757  23.260  1.00  0.00     0.017 A 
ATOM     25  C   UNL     1     -17.334 -41.003  22.218  1.00  0.00     0.013 A 
ATOM     26  C   UNL     1     -17.610 -42.483  24.117  1.00  0.00     0.013 A 
ATOM     27  C   UNL     1     -18.718 -40.991  22.032  1.00  0.00     0.040 A 
ATOM     28  C   UNL     1     -18.992 -42.466  23.925  1.00  0.00     0.040 A 
ATOM     29  C   UNL     1     -19.534 -41.723  22.884  1.00  0.00     0.123 A 
ATOM     30  F   UNL     1     -20.860 -41.710  22.702  1.00  0.00    -0.207 F 
ENDBRANCH  23  24
ENDBRANCH  22  23
ENDBRANCH   3  17
TORSDOF 8
ENDMDL
MODEL 5
REMARK VINA RESULT:    -9.695      1.467      2.058
REMARK INTER + INTRA:         -15.121
REMARK INTER:                 -14.277
REMARK INTRA:                  -0.843
REMARK UNBOUND:                -0.891
REMARK SMILES COc1ccc(/C=C/C(=O)Nc2cc[n+](Cc3ccc(F)cc3)cc2)cc1OC
REMARK SMILES IDX 9 1 10 2 11 3 8 5 7 6 6 7 3 8 4 9 27 10 5 11 26 12 2 13 1 14
REMARK SMILES IDX 28 15 29 16 12 17 13 18 25 19 14 20 24 21 15 22 16 23 17 24
REMARK SMILES IDX 18 25 23 26 19 27 22 28 20 29 21 30
REMARK H PARENT 11 4
ROOT
ATOM      1  C   UNL     1     -14.525 -42.957  25.152  1.00  0.00     0.248 C 
ATOM      2  O   UNL     1     -13.649 -43.108  24.310  1.00  0.00    -0.270 OA
ATOM      3  N   UNL     1     -14.420 -43.224  26.502  1.00  0.00    -0.322 N 
ATOM      4  H   UNL     1     -15.203 -42.924  27.074  1.00  0.00     0.170 HD
ENDROOT
BRANCH   1   5
ATOM      5  C   UNL     1     -15.820 -42.352  24.752  1.00  0.00     0.072 C 
BRANCH   5   6
ATOM      6  C   UNL     1     -16.975 -43.036  24.744  1.00  0.00     0.014 C 
BRANCH   6   7
ATOM      7  C   UNL     1     -18.266 -42.430  25.093  1.00  0.00    -0.022 A 
ATOM      8  C   UNL     1     -20.697 -41.172  25.823  1.00  0.00     0.160 A 
ATOM      9  C   UNL     1     -19.776 -41.580  26.796  1.00  0.00     0.051 A 
ATOM     10  C   UNL     1     -20.398 -41.414  24.472  1.00  0.00     0.161 A 
ATOM     11  C   UNL     1     -18.573 -42.199  26.435  1.00  0.00     0.012 A 
ATOM     12  C   UNL     1     -19.181 -42.017  24.120  1.00  0.00     0.058 A 
BRANCH   8  13
ATOM     13  O   UNL     1     -21.864 -40.518  26.112  1.00  0.00    -0.493 OA
ATOM     14  C   UNL     1     -22.806 -41.163  26.960  1.00  0.00     0.278 C 
ENDBRANCH   8  13
BRANCH  10  15
ATOM     15  O   UNL     1     -21.161 -41.073  23.383  1.00  0.00    -0.493 OA
ATOM     16  C   UNL     1     -20.950 -39.772  22.845  1.00  0.00     0.278 C 
ENDBRANCH  10  15
ENDBRANCH   6   7
ENDBRANCH   5   6
ENDBRANCH   1   5
BRANCH   3  17
ATOM     17  C   UNL     1     -13.310 -43.783  27.165  1.00  0.00     0.053 A 
ATOM     18  C   UNL     1     -12.130 -43.090  27.422  1.00  0.00     0.097 A 
ATOM     19  C   UNL     1     -13.402 -45.108  27.583  1.00  0.00     0.097 A 
ATOM     20  C   UNL     1     -11.085 -43.720  28.088  1.00  0.00     0.310 A 
ATOM     21  C   UNL     1     -12.333 -45.700  28.248  1.00  0.00     0.310 A 
ATOM     22  N   UNL     1     -11.195 -45.006  28.486  1.00  0.00    -0.201 N 
BRANCH  22  23
ATOM     23  C   UNL     1     -10.071 -45.657  29.205  1.00  0.00     0.393 C 
BRANCH  23  24
ATOM     24  C   UNL     1      -9.645 -44.842  30.402  1.00  0.00     0.017 A 
ATOM     25  C   UNL     1      -8.350 -44.295  30.463  1.00  0.00     0.013 A 
ATOM     26  C   UNL     1     -10.528 -44.622  31.475  1.00  0.00     0.013 A 
ATOM     27  C   UNL     1      -7.956 -43.534  31.565  1.00  0.00     0.040 A 
ATOM     28  C   UNL     1     -10.127 -43.861  32.573  1.00  0.00     0.040 A 
ATOM     29  C   UNL     1      -8.848 -43.322  32.608  1.00  0.00     0.123 A 
ATOM     30  F   UNL     1      -8.467 -42.590  33.663  1.00  0.00    -0.207 F 
ENDBRANCH  23  24
ENDBRANCH  22  23
ENDBRANCH   3  17
TORSDOF 8
ENDMDL
MODEL 6
REMARK VINA RESULT:    -9.499      4.634     11.709
REMARK INTER + INTRA:         -14.833
REMARK INTER:                 -14.437
REMARK INTRA:                  -0.396
REMARK UNBOUND:                -0.891
REMARK SMILES COc1ccc(/C=C/C(=O)Nc2cc[n+](Cc3ccc(F)cc3)cc2)cc1OC
REMARK SMILES IDX 9 1 10 2 11 3 8 5 7 6 6 7 3 8 4 9 27 10 5 11 26 12 2 13 1 14
REMARK SMILES IDX 28 15 29 16 12 17 13 18 25 19 14 20 24 21 15 22 16 23 17 24
REMARK SMILES IDX 18 25 23 26 19 27 22 28 20 29 21 30
REMARK H PARENT 11 4
ROOT
ATOM      1  C   UNL     1     -15.196 -42.703  24.956  1.00  0.00     0.248 C 
ATOM      2  O   UNL     1     -14.982 -41.831  24.125  1.00  0.00    -0.270 OA
ATOM      3  N   UNL     1     -16.430 -43.088  25.443  1.00  0.00    -0.322 N 
ATOM      4  H   UNL     1     -16.434 -43.911  26.036  1.00  0.00     0.170 HD
ENDROOT
BRANCH   1   5
ATOM      5  C   UNL     1     -14.064 -43.517  25.463  1.00  0.00     0.072 C 
BRANCH   5   6
ATOM      6  C   UNL     1     -14.185 -44.384  26.481  1.00  0.00     0.014 C 
BRANCH   6   7
ATOM      7  C   UNL     1     -13.047 -44.819  27.301  1.00  0.00    -0.022 A 
ATOM      8  C   UNL     1     -10.799 -45.699  28.783  1.00  0.00     0.160 A 
ATOM      9  C   UNL     1     -11.570 -46.601  28.039  1.00  0.00     0.051 A 
ATOM     10  C   UNL     1     -11.173 -44.346  28.794  1.00  0.00     0.161 A 
ATOM     11  C   UNL     1     -12.680 -46.165  27.304  1.00  0.00     0.012 A 
ATOM     12  C   UNL     1     -12.274 -43.915  28.037  1.00  0.00     0.058 A 
BRANCH   8  13
ATOM     13  O   UNL     1      -9.676 -46.057  29.479  1.00  0.00    -0.493 OA
ATOM     14  C   UNL     1      -9.819 -46.421  30.846  1.00  0.00     0.278 C 
ENDBRANCH   8  13
BRANCH  10  15
ATOM     15  O   UNL     1     -10.536 -43.317  29.442  1.00  0.00    -0.493 OA
ATOM     16  C   UNL     1     -11.110 -42.891  30.673  1.00  0.00     0.278 C 
ENDBRANCH  10  15
ENDBRANCH   6   7
ENDBRANCH   5   6
ENDBRANCH   1   5
BRANCH   3  17
ATOM     17  C   UNL     1     -17.676 -42.509  25.129  1.00  0.00     0.053 A 
ATOM     18  C   UNL     1     -18.573 -42.038  26.082  1.00  0.00     0.097 A 
ATOM     19  C   UNL     1     -18.025 -42.410  23.785  1.00  0.00     0.097 A 
ATOM     20  C   UNL     1     -19.781 -41.476  25.681  1.00  0.00     0.310 A 
ATOM     21  C   UNL     1     -19.244 -41.840  23.427  1.00  0.00     0.310 A 
ATOM     22  N   UNL     1     -20.101 -41.388  24.372  1.00  0.00    -0.201 N 
BRANCH  22  23
ATOM     23  C   UNL     1     -21.391 -40.776  23.965  1.00  0.00     0.393 C 
BRANCH  23  24
ATOM     24  C   UNL     1     -21.339 -40.295  22.536  1.00  0.00     0.017 A 
ATOM     25  C   UNL     1     -22.043 -40.982  21.531  1.00  0.00     0.013 A 
ATOM     26  C   UNL     1     -20.583 -39.162  22.184  1.00  0.00     0.013 A 
ATOM     27  C   UNL     1     -22.003 -40.535  20.209  1.00  0.00     0.040 A 
ATOM     28  C   UNL     1     -20.547 -38.721  20.861  1.00  0.00     0.040 A 
ATOM     29  C   UNL     1     -21.258 -39.408  19.886  1.00  0.00     0.123 A 
ATOM     30  F   UNL     1     -21.223 -38.981  18.618  1.00  0.00    -0.207 F 
ENDBRANCH  23  24
ENDBRANCH  22  23
ENDBRANCH   3  17
TORSDOF 8
ENDMDL
MODEL 7
REMARK VINA RESULT:    -9.060      4.357     11.149
REMARK INTER + INTRA:         -14.189
REMARK INTER:                 -13.672
REMARK INTRA:                  -0.516
REMARK UNBOUND:                -0.891
REMARK SMILES COc1ccc(/C=C/C(=O)Nc2cc[n+](Cc3ccc(F)cc3)cc2)cc1OC
REMARK SMILES IDX 9 1 10 2 11 3 8 5 7 6 6 7 3 8 4 9 27 10 5 11 26 12 2 13 1 14
REMARK SMILES IDX 28 15 29 16 12 17 13 18 25 19 14 20 24 21 15 22 16 23 17 24
REMARK SMILES IDX 18 25 23 26 19 27 22 28 20 29 21 30
REMARK H PARENT 11 4
ROOT
ATOM      1  C   UNL     1     -15.193 -42.615  24.978  1.00  0.00     0.248 C 
ATOM      2  O   UNL     1     -15.024 -41.742  24.138  1.00  0.00    -0.270 OA
ATOM      3  N   UNL     1     -16.403 -43.033  25.496  1.00  0.00    -0.322 N 
ATOM      4  H   UNL     1     -16.369 -43.853  26.093  1.00  0.00     0.170 HD
ENDROOT
BRANCH   1   5
ATOM      5  C   UNL     1     -14.025 -43.393  25.463  1.00  0.00     0.072 C 
BRANCH   5   6
ATOM      6  C   UNL     1     -14.135 -44.412  26.331  1.00  0.00     0.014 C 
BRANCH   6   7
ATOM      7  C   UNL     1     -13.044 -44.822  27.223  1.00  0.00    -0.022 A 
ATOM      8  C   UNL     1     -10.882 -45.662  28.850  1.00  0.00     0.160 A 
ATOM      9  C   UNL     1     -11.623 -46.586  28.102  1.00  0.00     0.051 A 
ATOM     10  C   UNL     1     -11.242 -44.306  28.788  1.00  0.00     0.161 A 
ATOM     11  C   UNL     1     -12.690 -46.171  27.296  1.00  0.00     0.012 A 
ATOM     12  C   UNL     1     -12.299 -43.897  27.961  1.00  0.00     0.058 A 
BRANCH   8  13
ATOM     13  O   UNL     1      -9.798 -46.001  29.614  1.00  0.00    -0.493 OA
ATOM     14  C   UNL     1     -10.019 -46.365  30.971  1.00  0.00     0.278 C 
ENDBRANCH   8  13
BRANCH  10  15
ATOM     15  O   UNL     1     -10.628 -43.257  29.428  1.00  0.00    -0.493 OA
ATOM     16  C   UNL     1     -11.164 -42.885  30.693  1.00  0.00     0.278 C 
ENDBRANCH  10  15
ENDBRANCH   6   7
ENDBRANCH   5   6
ENDBRANCH   1   5
BRANCH   3  17
ATOM     17  C   UNL     1     -17.672 -42.493  25.208  1.00  0.00     0.053 A 
ATOM     18  C   UNL     1     -18.177 -42.343  23.920  1.00  0.00     0.097 A 
ATOM     19  C   UNL     1     -18.462 -42.085  26.280  1.00  0.00     0.097 A 
ATOM     20  C   UNL     1     -19.444 -41.804  23.729  1.00  0.00     0.310 A 
ATOM     21  C   UNL     1     -19.726 -41.552  26.044  1.00  0.00     0.310 A 
ATOM     22  N   UNL     1     -20.196 -41.415  24.782  1.00  0.00    -0.201 N 
BRANCH  22  23
ATOM     23  C   UNL     1     -21.551 -40.852  24.556  1.00  0.00     0.393 C 
BRANCH  23  24
ATOM     24  C   UNL     1     -22.455 -41.120  25.734  1.00  0.00     0.017 A 
ATOM     25  C   UNL     1     -22.784 -40.082  26.625  1.00  0.00     0.013 A 
ATOM     26  C   UNL     1     -22.977 -42.406  25.964  1.00  0.00     0.013 A 
ATOM     27  C   UNL     1     -23.626 -40.325  27.711  1.00  0.00     0.040 A 
ATOM     28  C   UNL     1     -23.818 -42.641  27.052  1.00  0.00     0.040 A 
ATOM     29  C   UNL     1     -24.138 -41.600  27.914  1.00  0.00     0.123 A 
ATOM     30  F   UNL     1     -24.947 -41.830  28.955  1.00  0.00    -0.207 F 
ENDBRANCH  23  24
ENDBRANCH  22  23
ENDBRANCH   3  17
TORSDOF 8
ENDMDL
MODEL 8
REMARK VINA RESULT:    -9.040      2.069      2.843
REMARK INTER + INTRA:         -14.159
REMARK INTER:                 -13.414
REMARK INTRA:                  -0.744
REMARK UNBOUND:                -0.891
REMARK SMILES COc1ccc(/C=C/C(=O)Nc2cc[n+](Cc3ccc(F)cc3)cc2)cc1OC
REMARK SMILES IDX 9 1 10 2 11 3 8 5 7 6 6 7 3 8 4 9 27 10 5 11 26 12 2 13 1 14
REMARK SMILES IDX 28 15 29 16 12 17 13 18 25 19 14 20 24 21 15 22 16 23 17 24
REMARK SMILES IDX 18 25 23 26 19 27 22 28 20 29 21 30
REMARK H PARENT 11 4
ROOT
ATOM      1  C   UNL     1     -15.325 -43.326  24.434  1.00  0.00     0.248 C 
ATOM      2  O   UNL     1     -14.550 -43.889  23.672  1.00  0.00    -0.270 OA
ATOM      3  N   UNL     1     -15.134 -43.104  25.783  1.00  0.00    -0.322 N 
ATOM      4  H   UNL     1     -15.824 -42.514  26.236  1.00  0.00     0.170 HD
ENDROOT
BRANCH   1   5
ATOM      5  C   UNL     1     -16.572 -42.730  23.892  1.00  0.00     0.072 C 
BRANCH   5   6
ATOM      6  C   UNL     1     -17.680 -42.559  24.629  1.00  0.00     0.014 C 
BRANCH   6   7
ATOM      7  C   UNL     1     -18.846 -41.803  24.155  1.00  0.00    -0.022 A 
ATOM      8  C   UNL     1     -21.080 -40.267  23.330  1.00  0.00     0.160 A 
ATOM      9  C   UNL     1     -21.026 -40.831  24.611  1.00  0.00     0.051 A 
ATOM     10  C   UNL     1     -20.006 -40.491  22.453  1.00  0.00     0.161 A 
ATOM     11  C   UNL     1     -19.921 -41.588  25.020  1.00  0.00     0.012 A 
ATOM     12  C   UNL     1     -18.894 -41.233  22.879  1.00  0.00     0.058 A 
BRANCH   8  13
ATOM     13  O   UNL     1     -22.108 -39.476  22.893  1.00  0.00    -0.493 OA
ATOM     14  C   UNL     1     -23.339 -40.101  22.553  1.00  0.00     0.278 C 
ENDBRANCH   8  13
BRANCH  10  15
ATOM     15  O   UNL     1     -19.869 -40.008  21.175  1.00  0.00    -0.493 OA
ATOM     16  C   UNL     1     -20.443 -40.793  20.136  1.00  0.00     0.278 C 
ENDBRANCH  10  15
ENDBRANCH   6   7
ENDBRANCH   5   6
ENDBRANCH   1   5
BRANCH   3  17
ATOM     17  C   UNL     1     -14.042 -43.538  26.561  1.00  0.00     0.053 A 
ATOM     18  C   UNL     1     -12.879 -42.797  26.745  1.00  0.00     0.097 A 
ATOM     19  C   UNL     1     -14.137 -44.784  27.176  1.00  0.00     0.097 A 
ATOM     20  C   UNL     1     -11.851 -43.301  27.534  1.00  0.00     0.310 A 
ATOM     21  C   UNL     1     -13.085 -45.251  27.959  1.00  0.00     0.310 A 
ATOM     22  N   UNL     1     -11.963 -44.512  28.123  1.00  0.00    -0.201 N 
BRANCH  22  23
ATOM     23  C   UNL     1     -10.858 -45.027  28.970  1.00  0.00     0.393 C 
BRANCH  23  24
ATOM     24  C   UNL     1     -10.857 -44.366  30.327  1.00  0.00     0.017 A 
ATOM     25  C   UNL     1     -12.072 -44.069  30.970  1.00  0.00     0.013 A 
ATOM     26  C   UNL     1      -9.649 -44.031  30.964  1.00  0.00     0.013 A 
ATOM     27  C   UNL     1     -12.075 -43.464  32.229  1.00  0.00     0.040 A 
ATOM     28  C   UNL     1      -9.660 -43.426  32.222  1.00  0.00     0.040 A 
ATOM     29  C   UNL     1     -10.870 -43.151  32.844  1.00  0.00     0.123 A 
ATOM     30  F   UNL     1     -10.876 -42.573  34.052  1.00  0.00    -0.207 F 
ENDBRANCH  23  24
ENDBRANCH  22  23
ENDBRANCH   3  17
TORSDOF 8
ENDMDL
MODEL 9
REMARK VINA RESULT:    -8.140      4.966     11.905
REMARK INTER + INTRA:         -12.837
REMARK INTER:                 -12.445
REMARK INTRA:                  -0.393
REMARK UNBOUND:                -0.891
REMARK SMILES COc1ccc(/C=C/C(=O)Nc2cc[n+](Cc3ccc(F)cc3)cc2)cc1OC
REMARK SMILES IDX 9 1 10 2 11 3 8 5 7 6 6 7 3 8 4 9 27 10 5 11 26 12 2 13 1 14
REMARK SMILES IDX 28 15 29 16 12 17 13 18 25 19 14 20 24 21 15 22 16 23 17 24
REMARK SMILES IDX 18 25 23 26 19 27 22 28 20 29 21 30
REMARK H PARENT 11 4
ROOT
ATOM      1  C   UNL     1     -14.836 -42.868  24.892  1.00  0.00     0.248 C 
ATOM      2  O   UNL     1     -14.468 -42.374  23.834  1.00  0.00    -0.270 OA
ATOM      3  N   UNL     1     -16.137 -42.956  25.348  1.00  0.00    -0.322 N 
ATOM      4  H   UNL     1     -16.274 -43.507  26.189  1.00  0.00     0.170 HD
ENDROOT
BRANCH   1   5
ATOM      5  C   UNL     1     -13.839 -43.526  25.772  1.00  0.00     0.072 C 
BRANCH   5   6
ATOM      6  C   UNL     1     -13.325 -42.935  26.863  1.00  0.00     0.014 C 
BRANCH   6   7
ATOM      7  C   UNL     1     -12.246 -43.531  27.660  1.00  0.00    -0.022 A 
ATOM      8  C   UNL     1     -10.152 -44.576  29.257  1.00  0.00     0.160 A 
ATOM      9  C   UNL     1      -9.945 -43.458  28.438  1.00  0.00     0.051 A 
ATOM     10  C   UNL     1     -11.419 -45.182  29.260  1.00  0.00     0.161 A 
ATOM     11  C   UNL     1     -10.981 -42.940  27.651  1.00  0.00     0.012 A 
ATOM     12  C   UNL     1     -12.456 -44.642  28.484  1.00  0.00     0.058 A 
BRANCH   8  13
ATOM     13  O   UNL     1      -9.194 -45.096  30.085  1.00  0.00    -0.493 OA
ATOM     14  C   UNL     1      -9.212 -44.718  31.456  1.00  0.00     0.278 C 
ENDBRANCH   8  13
BRANCH  10  15
ATOM     15  O   UNL     1     -11.816 -46.264  30.004  1.00  0.00    -0.493 OA
ATOM     16  C   UNL     1     -13.093 -46.170  30.626  1.00  0.00     0.278 C 
ENDBRANCH  10  15
ENDBRANCH   6   7
ENDBRANCH   5   6
ENDBRANCH   1   5
BRANCH   3  17
ATOM     17  C   UNL     1     -17.286 -42.439  24.717  1.00  0.00     0.053 A 
ATOM     18  C   UNL     1     -17.375 -42.190  23.351  1.00  0.00     0.097 A 
ATOM     19  C   UNL     1     -18.393 -42.159  25.515  1.00  0.00     0.097 A 
ATOM     20  C   UNL     1     -18.553 -41.682  22.813  1.00  0.00     0.310 A 
ATOM     21  C   UNL     1     -19.553 -41.653  24.935  1.00  0.00     0.310 A 
ATOM     22  N   UNL     1     -19.616 -41.419  23.603  1.00  0.00    -0.201 N 
BRANCH  22  23
ATOM     23  C   UNL     1     -20.867 -40.886  23.007  1.00  0.00     0.393 C 
BRANCH  23  24
ATOM     24  C   UNL     1     -21.359 -41.775  21.890  1.00  0.00     0.017 A 
ATOM     25  C   UNL     1     -21.829 -43.071  22.171  1.00  0.00     0.013 A 
ATOM     26  C   UNL     1     -21.351 -41.328  20.557  1.00  0.00     0.013 A 
ATOM     27  C   UNL     1     -22.292 -43.892  21.142  1.00  0.00     0.040 A 
ATOM     28  C   UNL     1     -21.815 -42.155  19.533  1.00  0.00     0.040 A 
ATOM     29  C   UNL     1     -22.283 -43.427  19.833  1.00  0.00     0.123 A 
ATOM     30  F   UNL     1     -22.730 -44.216  18.849  1.00  0.00    -0.207 F 
ENDBRANCH  23  24
ENDBRANCH  22  23
ENDBRANCH   3  17
TORSDOF 8
ENDMDL
