MODEL 1
REMARK VINA RESULT:   -10.145      0.000      0.000
REMARK INTER + INTRA:         -10.442
REMARK INTER:                 -10.442
REMARK INTRA:                   0.000
REMARK UNBOUND:                 0.000
REMARK SMILES CC1=C[C@@H]2Cc3nc4cc(Cl)ccc4c(N)c3[C@H](C1)C2
REMARK SMILES IDX 1 1 2 2 3 3 4 4 5 5 6 6 7 7 8 8 9 9 10 10 11 11 12 12 13 13
REMARK SMILES IDX 14 14 15 15 17 16 18 17 19 18 20 19 16 20
REMARK H PARENT 16 21 16 22
ROOT
ATOM      1  C   UNL     1     -11.576 -42.859  32.756  1.00  0.00     0.039 C 
ATOM      2  C   UNL     1     -10.866 -43.772  31.792  1.00  0.00    -0.076 C 
ATOM      3  C   UNL     1      -9.582 -43.559  31.518  1.00  0.00    -0.024 C 
ATOM      4  C   UNL     1      -8.591 -45.869  30.269  1.00  0.00     0.018 C 
ATOM      5  C   UNL     1      -8.917 -44.426  30.083  1.00  0.00     0.064 C 
ATOM      6  C   UNL     1     -10.313 -44.544  29.589  1.00  0.00     0.047 A 
ATOM      7  N   UNL     1     -10.728 -43.828  28.531  1.00  0.00    -0.252 NA
ATOM      8  C   UNL     1     -11.993 -43.904  28.046  1.00  0.00     0.074 A 
ATOM      9  C   UNL     1     -12.396 -43.150  26.949  1.00  0.00     0.049 A 
ATOM     10  C   UNL     1     -13.689 -43.231  26.458  1.00  0.00     0.043 A 
ATOM     11  Cl  UNL     1     -14.185 -42.275  25.074  1.00  0.00    -0.084 Cl
ATOM     12  C   UNL     1     -14.621 -44.077  27.057  1.00  0.00     0.021 A 
ATOM     13  C   UNL     1     -14.209 -44.820  28.144  1.00  0.00     0.014 A 
ATOM     14  C   UNL     1     -12.924 -44.727  28.618  1.00  0.00     0.024 A 
ATOM     15  C   UNL     1     -12.545 -45.492  29.717  1.00  0.00     0.046 A 
ATOM     16  C   UNL     1     -11.248 -45.384  30.177  1.00  0.00     0.001 A 
ATOM     17  C   UNL     1     -10.763 -46.171  31.353  1.00  0.00     0.028 C 
ATOM     18  C   UNL     1     -11.546 -44.907  31.131  1.00  0.00     0.039 C 
ATOM     19  C   UNL     1      -9.275 -46.502  31.472  1.00  0.00     0.017 C 
ENDROOT
BRANCH  15  20
ATOM     20  N   UNL     1     -13.467 -46.376  30.366  1.00  0.00    -0.398 N 
ATOM     21  H   UNL     1     -14.445 -46.048  30.509  1.00  0.00     0.156 HD
ATOM     22  H   UNL     1     -13.123 -47.318  30.672  1.00  0.00     0.156 HD
ENDBRANCH  15  20
TORSDOF 1
ENDMDL
MODEL 2
REMARK VINA RESULT:   -10.057      2.911      4.513
REMARK INTER + INTRA:         -10.351
REMARK INTER:                 -10.351
REMARK INTRA:                   0.000
REMARK UNBOUND:                 0.000
REMARK SMILES CC1=C[C@@H]2Cc3nc4cc(Cl)ccc4c(N)c3[C@H](C1)C2
REMARK SMILES IDX 1 1 2 2 3 3 4 4 5 5 6 6 7 7 8 8 9 9 10 10 11 11 12 12 13 13
REMARK SMILES IDX 14 14 15 15 17 16 18 17 19 18 20 19 16 20
REMARK H PARENT 16 21 16 22
ROOT
ATOM      1  C   UNL     1      -9.384 -46.527  31.419  1.00  0.00     0.039 C 
ATOM      2  C   UNL     1     -10.360 -45.858  30.488  1.00  0.00    -0.076 C 
ATOM      3  C   UNL     1      -9.908 -45.014  29.565  1.00  0.00    -0.024 C 
ATOM      4  C   UNL     1     -11.972 -44.607  27.707  1.00  0.00     0.018 C 
ATOM      5  C   UNL     1     -11.141 -43.967  28.766  1.00  0.00     0.064 C 
ATOM      6  C   UNL     1     -12.010 -44.201  29.947  1.00  0.00     0.047 A 
ATOM      7  N   UNL     1     -12.248 -43.217  30.829  1.00  0.00    -0.252 NA
ATOM      8  C   UNL     1     -13.036 -43.386  31.921  1.00  0.00     0.074 A 
ATOM      9  C   UNL     1     -13.265 -42.349  32.818  1.00  0.00     0.049 A 
ATOM     10  C   UNL     1     -14.070 -42.527  33.932  1.00  0.00     0.043 A 
ATOM     11  Cl  UNL     1     -14.352 -41.211  35.056  1.00  0.00    -0.084 Cl
ATOM     12  C   UNL     1     -14.672 -43.761  34.179  1.00  0.00     0.021 A 
ATOM     13  C   UNL     1     -14.437 -44.782  33.282  1.00  0.00     0.014 A 
ATOM     14  C   UNL     1     -13.637 -44.587  32.184  1.00  0.00     0.024 A 
ATOM     15  C   UNL     1     -13.423 -45.641  31.300  1.00  0.00     0.046 A 
ATOM     16  C   UNL     1     -12.615 -45.424  30.202  1.00  0.00     0.001 A 
ATOM     17  C   UNL     1     -12.335 -46.505  29.206  1.00  0.00     0.028 C 
ATOM     18  C   UNL     1     -11.817 -46.104  30.559  1.00  0.00     0.039 C 
ATOM     19  C   UNL     1     -11.979 -46.127  27.768  1.00  0.00     0.017 C 
ENDROOT
BRANCH  15  20
ATOM     20  N   UNL     1     -14.020 -46.926  31.511  1.00  0.00    -0.398 N 
ATOM     21  H   UNL     1     -14.916 -47.138  31.025  1.00  0.00     0.156 HD
ATOM     22  H   UNL     1     -13.533 -47.603  32.146  1.00  0.00     0.156 HD
ENDBRANCH  15  20
TORSDOF 1
ENDMDL
MODEL 3
REMARK VINA RESULT:    -9.981      2.957      5.421
REMARK INTER + INTRA:         -10.273
REMARK INTER:                 -10.273
REMARK INTRA:                   0.000
REMARK UNBOUND:                 0.000
REMARK SMILES CC1=C[C@@H]2Cc3nc4cc(Cl)ccc4c(N)c3[C@H](C1)C2
REMARK SMILES IDX 1 1 2 2 3 3 4 4 5 5 6 6 7 7 8 8 9 9 10 10 11 11 12 12 13 13
REMARK SMILES IDX 14 14 15 15 17 16 18 17 19 18 20 19 16 20
REMARK H PARENT 16 21 16 22
ROOT
ATOM      1  C   UNL     1     -10.046 -42.317  27.333  1.00  0.00     0.039 C 
ATOM      2  C   UNL     1     -10.780 -43.421  28.049  1.00  0.00    -0.076 C 
ATOM      3  C   UNL     1     -12.092 -43.552  27.874  1.00  0.00    -0.024 C 
ATOM      4  C   UNL     1     -12.822 -46.088  28.828  1.00  0.00     0.018 C 
ATOM      5  C   UNL     1     -12.952 -44.619  29.046  1.00  0.00     0.064 C 
ATOM      6  C   UNL     1     -11.816 -44.401  29.978  1.00  0.00     0.047 A 
ATOM      7  N   UNL     1     -11.969 -43.649  31.080  1.00  0.00    -0.252 NA
ATOM      8  C   UNL     1     -10.961 -43.422  31.959  1.00  0.00     0.074 A 
ATOM      9  C   UNL     1     -11.148 -42.638  33.092  1.00  0.00     0.049 A 
ATOM     10  C   UNL     1     -10.114 -42.411  33.986  1.00  0.00     0.043 A 
ATOM     11  Cl  UNL     1     -10.362 -41.420  35.412  1.00  0.00    -0.084 Cl
ATOM     12  C   UNL     1      -8.854 -42.967  33.767  1.00  0.00     0.021 A 
ATOM     13  C   UNL     1      -8.681 -43.743  32.640  1.00  0.00     0.014 A 
ATOM     14  C   UNL     1      -9.717 -43.958  31.765  1.00  0.00     0.024 A 
ATOM     15  C   UNL     1      -9.505 -44.747  30.637  1.00  0.00     0.046 A 
ATOM     16  C   UNL     1     -10.559 -44.951  29.770  1.00  0.00     0.001 A 
ATOM     17  C   UNL     1     -10.413 -45.784  28.537  1.00  0.00     0.028 C 
ATOM     18  C   UNL     1     -10.094 -44.374  28.948  1.00  0.00     0.039 C 
ATOM     19  C   UNL     1     -11.642 -46.476  27.948  1.00  0.00     0.017 C 
ENDROOT
BRANCH  15  20
ATOM     20  N   UNL     1      -8.228 -45.340  30.370  1.00  0.00    -0.398 N 
ATOM     21  H   UNL     1      -7.404 -44.711  30.277  1.00  0.00     0.156 HD
ATOM     22  H   UNL     1      -8.173 -46.383  30.278  1.00  0.00     0.156 HD
ENDBRANCH  15  20
TORSDOF 1
ENDMDL
MODEL 4
REMARK VINA RESULT:    -9.269      3.412      4.825
REMARK INTER + INTRA:          -9.540
REMARK INTER:                  -9.540
REMARK INTRA:                   0.000
REMARK UNBOUND:                 0.000
REMARK SMILES CC1=C[C@@H]2Cc3nc4cc(Cl)ccc4c(N)c3[C@H](C1)C2
REMARK SMILES IDX 1 1 2 2 3 3 4 4 5 5 6 6 7 7 8 8 9 9 10 10 11 11 12 12 13 13
REMARK SMILES IDX 14 14 15 15 17 16 18 17 19 18 20 19 16 20
REMARK H PARENT 16 21 16 22
ROOT
ATOM      1  C   UNL     1      -8.747 -42.520  28.918  1.00  0.00     0.039 C 
ATOM      2  C   UNL     1      -9.022 -43.738  29.760  1.00  0.00    -0.076 C 
ATOM      3  C   UNL     1      -9.397 -44.869  29.169  1.00  0.00    -0.024 C 
ATOM      4  C   UNL     1      -9.103 -46.940  31.039  1.00  0.00     0.018 C 
ATOM      5  C   UNL     1     -10.081 -46.145  30.244  1.00  0.00     0.064 C 
ATOM      6  C   UNL     1     -10.385 -45.068  31.220  1.00  0.00     0.047 A 
ATOM      7  N   UNL     1     -11.653 -44.685  31.444  1.00  0.00    -0.252 NA
ATOM      8  C   UNL     1     -11.977 -43.706  32.326  1.00  0.00     0.074 A 
ATOM      9  C   UNL     1     -13.299 -43.329  32.539  1.00  0.00     0.049 A 
ATOM     10  C   UNL     1     -13.624 -42.329  33.441  1.00  0.00     0.043 A 
ATOM     11  Cl  UNL     1     -15.295 -41.863  33.700  1.00  0.00    -0.084 Cl
ATOM     12  C   UNL     1     -12.626 -41.673  34.160  1.00  0.00     0.021 A 
ATOM     13  C   UNL     1     -11.319 -42.056  33.941  1.00  0.00     0.014 A 
ATOM     14  C   UNL     1     -11.015 -43.049  33.044  1.00  0.00     0.024 A 
ATOM     15  C   UNL     1      -9.684 -43.409  32.848  1.00  0.00     0.046 A 
ATOM     16  C   UNL     1      -9.399 -44.410  31.941  1.00  0.00     0.001 A 
ATOM     17  C   UNL     1      -7.996 -44.853  31.675  1.00  0.00     0.028 C 
ATOM     18  C   UNL     1      -8.890 -43.728  31.233  1.00  0.00     0.039 C 
ATOM     19  C   UNL     1      -7.740 -46.276  31.177  1.00  0.00     0.017 C 
ENDROOT
BRANCH  15  20
ATOM     20  N   UNL     1      -8.623 -42.764  33.564  1.00  0.00    -0.398 N 
ATOM     21  H   UNL     1      -8.168 -41.936  33.129  1.00  0.00     0.156 HD
ATOM     22  H   UNL     1      -8.347 -43.150  34.499  1.00  0.00     0.156 HD
ENDBRANCH  15  20
TORSDOF 1
ENDMDL
MODEL 5
REMARK VINA RESULT:    -8.911      6.447     10.447
REMARK INTER + INTRA:          -9.171
REMARK INTER:                  -9.171
REMARK INTRA:                   0.000
REMARK UNBOUND:                 0.000
REMARK SMILES CC1=C[C@@H]2Cc3nc4cc(Cl)ccc4c(N)c3[C@H](C1)C2
REMARK SMILES IDX 1 1 2 2 3 3 4 4 5 5 6 6 7 7 8 8 9 9 10 10 11 11 12 12 13 13
REMARK SMILES IDX 14 14 15 15 17 16 18 17 19 18 20 19 16 20
REMARK H PARENT 16 21 16 22
ROOT
ATOM      1  C   UNL     1     -21.829 -44.531  24.247  1.00  0.00     0.039 C 
ATOM      2  C   UNL     1     -21.223 -43.191  23.923  1.00  0.00    -0.076 C 
ATOM      3  C   UNL     1     -21.037 -42.850  22.652  1.00  0.00    -0.024 C 
ATOM      4  C   UNL     1     -20.561 -40.085  22.580  1.00  0.00     0.018 C 
ATOM      5  C   UNL     1     -19.963 -41.432  22.354  1.00  0.00     0.064 C 
ATOM      6  C   UNL     1     -19.376 -41.676  23.696  1.00  0.00     0.047 A 
ATOM      7  N   UNL     1     -18.129 -42.158  23.821  1.00  0.00    -0.252 NA
ATOM      8  C   UNL     1     -17.553 -42.396  25.026  1.00  0.00     0.074 A 
ATOM      9  C   UNL     1     -16.259 -42.895  25.127  1.00  0.00     0.049 A 
ATOM     10  C   UNL     1     -15.676 -43.137  26.360  1.00  0.00     0.043 A 
ATOM     11  Cl  UNL     1     -14.043 -43.766  26.473  1.00  0.00    -0.084 Cl
ATOM     12  C   UNL     1     -16.379 -42.883  27.537  1.00  0.00     0.021 A 
ATOM     13  C   UNL     1     -17.662 -42.388  27.424  1.00  0.00     0.014 A 
ATOM     14  C   UNL     1     -18.224 -42.154  26.194  1.00  0.00     0.024 A 
ATOM     15  C   UNL     1     -19.521 -41.655  26.120  1.00  0.00     0.046 A 
ATOM     16  C   UNL     1     -20.068 -41.427  24.873  1.00  0.00     0.001 A 
ATOM     17  C   UNL     1     -21.455 -40.891  24.709  1.00  0.00     0.028 C 
ATOM     18  C   UNL     1     -20.823 -42.229  24.974  1.00  0.00     0.039 C 
ATOM     19  C   UNL     1     -21.812 -40.106  23.447  1.00  0.00     0.017 C 
ENDROOT
BRANCH  15  20
ATOM     20  N   UNL     1     -20.284 -41.378  27.301  1.00  0.00    -0.398 N 
ATOM     21  H   UNL     1     -20.186 -42.023  28.113  1.00  0.00     0.156 HD
ATOM     22  H   UNL     1     -20.910 -40.538  27.305  1.00  0.00     0.156 HD
ENDBRANCH  15  20
TORSDOF 1
ENDMDL
MODEL 6
REMARK VINA RESULT:    -8.549      1.486      3.300
REMARK INTER + INTRA:          -8.799
REMARK INTER:                  -8.799
REMARK INTRA:                   0.000
REMARK UNBOUND:                 0.000
REMARK SMILES CC1=C[C@@H]2Cc3nc4cc(Cl)ccc4c(N)c3[C@H](C1)C2
REMARK SMILES IDX 1 1 2 2 3 3 4 4 5 5 6 6 7 7 8 8 9 9 10 10 11 11 12 12 13 13
REMARK SMILES IDX 14 14 15 15 17 16 18 17 19 18 20 19 16 20
REMARK H PARENT 16 21 16 22
ROOT
ATOM      1  C   UNL     1     -10.054 -46.984  28.053  1.00  0.00     0.039 C 
ATOM      2  C   UNL     1     -10.703 -46.019  29.010  1.00  0.00    -0.076 C 
ATOM      3  C   UNL     1     -11.287 -46.484  30.110  1.00  0.00    -0.024 C 
ATOM      4  C   UNL     1     -11.700 -44.307  31.833  1.00  0.00     0.018 C 
ATOM      5  C   UNL     1     -12.368 -45.337  30.987  1.00  0.00     0.064 C 
ATOM      6  C   UNL     1     -12.489 -44.581  29.715  1.00  0.00     0.047 A 
ATOM      7  N   UNL     1     -13.638 -44.590  29.019  1.00  0.00    -0.252 NA
ATOM      8  C   UNL     1     -13.794 -43.914  27.853  1.00  0.00     0.074 A 
ATOM      9  C   UNL     1     -14.995 -43.942  27.152  1.00  0.00     0.049 A 
ATOM     10  C   UNL     1     -15.148 -43.249  25.962  1.00  0.00     0.043 A 
ATOM     11  Cl  UNL     1     -16.668 -43.292  25.088  1.00  0.00    -0.084 Cl
ATOM     12  C   UNL     1     -14.093 -42.504  25.436  1.00  0.00     0.021 A 
ATOM     13  C   UNL     1     -12.907 -42.484  26.141  1.00  0.00     0.014 A 
ATOM     14  C   UNL     1     -12.773 -43.176  27.318  1.00  0.00     0.024 A 
ATOM     15  C   UNL     1     -11.560 -43.132  28.001  1.00  0.00     0.046 A 
ATOM     16  C   UNL     1     -11.446 -43.835  29.184  1.00  0.00     0.001 A 
ATOM     17  C   UNL     1     -10.178 -43.839  29.976  1.00  0.00     0.028 C 
ATOM     18  C   UNL     1     -10.717 -44.559  28.772  1.00  0.00     0.039 C 
ATOM     19  C   UNL     1     -10.236 -44.083  31.484  1.00  0.00     0.017 C 
ENDROOT
BRANCH  15  20
ATOM     20  N   UNL     1     -10.448 -42.380  27.501  1.00  0.00    -0.398 N 
ATOM     21  H   UNL     1      -9.526 -42.494  27.971  1.00  0.00     0.156 HD
ATOM     22  H   UNL     1     -10.604 -41.743  26.683  1.00  0.00     0.156 HD
ENDBRANCH  15  20
TORSDOF 1
ENDMDL
MODEL 7
REMARK VINA RESULT:    -8.424      7.607     11.662
REMARK INTER + INTRA:          -8.670
REMARK INTER:                  -8.670
REMARK INTRA:                   0.000
REMARK UNBOUND:                 0.000
REMARK SMILES CC1=C[C@@H]2Cc3nc4cc(Cl)ccc4c(N)c3[C@H](C1)C2
REMARK SMILES IDX 1 1 2 2 3 3 4 4 5 5 6 6 7 7 8 8 9 9 10 10 11 11 12 12 13 13
REMARK SMILES IDX 14 14 15 15 17 16 18 17 19 18 20 19 16 20
REMARK H PARENT 16 21 16 22
ROOT
ATOM      1  C   UNL     1     -21.764 -43.478  21.294  1.00  0.00     0.039 C 
ATOM      2  C   UNL     1     -21.163 -42.107  21.455  1.00  0.00    -0.076 C 
ATOM      3  C   UNL     1     -20.833 -41.408  20.372  1.00  0.00    -0.024 C 
ATOM      4  C   UNL     1     -20.433 -38.748  21.171  1.00  0.00     0.018 C 
ATOM      5  C   UNL     1     -19.772 -39.974  20.638  1.00  0.00     0.064 C 
ATOM      6  C   UNL     1     -19.347 -40.607  21.913  1.00  0.00     0.047 A 
ATOM      7  N   UNL     1     -18.111 -41.113  22.047  1.00  0.00    -0.252 NA
ATOM      8  C   UNL     1     -17.679 -41.699  23.192  1.00  0.00     0.074 A 
ATOM      9  C   UNL     1     -16.393 -42.216  23.303  1.00  0.00     0.049 A 
ATOM     10  C   UNL     1     -15.957 -42.814  24.475  1.00  0.00     0.043 A 
ATOM     11  Cl  UNL     1     -14.333 -43.461  24.602  1.00  0.00    -0.084 Cl
ATOM     12  C   UNL     1     -16.807 -42.911  25.577  1.00  0.00     0.021 A 
ATOM     13  C   UNL     1     -18.080 -42.395  25.454  1.00  0.00     0.014 A 
ATOM     14  C   UNL     1     -18.494 -41.806  24.286  1.00  0.00     0.024 A 
ATOM     15  C   UNL     1     -19.787 -41.296  24.199  1.00  0.00     0.046 A 
ATOM     16  C   UNL     1     -20.184 -40.708  23.015  1.00  0.00     0.001 A 
ATOM     17  C   UNL     1     -21.555 -40.137  22.843  1.00  0.00     0.028 C 
ATOM     18  C   UNL     1     -20.922 -41.499  22.781  1.00  0.00     0.039 C 
ATOM     19  C   UNL     1     -21.778 -39.013  21.830  1.00  0.00     0.017 C 
ENDROOT
BRANCH  15  20
ATOM     20  N   UNL     1     -20.695 -41.372  25.305  1.00  0.00    -0.398 N 
ATOM     21  H   UNL     1     -21.586 -40.837  25.247  1.00  0.00     0.156 HD
ATOM     22  H   UNL     1     -20.429 -41.963  26.129  1.00  0.00     0.156 HD
ENDBRANCH  15  20
TORSDOF 1
ENDMDL
MODEL 8
REMARK VINA RESULT:    -8.071      9.044     11.384
REMARK INTER + INTRA:          -8.307
REMARK INTER:                  -8.307
REMARK INTRA:                   0.000
REMARK UNBOUND:                 0.000
REMARK SMILES CC1=C[C@@H]2Cc3nc4cc(Cl)ccc4c(N)c3[C@H](C1)C2
REMARK SMILES IDX 1 1 2 2 3 3 4 4 5 5 6 6 7 7 8 8 9 9 10 10 11 11 12 12 13 13
REMARK SMILES IDX 14 14 15 15 17 16 18 17 19 18 20 19 16 20
REMARK H PARENT 16 21 16 22
ROOT
ATOM      1  C   UNL     1     -22.028 -44.511  23.842  1.00  0.00     0.039 C 
ATOM      2  C   UNL     1     -21.325 -43.389  24.558  1.00  0.00    -0.076 C 
ATOM      3  C   UNL     1     -21.896 -42.836  25.625  1.00  0.00    -0.024 C 
ATOM      4  C   UNL     1     -19.932 -41.338  26.955  1.00  0.00     0.018 C 
ATOM      5  C   UNL     1     -21.203 -41.267  26.180  1.00  0.00     0.064 C 
ATOM      6  C   UNL     1     -20.655 -41.099  24.810  1.00  0.00     0.047 A 
ATOM      7  N   UNL     1     -21.169 -40.181  23.975  1.00  0.00    -0.252 NA
ATOM      8  C   UNL     1     -20.700 -39.992  22.715  1.00  0.00     0.074 A 
ATOM      9  C   UNL     1     -21.251 -39.035  21.871  1.00  0.00     0.049 A 
ATOM     10  C   UNL     1     -20.768 -38.847  20.586  1.00  0.00     0.043 A 
ATOM     11  Cl  UNL     1     -21.472 -37.636  19.531  1.00  0.00    -0.084 Cl
ATOM     12  C   UNL     1     -19.711 -39.620  20.108  1.00  0.00     0.021 A 
ATOM     13  C   UNL     1     -19.172 -40.566  20.955  1.00  0.00     0.014 A 
ATOM     14  C   UNL     1     -19.663 -40.739  22.225  1.00  0.00     0.024 A 
ATOM     15  C   UNL     1     -19.095 -41.705  23.051  1.00  0.00     0.046 A 
ATOM     16  C   UNL     1     -19.603 -41.862  24.325  1.00  0.00     0.001 A 
ATOM     17  C   UNL     1     -19.048 -42.877  25.273  1.00  0.00     0.028 C 
ATOM     18  C   UNL     1     -20.011 -42.870  24.119  1.00  0.00     0.039 C 
ATOM     19  C   UNL     1     -19.178 -42.648  26.778  1.00  0.00     0.017 C 
ENDROOT
BRANCH  15  20
ATOM     20  N   UNL     1     -18.007 -42.523  22.604  1.00  0.00    -0.398 N 
ATOM     21  H   UNL     1     -17.156 -42.051  22.232  1.00  0.00     0.156 HD
ATOM     22  H   UNL     1     -18.107 -43.564  22.669  1.00  0.00     0.156 HD
ENDBRANCH  15  20
TORSDOF 1
ENDMDL
MODEL 9
REMARK VINA RESULT:    -7.257      8.672     12.494
REMARK INTER + INTRA:          -7.469
REMARK INTER:                  -7.469
REMARK INTRA:                   0.000
REMARK UNBOUND:                 0.000
REMARK SMILES CC1=C[C@@H]2Cc3nc4cc(Cl)ccc4c(N)c3[C@H](C1)C2
REMARK SMILES IDX 1 1 2 2 3 3 4 4 5 5 6 6 7 7 8 8 9 9 10 10 11 11 12 12 13 13
REMARK SMILES IDX 14 14 15 15 17 16 18 17 19 18 20 19 16 20
REMARK H PARENT 16 21 16 22
ROOT
ATOM      1  C   UNL     1     -22.596 -43.488  21.340  1.00  0.00     0.039 C 
ATOM      2  C   UNL     1     -21.825 -42.195  21.348  1.00  0.00    -0.076 C 
ATOM      3  C   UNL     1     -20.942 -41.956  20.383  1.00  0.00    -0.024 C 
ATOM      4  C   UNL     1     -20.324 -39.220  20.459  1.00  0.00     0.018 C 
ATOM      5  C   UNL     1     -19.792 -40.597  20.669  1.00  0.00     0.064 C 
ATOM      6  C   UNL     1     -20.068 -40.756  22.120  1.00  0.00     0.047 A 
ATOM      7  N   UNL     1     -19.135 -41.262  22.943  1.00  0.00    -0.252 NA
ATOM      8  C   UNL     1     -19.342 -41.425  24.274  1.00  0.00     0.074 A 
ATOM      9  C   UNL     1     -18.358 -41.952  25.103  1.00  0.00     0.049 A 
ATOM     10  C   UNL     1     -18.576 -42.116  26.462  1.00  0.00     0.043 A 
ATOM     11  Cl  UNL     1     -17.327 -42.782  27.497  1.00  0.00    -0.084 Cl
ATOM     12  C   UNL     1     -19.796 -41.754  27.031  1.00  0.00     0.021 A 
ATOM     13  C   UNL     1     -20.764 -41.231  26.199  1.00  0.00     0.014 A 
ATOM     14  C   UNL     1     -20.531 -41.076  24.855  1.00  0.00     0.024 A 
ATOM     15  C   UNL     1     -21.532 -40.546  24.046  1.00  0.00     0.046 A 
ATOM     16  C   UNL     1     -21.278 -40.397  22.697  1.00  0.00     0.001 A 
ATOM     17  C   UNL     1     -22.301 -39.836  21.761  1.00  0.00     0.028 C 
ATOM     18  C   UNL     1     -22.013 -41.168  22.396  1.00  0.00     0.039 C 
ATOM     19  C   UNL     1     -21.843 -39.139  20.479  1.00  0.00     0.017 C 
ENDROOT
BRANCH  15  20
ATOM     20  N   UNL     1     -22.802 -40.158  24.585  1.00  0.00    -0.398 N 
ATOM     21  H   UNL     1     -22.976 -40.319  25.599  1.00  0.00     0.156 HD
ATOM     22  H   UNL     1     -23.507 -39.728  23.940  1.00  0.00     0.156 HD
ENDBRANCH  15  20
TORSDOF 1
ENDMDL
