MODEL 1
REMARK VINA RESULT:    -9.109      0.000      0.000
REMARK INTER + INTRA:         -13.956
REMARK INTER:                 -12.571
REMARK INTRA:                  -1.385
REMARK UNBOUND:                -1.385
REMARK SMILES COc1ccc([C@H]2C=C(c3cc(F)cc(F)c3)NN2c2ccc(S(N)(=O)=O)cc2)c(OC)c1
REMARK SMILES IDX 20 1 21 2 22 3 23 4 28 5 29 6 19 7 18 8 9 9 8 10 7 11 10 13
REMARK SMILES IDX 11 14 17 15 12 16 15 17 14 18 13 19 16 20 6 21 5 22 30 23
REMARK SMILES IDX 4 24 33 25 3 26 31 27 32 28 2 29 1 30 24 31 26 32 27 33
REMARK SMILES IDX 25 34
REMARK H PARENT 18 12 25 35 25 36
ROOT
ATOM      1  C   UNL     1     -19.917 -40.994  23.469  1.00  0.00     0.058 A 
ATOM      2  C   UNL     1     -19.326 -40.920  22.193  1.00  0.00     0.029 A 
ATOM      3  C   UNL     1     -19.989 -40.343  21.104  1.00  0.00     0.024 A 
ATOM      4  C   UNL     1     -21.273 -39.833  21.280  1.00  0.00     0.082 A 
ATOM      5  C   UNL     1     -21.884 -39.875  22.531  1.00  0.00     0.024 A 
ATOM      6  C   UNL     1     -21.206 -40.455  23.611  1.00  0.00     0.029 A 
ENDROOT
BRANCH   1   7
ATOM      7  N   UNL     1     -19.230 -41.581  24.530  1.00  0.00    -0.276 N 
ATOM      8  N   UNL     1     -17.929 -42.058  24.483  1.00  0.00    -0.297 N 
ATOM      9  C   UNL     1     -17.509 -42.399  25.765  1.00  0.00     0.060 C 
ATOM     10  C   UNL     1     -18.516 -42.234  26.638  1.00  0.00     0.033 C 
ATOM     11  C   UNL     1     -19.749 -41.700  25.927  1.00  0.00     0.164 C 
ATOM     12  H   UNL     1     -17.256 -41.439  24.027  1.00  0.00     0.188 HD
BRANCH   9  13
ATOM     13  C   UNL     1     -16.140 -42.845  26.035  1.00  0.00     0.005 A 
ATOM     14  C   UNL     1     -15.834 -43.509  27.232  1.00  0.00     0.049 A 
ATOM     15  C   UNL     1     -15.108 -42.637  25.108  1.00  0.00     0.049 A 
ATOM     16  C   UNL     1     -14.535 -43.943  27.485  1.00  0.00     0.126 A 
ATOM     17  C   UNL     1     -13.815 -43.081  25.385  1.00  0.00     0.126 A 
ATOM     18  C   UNL     1     -13.516 -43.734  26.569  1.00  0.00     0.078 A 
ATOM     19  F   UNL     1     -14.266 -44.572  28.637  1.00  0.00    -0.207 F 
ATOM     20  F   UNL     1     -12.846 -42.873  24.483  1.00  0.00    -0.207 F 
ENDBRANCH   9  13
BRANCH  11  21
ATOM     21  C   UNL     1     -20.929 -42.653  26.057  1.00  0.00     0.023 A 
ATOM     22  C   UNL     1     -20.878 -43.939  25.488  1.00  0.00     0.014 A 
ATOM     23  C   UNL     1     -22.077 -42.281  26.781  1.00  0.00     0.128 A 
ATOM     24  C   UNL     1     -21.951 -44.820  25.617  1.00  0.00     0.047 A 
ATOM     25  C   UNL     1     -23.152 -43.176  26.904  1.00  0.00     0.093 A 
ATOM     26  C   UNL     1     -23.092 -44.445  26.321  1.00  0.00     0.122 A 
BRANCH  23  27
ATOM     27  O   UNL     1     -22.054 -41.022  27.329  1.00  0.00    -0.496 OA
ATOM     28  C   UNL     1     -23.030 -40.086  26.890  1.00  0.00     0.278 C 
ENDBRANCH  23  27
BRANCH  26  29
ATOM     29  O   UNL     1     -24.069 -45.401  26.369  1.00  0.00    -0.497 OA
ATOM     30  C   UNL     1     -23.939 -46.509  25.488  1.00  0.00     0.278 C 
ENDBRANCH  26  29
ENDBRANCH  11  21
ENDBRANCH   1   7
BRANCH   4  31
ATOM     31  S   UNL     1     -22.137 -39.110  19.913  1.00  0.00     0.238 S 
ATOM     32  O   UNL     1     -22.910 -37.989  20.399  1.00  0.00    -0.207 OA
ATOM     33  O   UNL     1     -22.716 -40.169  19.124  1.00  0.00    -0.207 OA
BRANCH  31  34
ATOM     34  N   UNL     1     -20.868 -38.437  19.034  1.00  0.00    -0.225 NA
ATOM     35  H   UNL     1     -21.088 -37.517  18.652  1.00  0.00     0.137 HD
ATOM     36  H   UNL     1     -20.590 -39.095  18.302  1.00  0.00     0.137 HD
ENDBRANCH  31  34
ENDBRANCH   4  31
TORSDOF 7
ENDMDL
MODEL 2
REMARK VINA RESULT:    -9.102      0.083      1.430
REMARK INTER + INTRA:         -13.947
REMARK INTER:                 -12.596
REMARK INTRA:                  -1.350
REMARK UNBOUND:                -1.385
REMARK SMILES COc1ccc([C@H]2C=C(c3cc(F)cc(F)c3)NN2c2ccc(S(N)(=O)=O)cc2)c(OC)c1
REMARK SMILES IDX 20 1 21 2 22 3 23 4 28 5 29 6 19 7 18 8 9 9 8 10 7 11 10 13
REMARK SMILES IDX 11 14 17 15 12 16 15 17 14 18 13 19 16 20 6 21 5 22 30 23
REMARK SMILES IDX 4 24 33 25 3 26 31 27 32 28 2 29 1 30 24 31 26 32 27 33
REMARK SMILES IDX 25 34
REMARK H PARENT 18 12 25 35 25 36
ROOT
ATOM      1  C   UNL     1     -19.906 -40.983  23.504  1.00  0.00     0.058 A 
ATOM      2  C   UNL     1     -19.272 -40.811  22.259  1.00  0.00     0.029 A 
ATOM      3  C   UNL     1     -19.926 -40.223  21.171  1.00  0.00     0.024 A 
ATOM      4  C   UNL     1     -21.244 -39.799  21.316  1.00  0.00     0.082 A 
ATOM      5  C   UNL     1     -21.900 -39.939  22.538  1.00  0.00     0.024 A 
ATOM      6  C   UNL     1     -21.231 -40.530  23.617  1.00  0.00     0.029 A 
ENDROOT
BRANCH   1   7
ATOM      7  N   UNL     1     -19.227 -41.580  24.564  1.00  0.00    -0.276 N 
ATOM      8  N   UNL     1     -17.928 -42.065  24.519  1.00  0.00    -0.297 N 
ATOM      9  C   UNL     1     -17.514 -42.415  25.800  1.00  0.00     0.060 C 
ATOM     10  C   UNL     1     -18.523 -42.248  26.671  1.00  0.00     0.033 C 
ATOM     11  C   UNL     1     -19.751 -41.703  25.959  1.00  0.00     0.164 C 
ATOM     12  H   UNL     1     -17.250 -41.449  24.068  1.00  0.00     0.188 HD
BRANCH   9  13
ATOM     13  C   UNL     1     -16.149 -42.872  26.073  1.00  0.00     0.005 A 
ATOM     14  C   UNL     1     -15.126 -42.645  25.140  1.00  0.00     0.049 A 
ATOM     15  C   UNL     1     -15.824 -43.527  27.269  1.00  0.00     0.049 A 
ATOM     16  C   UNL     1     -13.826 -43.069  25.403  1.00  0.00     0.126 A 
ATOM     17  C   UNL     1     -14.515 -43.943  27.509  1.00  0.00     0.126 A 
ATOM     18  C   UNL     1     -13.508 -43.720  26.585  1.00  0.00     0.078 A 
ATOM     19  F   UNL     1     -12.867 -42.845  24.496  1.00  0.00    -0.207 F 
ATOM     20  F   UNL     1     -14.228 -44.566  28.660  1.00  0.00    -0.207 F 
ENDBRANCH   9  13
BRANCH  11  21
ATOM     21  C   UNL     1     -20.937 -42.648  26.080  1.00  0.00     0.023 A 
ATOM     22  C   UNL     1     -20.886 -43.939  25.524  1.00  0.00     0.014 A 
ATOM     23  C   UNL     1     -22.094 -42.263  26.786  1.00  0.00     0.128 A 
ATOM     24  C   UNL     1     -21.965 -44.813  25.646  1.00  0.00     0.047 A 
ATOM     25  C   UNL     1     -23.175 -43.152  26.901  1.00  0.00     0.093 A 
ATOM     26  C   UNL     1     -23.114 -44.426  26.331  1.00  0.00     0.122 A 
BRANCH  23  27
ATOM     27  O   UNL     1     -22.071 -41.000  27.323  1.00  0.00    -0.496 OA
ATOM     28  C   UNL     1     -23.055 -40.073  26.885  1.00  0.00     0.278 C 
ENDBRANCH  23  27
BRANCH  26  29
ATOM     29  O   UNL     1     -24.097 -45.377  26.373  1.00  0.00    -0.497 OA
ATOM     30  C   UNL     1     -24.122 -46.333  25.322  1.00  0.00     0.278 C 
ENDBRANCH  26  29
ENDBRANCH  11  21
ENDBRANCH   1   7
BRANCH   4  31
ATOM     31  S   UNL     1     -22.097 -39.062  19.950  1.00  0.00     0.238 S 
ATOM     32  O   UNL     1     -22.785 -37.880  20.420  1.00  0.00    -0.207 OA
ATOM     33  O   UNL     1     -22.764 -40.105  19.209  1.00  0.00    -0.207 OA
BRANCH  31  34
ATOM     34  N   UNL     1     -20.813 -38.498  19.019  1.00  0.00    -0.225 NA
ATOM     35  H   UNL     1     -20.535 -37.545  19.254  1.00  0.00     0.137 HD
ATOM     36  H   UNL     1     -21.058 -38.589  18.031  1.00  0.00     0.137 HD
ENDBRANCH  31  34
ENDBRANCH   4  31
TORSDOF 7
ENDMDL
MODEL 3
REMARK VINA RESULT:    -8.730      3.046      5.728
REMARK INTER + INTRA:         -13.432
REMARK INTER:                 -12.245
REMARK INTRA:                  -1.187
REMARK UNBOUND:                -1.385
REMARK SMILES COc1ccc([C@H]2C=C(c3cc(F)cc(F)c3)NN2c2ccc(S(N)(=O)=O)cc2)c(OC)c1
REMARK SMILES IDX 20 1 21 2 22 3 23 4 28 5 29 6 19 7 18 8 9 9 8 10 7 11 10 13
REMARK SMILES IDX 11 14 17 15 12 16 15 17 14 18 13 19 16 20 6 21 5 22 30 23
REMARK SMILES IDX 4 24 33 25 3 26 31 27 32 28 2 29 1 30 24 31 26 32 27 33
REMARK SMILES IDX 25 34
REMARK H PARENT 18 12 25 35 25 36
ROOT
ATOM      1  C   UNL     1     -21.969 -40.593  25.529  1.00  0.00     0.058 A 
ATOM      2  C   UNL     1     -22.119 -40.515  26.926  1.00  0.00     0.029 A 
ATOM      3  C   UNL     1     -23.241 -39.926  27.518  1.00  0.00     0.024 A 
ATOM      4  C   UNL     1     -24.239 -39.393  26.706  1.00  0.00     0.082 A 
ATOM      5  C   UNL     1     -24.134 -39.466  25.318  1.00  0.00     0.024 A 
ATOM      6  C   UNL     1     -23.004 -40.059  24.742  1.00  0.00     0.029 A 
ENDROOT
BRANCH   1   7
ATOM      7  N   UNL     1     -20.834 -41.181  24.973  1.00  0.00    -0.276 N 
ATOM      8  N   UNL     1     -19.614 -41.342  25.613  1.00  0.00    -0.297 N 
ATOM      9  C   UNL     1     -18.777 -42.132  24.832  1.00  0.00     0.060 C 
ATOM     10  C   UNL     1     -19.379 -42.430  23.669  1.00  0.00     0.033 C 
ATOM     11  C   UNL     1     -20.775 -41.830  23.628  1.00  0.00     0.164 C 
ATOM     12  H   UNL     1     -19.669 -41.696  26.569  1.00  0.00     0.188 HD
BRANCH   9  13
ATOM     13  C   UNL     1     -17.452 -42.548  25.299  1.00  0.00     0.005 A 
ATOM     14  C   UNL     1     -17.188 -42.663  26.672  1.00  0.00     0.049 A 
ATOM     15  C   UNL     1     -16.424 -42.858  24.397  1.00  0.00     0.049 A 
ATOM     16  C   UNL     1     -15.932 -43.069  27.117  1.00  0.00     0.126 A 
ATOM     17  C   UNL     1     -15.176 -43.263  24.867  1.00  0.00     0.126 A 
ATOM     18  C   UNL     1     -14.917 -43.372  26.223  1.00  0.00     0.078 A 
ATOM     19  F   UNL     1     -15.702 -43.167  28.433  1.00  0.00    -0.207 F 
ATOM     20  F   UNL     1     -14.209 -43.555  23.986  1.00  0.00    -0.207 F 
ENDBRANCH   9  13
BRANCH  11  21
ATOM     21  C   UNL     1     -20.932 -40.851  22.474  1.00  0.00     0.023 A 
ATOM     22  C   UNL     1     -20.152 -39.682  22.414  1.00  0.00     0.014 A 
ATOM     23  C   UNL     1     -21.832 -41.115  21.424  1.00  0.00     0.128 A 
ATOM     24  C   UNL     1     -20.282 -38.789  21.351  1.00  0.00     0.047 A 
ATOM     25  C   UNL     1     -21.955 -40.208  20.359  1.00  0.00     0.093 A 
ATOM     26  C   UNL     1     -21.184 -39.044  20.321  1.00  0.00     0.122 A 
BRANCH  23  27
ATOM     27  O   UNL     1     -22.546 -42.283  21.531  1.00  0.00    -0.496 OA
ATOM     28  C   UNL     1     -22.614 -43.128  20.390  1.00  0.00     0.278 C 
ENDBRANCH  23  27
BRANCH  26  29
ATOM     29  O   UNL     1     -21.214 -38.088  19.344  1.00  0.00    -0.497 OA
ATOM     30  C   UNL     1     -22.202 -38.223  18.330  1.00  0.00     0.278 C 
ENDBRANCH  26  29
ENDBRANCH  11  21
ENDBRANCH   1   7
BRANCH   4  31
ATOM     31  S   UNL     1     -25.664 -38.632  27.431  1.00  0.00     0.238 S 
ATOM     32  O   UNL     1     -25.393 -37.223  27.610  1.00  0.00    -0.207 OA
ATOM     33  O   UNL     1     -26.138 -39.473  28.503  1.00  0.00    -0.207 OA
BRANCH  31  34
ATOM     34  N   UNL     1     -26.773 -38.723  26.167  1.00  0.00    -0.225 NA
ATOM     35  H   UNL     1     -27.563 -38.088  26.280  1.00  0.00     0.137 HD
ATOM     36  H   UNL     1     -27.077 -39.693  26.065  1.00  0.00     0.137 HD
ENDBRANCH  31  34
ENDBRANCH   4  31
TORSDOF 7
ENDMDL
MODEL 4
REMARK VINA RESULT:    -8.571      4.527      7.717
REMARK INTER + INTRA:         -13.213
REMARK INTER:                 -11.822
REMARK INTRA:                  -1.391
REMARK UNBOUND:                -1.385
REMARK SMILES COc1ccc([C@H]2C=C(c3cc(F)cc(F)c3)NN2c2ccc(S(N)(=O)=O)cc2)c(OC)c1
REMARK SMILES IDX 20 1 21 2 22 3 23 4 28 5 29 6 19 7 18 8 9 9 8 10 7 11 10 13
REMARK SMILES IDX 11 14 17 15 12 16 15 17 14 18 13 19 16 20 6 21 5 22 30 23
REMARK SMILES IDX 4 24 33 25 3 26 31 27 32 28 2 29 1 30 24 31 26 32 27 33
REMARK SMILES IDX 25 34
REMARK H PARENT 18 12 25 35 25 36
ROOT
ATOM      1  C   UNL     1     -18.711 -42.136  24.340  1.00  0.00     0.058 A 
ATOM      2  C   UNL     1     -18.594 -42.124  25.742  1.00  0.00     0.029 A 
ATOM      3  C   UNL     1     -17.403 -42.474  26.388  1.00  0.00     0.024 A 
ATOM      4  C   UNL     1     -16.300 -42.852  25.626  1.00  0.00     0.082 A 
ATOM      5  C   UNL     1     -16.373 -42.861  24.234  1.00  0.00     0.024 A 
ATOM      6  C   UNL     1     -17.573 -42.508  23.604  1.00  0.00     0.029 A 
ENDROOT
BRANCH   1   7
ATOM      7  N   UNL     1     -19.915 -41.789  23.730  1.00  0.00    -0.276 N 
ATOM      8  N   UNL     1     -20.156 -40.615  23.031  1.00  0.00    -0.297 N 
ATOM      9  C   UNL     1     -21.394 -40.690  22.402  1.00  0.00     0.060 C 
ATOM     10  C   UNL     1     -22.006 -41.841  22.728  1.00  0.00     0.033 C 
ATOM     11  C   UNL     1     -21.117 -42.672  23.640  1.00  0.00     0.164 C 
ATOM     12  H   UNL     1     -19.424 -40.345  22.372  1.00  0.00     0.188 HD
BRANCH   9  13
ATOM     13  C   UNL     1     -21.874 -39.630  21.513  1.00  0.00     0.005 A 
ATOM     14  C   UNL     1     -21.004 -39.031  20.589  1.00  0.00     0.049 A 
ATOM     15  C   UNL     1     -23.208 -39.197  21.546  1.00  0.00     0.049 A 
ATOM     16  C   UNL     1     -21.462 -38.030  19.736  1.00  0.00     0.126 A 
ATOM     17  C   UNL     1     -23.642 -38.193  20.682  1.00  0.00     0.126 A 
ATOM     18  C   UNL     1     -22.780 -37.602  19.773  1.00  0.00     0.078 A 
ATOM     19  F   UNL     1     -20.613 -37.470  18.865  1.00  0.00    -0.207 F 
ATOM     20  F   UNL     1     -24.922 -37.798  20.730  1.00  0.00    -0.207 F 
ENDBRANCH   9  13
BRANCH  11  21
ATOM     21  C   UNL     1     -21.781 -42.933  24.984  1.00  0.00     0.023 A 
ATOM     22  C   UNL     1     -22.375 -41.883  25.707  1.00  0.00     0.014 A 
ATOM     23  C   UNL     1     -21.847 -44.237  25.512  1.00  0.00     0.128 A 
ATOM     24  C   UNL     1     -22.996 -42.121  26.932  1.00  0.00     0.047 A 
ATOM     25  C   UNL     1     -22.475 -44.465  26.747  1.00  0.00     0.093 A 
ATOM     26  C   UNL     1     -23.048 -43.409  27.460  1.00  0.00     0.122 A 
BRANCH  23  27
ATOM     27  O   UNL     1     -21.269 -45.219  24.746  1.00  0.00    -0.496 OA
ATOM     28  C   UNL     1     -21.976 -46.443  24.588  1.00  0.00     0.278 C 
ENDBRANCH  23  27
BRANCH  26  29
ATOM     29  O   UNL     1     -23.683 -43.502  28.668  1.00  0.00    -0.497 OA
ATOM     30  C   UNL     1     -23.754 -44.788  29.269  1.00  0.00     0.278 C 
ENDBRANCH  26  29
ENDBRANCH  11  21
ENDBRANCH   1   7
BRANCH   4  31
ATOM     31  S   UNL     1     -14.785 -43.310  26.421  1.00  0.00     0.238 S 
ATOM     32  O   UNL     1     -13.924 -42.150  26.474  1.00  0.00    -0.207 OA
ATOM     33  O   UNL     1     -14.350 -44.577  25.883  1.00  0.00    -0.207 OA
BRANCH  31  34
ATOM     34  N   UNL     1     -15.301 -43.564  28.003  1.00  0.00    -0.225 NA
ATOM     35  H   UNL     1     -14.648 -44.123  28.553  1.00  0.00     0.137 HD
ATOM     36  H   UNL     1     -16.233 -43.981  27.983  1.00  0.00     0.137 HD
ENDBRANCH  31  34
ENDBRANCH   4  31
TORSDOF 7
ENDMDL
MODEL 5
REMARK VINA RESULT:    -8.539      4.495      7.706
REMARK INTER + INTRA:         -13.169
REMARK INTER:                 -11.940
REMARK INTRA:                  -1.229
REMARK UNBOUND:                -1.385
REMARK SMILES COc1ccc([C@H]2C=C(c3cc(F)cc(F)c3)NN2c2ccc(S(N)(=O)=O)cc2)c(OC)c1
REMARK SMILES IDX 20 1 21 2 22 3 23 4 28 5 29 6 19 7 18 8 9 9 8 10 7 11 10 13
REMARK SMILES IDX 11 14 17 15 12 16 15 17 14 18 13 19 16 20 6 21 5 22 30 23
REMARK SMILES IDX 4 24 33 25 3 26 31 27 32 28 2 29 1 30 24 31 26 32 27 33
REMARK SMILES IDX 25 34
REMARK H PARENT 18 12 25 35 25 36
ROOT
ATOM      1  C   UNL     1     -18.881 -42.171  24.160  1.00  0.00     0.058 A 
ATOM      2  C   UNL     1     -17.712 -42.568  23.483  1.00  0.00     0.029 A 
ATOM      3  C   UNL     1     -16.528 -42.866  24.166  1.00  0.00     0.024 A 
ATOM      4  C   UNL     1     -16.497 -42.762  25.554  1.00  0.00     0.082 A 
ATOM      5  C   UNL     1     -17.639 -42.388  26.260  1.00  0.00     0.024 A 
ATOM      6  C   UNL     1     -18.816 -42.093  25.561  1.00  0.00     0.029 A 
ENDROOT
BRANCH   1   7
ATOM      7  N   UNL     1     -20.042 -41.875  23.447  1.00  0.00    -0.276 N 
ATOM      8  N   UNL     1     -20.132 -40.984  22.388  1.00  0.00    -0.297 N 
ATOM      9  C   UNL     1     -21.389 -41.081  21.800  1.00  0.00     0.060 C 
ATOM     10  C   UNL     1     -22.150 -41.951  22.485  1.00  0.00     0.033 C 
ATOM     11  C   UNL     1     -21.362 -42.548  23.639  1.00  0.00     0.164 C 
ATOM     12  H   UNL     1     -19.391 -41.062  21.690  1.00  0.00     0.188 HD
BRANCH   9  13
ATOM     13  C   UNL     1     -21.739 -40.323  20.597  1.00  0.00     0.005 A 
ATOM     14  C   UNL     1     -22.633 -40.858  19.657  1.00  0.00     0.049 A 
ATOM     15  C   UNL     1     -21.211 -39.046  20.359  1.00  0.00     0.049 A 
ATOM     16  C   UNL     1     -22.975 -40.133  18.518  1.00  0.00     0.126 A 
ATOM     17  C   UNL     1     -21.568 -38.341  19.211  1.00  0.00     0.126 A 
ATOM     18  C   UNL     1     -22.448 -38.873  18.283  1.00  0.00     0.078 A 
ATOM     19  F   UNL     1     -23.827 -40.666  17.632  1.00  0.00    -0.207 F 
ATOM     20  F   UNL     1     -21.051 -37.121  19.006  1.00  0.00    -0.207 F 
ENDBRANCH   9  13
BRANCH  11  21
ATOM     21  C   UNL     1     -22.011 -42.241  24.981  1.00  0.00     0.023 A 
ATOM     22  C   UNL     1     -22.182 -40.911  25.407  1.00  0.00     0.014 A 
ATOM     23  C   UNL     1     -22.487 -43.279  25.804  1.00  0.00     0.128 A 
ATOM     24  C   UNL     1     -22.789 -40.625  26.629  1.00  0.00     0.047 A 
ATOM     25  C   UNL     1     -23.095 -42.979  27.034  1.00  0.00     0.093 A 
ATOM     26  C   UNL     1     -23.246 -41.653  27.449  1.00  0.00     0.122 A 
BRANCH  23  27
ATOM     27  O   UNL     1     -22.309 -44.552  25.321  1.00  0.00    -0.496 OA
ATOM     28  C   UNL     1     -21.172 -45.280  25.767  1.00  0.00     0.278 C 
ENDBRANCH  23  27
BRANCH  26  29
ATOM     29  O   UNL     1     -23.817 -41.234  28.619  1.00  0.00    -0.497 OA
ATOM     30  C   UNL     1     -24.435 -39.954  28.620  1.00  0.00     0.278 C 
ENDBRANCH  26  29
ENDBRANCH  11  21
ENDBRANCH   1   7
BRANCH   4  31
ATOM     31  S   UNL     1     -15.006 -43.123  26.439  1.00  0.00     0.238 S 
ATOM     32  O   UNL     1     -14.178 -41.938  26.450  1.00  0.00    -0.207 OA
ATOM     33  O   UNL     1     -14.515 -44.409  26.007  1.00  0.00    -0.207 OA
BRANCH  31  34
ATOM     34  N   UNL     1     -15.583 -43.287  28.013  1.00  0.00    -0.225 NA
ATOM     35  H   UNL     1     -16.043 -42.445  28.361  1.00  0.00     0.137 HD
ATOM     36  H   UNL     1     -14.811 -43.574  28.618  1.00  0.00     0.137 HD
ENDBRANCH  31  34
ENDBRANCH   4  31
TORSDOF 7
ENDMDL
MODEL 6
REMARK VINA RESULT:    -8.530      4.560      7.376
REMARK INTER + INTRA:         -13.156
REMARK INTER:                 -11.646
REMARK INTRA:                  -1.511
REMARK UNBOUND:                -1.385
REMARK SMILES COc1ccc([C@H]2C=C(c3cc(F)cc(F)c3)NN2c2ccc(S(N)(=O)=O)cc2)c(OC)c1
REMARK SMILES IDX 20 1 21 2 22 3 23 4 28 5 29 6 19 7 18 8 9 9 8 10 7 11 10 13
REMARK SMILES IDX 11 14 17 15 12 16 15 17 14 18 13 19 16 20 6 21 5 22 30 23
REMARK SMILES IDX 4 24 33 25 3 26 31 27 32 28 2 29 1 30 24 31 26 32 27 33
REMARK SMILES IDX 25 34
REMARK H PARENT 18 12 25 35 25 36
ROOT
ATOM      1  C   UNL     1     -19.573 -41.869  25.341  1.00  0.00     0.058 A 
ATOM      2  C   UNL     1     -19.079 -41.800  24.025  1.00  0.00     0.029 A 
ATOM      3  C   UNL     1     -17.741 -42.071  23.722  1.00  0.00     0.024 A 
ATOM      4  C   UNL     1     -16.865 -42.414  24.749  1.00  0.00     0.082 A 
ATOM      5  C   UNL     1     -17.321 -42.508  26.063  1.00  0.00     0.024 A 
ATOM      6  C   UNL     1     -18.664 -42.233  26.349  1.00  0.00     0.029 A 
ENDROOT
BRANCH   1   7
ATOM      7  N   UNL     1     -20.911 -41.584  25.608  1.00  0.00    -0.276 N 
ATOM      8  N   UNL     1     -21.407 -41.091  26.806  1.00  0.00    -0.297 N 
ATOM      9  C   UNL     1     -22.746 -40.749  26.652  1.00  0.00     0.060 C 
ATOM     10  C   UNL     1     -23.165 -41.073  25.418  1.00  0.00     0.033 C 
ATOM     11  C   UNL     1     -22.021 -41.666  24.611  1.00  0.00     0.164 C 
ATOM     12  H   UNL     1     -20.874 -40.319  27.211  1.00  0.00     0.188 HD
BRANCH   9  13
ATOM     13  C   UNL     1     -23.509 -40.112  27.729  1.00  0.00     0.005 A 
ATOM     14  C   UNL     1     -23.518 -38.716  27.861  1.00  0.00     0.049 A 
ATOM     15  C   UNL     1     -24.258 -40.870  28.640  1.00  0.00     0.049 A 
ATOM     16  C   UNL     1     -24.251 -38.108  28.878  1.00  0.00     0.126 A 
ATOM     17  C   UNL     1     -24.984 -40.240  29.650  1.00  0.00     0.126 A 
ATOM     18  C   UNL     1     -24.988 -38.861  29.780  1.00  0.00     0.078 A 
ATOM     19  F   UNL     1     -24.241 -36.774  28.987  1.00  0.00    -0.207 F 
ATOM     20  F   UNL     1     -25.694 -40.985  30.508  1.00  0.00    -0.207 F 
ENDBRANCH   9  13
BRANCH  11  21
ATOM     21  C   UNL     1     -22.329 -43.087  24.161  1.00  0.00     0.023 A 
ATOM     22  C   UNL     1     -22.679 -44.076  25.098  1.00  0.00     0.014 A 
ATOM     23  C   UNL     1     -22.308 -43.429  22.795  1.00  0.00     0.128 A 
ATOM     24  C   UNL     1     -22.976 -45.375  24.688  1.00  0.00     0.047 A 
ATOM     25  C   UNL     1     -22.608 -44.741  22.395  1.00  0.00     0.093 A 
ATOM     26  C   UNL     1     -22.940 -45.716  23.338  1.00  0.00     0.122 A 
BRANCH  23  27
ATOM     27  O   UNL     1     -21.981 -42.413  21.932  1.00  0.00    -0.496 OA
ATOM     28  C   UNL     1     -21.040 -42.691  20.902  1.00  0.00     0.278 C 
ENDBRANCH  23  27
BRANCH  26  29
ATOM     29  O   UNL     1     -23.249 -47.022  23.075  1.00  0.00    -0.497 OA
ATOM     30  C   UNL     1     -22.381 -48.016  23.604  1.00  0.00     0.278 C 
ENDBRANCH  26  29
ENDBRANCH  11  21
ENDBRANCH   1   7
BRANCH   4  31
ATOM     31  S   UNL     1     -15.164 -42.751  24.392  1.00  0.00     0.238 S 
ATOM     32  O   UNL     1     -15.091 -43.940  23.573  1.00  0.00    -0.207 OA
ATOM     33  O   UNL     1     -14.401 -42.598  25.607  1.00  0.00    -0.207 OA
BRANCH  31  34
ATOM     34  N   UNL     1     -14.776 -41.472  23.368  1.00  0.00    -0.225 NA
ATOM     35  H   UNL     1     -13.847 -41.088  23.540  1.00  0.00     0.137 HD
ATOM     36  H   UNL     1     -15.502 -40.756  23.446  1.00  0.00     0.137 HD
ENDBRANCH  31  34
ENDBRANCH   4  31
TORSDOF 7
ENDMDL
MODEL 7
REMARK VINA RESULT:    -8.483      4.761      7.789
REMARK INTER + INTRA:         -13.092
REMARK INTER:                 -11.937
REMARK INTRA:                  -1.155
REMARK UNBOUND:                -1.385
REMARK SMILES COc1ccc([C@H]2C=C(c3cc(F)cc(F)c3)NN2c2ccc(S(N)(=O)=O)cc2)c(OC)c1
REMARK SMILES IDX 20 1 21 2 22 3 23 4 28 5 29 6 19 7 18 8 9 9 8 10 7 11 10 13
REMARK SMILES IDX 11 14 17 15 12 16 15 17 14 18 13 19 16 20 6 21 5 22 30 23
REMARK SMILES IDX 4 24 33 25 3 26 31 27 32 28 2 29 1 30 24 31 26 32 27 33
REMARK SMILES IDX 25 34
REMARK H PARENT 18 12 25 35 25 36
ROOT
ATOM      1  C   UNL     1     -19.019 -41.893  25.681  1.00  0.00     0.058 A 
ATOM      2  C   UNL     1     -18.325 -42.035  24.465  1.00  0.00     0.029 A 
ATOM      3  C   UNL     1     -17.006 -42.500  24.417  1.00  0.00     0.024 A 
ATOM      4  C   UNL     1     -16.355 -42.828  25.603  1.00  0.00     0.082 A 
ATOM      5  C   UNL     1     -17.016 -42.716  26.825  1.00  0.00     0.024 A 
ATOM      6  C   UNL     1     -18.335 -42.248  26.856  1.00  0.00     0.029 A 
ENDROOT
BRANCH   1   7
ATOM      7  N   UNL     1     -20.330 -41.419  25.693  1.00  0.00    -0.276 N 
ATOM      8  N   UNL     1     -21.119 -41.258  26.823  1.00  0.00    -0.297 N 
ATOM      9  C   UNL     1     -22.291 -40.590  26.484  1.00  0.00     0.060 C 
ATOM     10  C   UNL     1     -22.331 -40.375  25.159  1.00  0.00     0.033 C 
ATOM     11  C   UNL     1     -21.068 -40.905  24.499  1.00  0.00     0.164 C 
ATOM     12  H   UNL     1     -20.656 -40.812  27.616  1.00  0.00     0.188 HD
BRANCH   9  13
ATOM     13  C   UNL     1     -23.276 -40.198  27.495  1.00  0.00     0.005 A 
ATOM     14  C   UNL     1     -23.485 -38.843  27.793  1.00  0.00     0.049 A 
ATOM     15  C   UNL     1     -24.042 -41.154  28.178  1.00  0.00     0.049 A 
ATOM     16  C   UNL     1     -24.429 -38.468  28.746  1.00  0.00     0.126 A 
ATOM     17  C   UNL     1     -24.980 -40.754  29.128  1.00  0.00     0.126 A 
ATOM     18  C   UNL     1     -25.183 -39.415  29.422  1.00  0.00     0.078 A 
ATOM     19  F   UNL     1     -24.609 -37.169  29.016  1.00  0.00    -0.207 F 
ATOM     20  F   UNL     1     -25.702 -41.685  29.766  1.00  0.00    -0.207 F 
ENDBRANCH   9  13
BRANCH  11  21
ATOM     21  C   UNL     1     -21.381 -41.981  23.470  1.00  0.00     0.023 A 
ATOM     22  C   UNL     1     -22.126 -43.121  23.827  1.00  0.00     0.014 A 
ATOM     23  C   UNL     1     -20.966 -41.840  22.132  1.00  0.00     0.128 A 
ATOM     24  C   UNL     1     -22.427 -44.102  22.884  1.00  0.00     0.047 A 
ATOM     25  C   UNL     1     -21.275 -42.835  21.191  1.00  0.00     0.093 A 
ATOM     26  C   UNL     1     -22.003 -43.968  21.565  1.00  0.00     0.122 A 
BRANCH  23  27
ATOM     27  O   UNL     1     -20.264 -40.696  21.845  1.00  0.00    -0.496 OA
ATOM     28  C   UNL     1     -20.019 -40.391  20.477  1.00  0.00     0.278 C 
ENDBRANCH  23  27
BRANCH  26  29
ATOM     29  O   UNL     1     -22.363 -45.002  20.745  1.00  0.00    -0.497 OA
ATOM     30  C   UNL     1     -22.792 -44.672  19.431  1.00  0.00     0.278 C 
ENDBRANCH  26  29
ENDBRANCH  11  21
ENDBRANCH   1   7
BRANCH   4  31
ATOM     31  S   UNL     1     -14.683 -43.409  25.569  1.00  0.00     0.238 S 
ATOM     32  O   UNL     1     -14.142 -43.177  24.248  1.00  0.00    -0.207 OA
ATOM     33  O   UNL     1     -14.631 -44.698  26.214  1.00  0.00    -0.207 OA
BRANCH  31  34
ATOM     34  N   UNL     1     -13.920 -42.292  26.572  1.00  0.00    -0.225 NA
ATOM     35  H   UNL     1     -12.928 -42.487  26.707  1.00  0.00     0.137 HD
ATOM     36  H   UNL     1     -14.423 -42.251  27.461  1.00  0.00     0.137 HD
ENDBRANCH  31  34
ENDBRANCH   4  31
TORSDOF 7
ENDMDL
MODEL 8
REMARK VINA RESULT:    -8.206      3.312      4.867
REMARK INTER + INTRA:         -12.709
REMARK INTER:                 -11.108
REMARK INTRA:                  -1.601
REMARK UNBOUND:                -1.385
REMARK SMILES COc1ccc([C@H]2C=C(c3cc(F)cc(F)c3)NN2c2ccc(S(N)(=O)=O)cc2)c(OC)c1
REMARK SMILES IDX 20 1 21 2 22 3 23 4 28 5 29 6 19 7 18 8 9 9 8 10 7 11 10 13
REMARK SMILES IDX 11 14 17 15 12 16 15 17 14 18 13 19 16 20 6 21 5 22 30 23
REMARK SMILES IDX 4 24 33 25 3 26 31 27 32 28 2 29 1 30 24 31 26 32 27 33
REMARK SMILES IDX 25 34
REMARK H PARENT 18 12 25 35 25 36
ROOT
ATOM      1  C   UNL     1     -21.436 -43.329  22.030  1.00  0.00     0.058 A 
ATOM      2  C   UNL     1     -22.486 -44.114  22.544  1.00  0.00     0.029 A 
ATOM      3  C   UNL     1     -23.366 -44.809  21.708  1.00  0.00     0.024 A 
ATOM      4  C   UNL     1     -23.208 -44.722  20.327  1.00  0.00     0.082 A 
ATOM      5  C   UNL     1     -22.171 -43.968  19.782  1.00  0.00     0.024 A 
ATOM      6  C   UNL     1     -21.298 -43.278  20.633  1.00  0.00     0.029 A 
ENDROOT
BRANCH   1   7
ATOM      7  N   UNL     1     -20.582 -42.643  22.892  1.00  0.00    -0.276 N 
ATOM      8  N   UNL     1     -19.583 -43.218  23.663  1.00  0.00    -0.297 N 
ATOM      9  C   UNL     1     -18.811 -42.220  24.249  1.00  0.00     0.060 C 
ATOM     10  C   UNL     1     -19.317 -41.013  23.949  1.00  0.00     0.033 C 
ATOM     11  C   UNL     1     -20.532 -41.158  23.048  1.00  0.00     0.164 C 
ATOM     12  H   UNL     1     -18.997 -43.900  23.178  1.00  0.00     0.188 HD
BRANCH   9  13
ATOM     13  C   UNL     1     -17.622 -42.532  25.046  1.00  0.00     0.005 A 
ATOM     14  C   UNL     1     -16.416 -42.873  24.417  1.00  0.00     0.049 A 
ATOM     15  C   UNL     1     -17.649 -42.482  26.448  1.00  0.00     0.049 A 
ATOM     16  C   UNL     1     -15.282 -43.159  25.174  1.00  0.00     0.126 A 
ATOM     17  C   UNL     1     -16.502 -42.772  27.183  1.00  0.00     0.126 A 
ATOM     18  C   UNL     1     -15.313 -43.112  26.559  1.00  0.00     0.078 A 
ATOM     19  F   UNL     1     -14.143 -43.487  24.551  1.00  0.00    -0.207 F 
ATOM     20  F   UNL     1     -16.551 -42.717  28.521  1.00  0.00    -0.207 F 
ENDBRANCH   9  13
BRANCH  11  21
ATOM     21  C   UNL     1     -21.781 -40.573  23.691  1.00  0.00     0.023 A 
ATOM     22  C   UNL     1     -22.043 -40.769  25.059  1.00  0.00     0.014 A 
ATOM     23  C   UNL     1     -22.679 -39.792  22.938  1.00  0.00     0.128 A 
ATOM     24  C   UNL     1     -23.179 -40.223  25.655  1.00  0.00     0.047 A 
ATOM     25  C   UNL     1     -23.821 -39.248  23.549  1.00  0.00     0.093 A 
ATOM     26  C   UNL     1     -24.074 -39.463  24.906  1.00  0.00     0.122 A 
BRANCH  23  27
ATOM     27  O   UNL     1     -22.355 -39.620  21.615  1.00  0.00    -0.496 OA
ATOM     28  C   UNL     1     -23.256 -40.125  20.638  1.00  0.00     0.278 C 
ENDBRANCH  23  27
BRANCH  26  29
ATOM     29  O   UNL     1     -25.146 -38.991  25.612  1.00  0.00    -0.497 OA
ATOM     30  C   UNL     1     -24.872 -38.163  26.735  1.00  0.00     0.278 C 
ENDBRANCH  26  29
ENDBRANCH  11  21
ENDBRANCH   1   7
BRANCH   4  31
ATOM     31  S   UNL     1     -24.317 -45.585  19.249  1.00  0.00     0.238 S 
ATOM     32  O   UNL     1     -24.824 -44.652  18.268  1.00  0.00    -0.207 OA
ATOM     33  O   UNL     1     -25.182 -46.417  20.050  1.00  0.00    -0.207 OA
BRANCH  31  34
ATOM     34  N   UNL     1     -23.256 -46.589  18.411  1.00  0.00    -0.225 NA
ATOM     35  H   UNL     1     -23.703 -47.429  18.045  1.00  0.00     0.137 HD
ATOM     36  H   UNL     1     -22.466 -46.814  19.020  1.00  0.00     0.137 HD
ENDBRANCH  31  34
ENDBRANCH   4  31
TORSDOF 7
ENDMDL
MODEL 9
REMARK VINA RESULT:    -7.980      3.557      6.738
REMARK INTER + INTRA:         -12.398
REMARK INTER:                 -10.993
REMARK INTRA:                  -1.405
REMARK UNBOUND:                -1.385
REMARK SMILES COc1ccc([C@H]2C=C(c3cc(F)cc(F)c3)NN2c2ccc(S(N)(=O)=O)cc2)c(OC)c1
REMARK SMILES IDX 20 1 21 2 22 3 23 4 28 5 29 6 19 7 18 8 9 9 8 10 7 11 10 13
REMARK SMILES IDX 11 14 17 15 12 16 15 17 14 18 13 19 16 20 6 21 5 22 30 23
REMARK SMILES IDX 4 24 33 25 3 26 31 27 32 28 2 29 1 30 24 31 26 32 27 33
REMARK SMILES IDX 25 34
REMARK H PARENT 18 12 25 35 25 36
ROOT
ATOM      1  C   UNL     1     -22.612 -43.900  26.572  1.00  0.00     0.058 A 
ATOM      2  C   UNL     1     -23.689 -44.474  25.870  1.00  0.00     0.029 A 
ATOM      3  C   UNL     1     -24.617 -45.312  26.497  1.00  0.00     0.024 A 
ATOM      4  C   UNL     1     -24.473 -45.596  27.853  1.00  0.00     0.082 A 
ATOM      5  C   UNL     1     -23.428 -45.033  28.584  1.00  0.00     0.024 A 
ATOM      6  C   UNL     1     -22.508 -44.197  27.941  1.00  0.00     0.029 A 
ENDROOT
BRANCH   1   7
ATOM      7  N   UNL     1     -21.702 -43.075  25.914  1.00  0.00    -0.276 N 
ATOM      8  N   UNL     1     -20.322 -43.212  25.945  1.00  0.00    -0.297 N 
ATOM      9  C   UNL     1     -19.745 -42.339  25.028  1.00  0.00     0.060 C 
ATOM     10  C   UNL     1     -20.694 -41.581  24.455  1.00  0.00     0.033 C 
ATOM     11  C   UNL     1     -22.067 -41.967  24.980  1.00  0.00     0.164 C 
ATOM     12  H   UNL     1     -19.977 -44.165  25.814  1.00  0.00     0.188 HD
BRANCH   9  13
ATOM     13  C   UNL     1     -18.302 -42.329  24.775  1.00  0.00     0.005 A 
ATOM     14  C   UNL     1     -17.804 -41.923  23.528  1.00  0.00     0.049 A 
ATOM     15  C   UNL     1     -17.384 -42.707  25.766  1.00  0.00     0.049 A 
ATOM     16  C   UNL     1     -16.432 -41.903  23.289  1.00  0.00     0.126 A 
ATOM     17  C   UNL     1     -16.015 -42.679  25.503  1.00  0.00     0.126 A 
ATOM     18  C   UNL     1     -15.526 -42.280  24.270  1.00  0.00     0.078 A 
ATOM     19  F   UNL     1     -15.979 -41.515  22.090  1.00  0.00    -0.207 F 
ATOM     20  F   UNL     1     -15.157 -43.042  26.465  1.00  0.00    -0.207 F 
ENDBRANCH   9  13
BRANCH  11  21
ATOM     21  C   UNL     1     -22.754 -40.796  25.667  1.00  0.00     0.023 A 
ATOM     22  C   UNL     1     -22.504 -40.512  27.023  1.00  0.00     0.014 A 
ATOM     23  C   UNL     1     -23.623 -39.951  24.951  1.00  0.00     0.128 A 
ATOM     24  C   UNL     1     -23.120 -39.431  27.652  1.00  0.00     0.047 A 
ATOM     25  C   UNL     1     -24.239 -38.866  25.596  1.00  0.00     0.093 A 
ATOM     26  C   UNL     1     -23.991 -38.606  26.946  1.00  0.00     0.122 A 
BRANCH  23  27
ATOM     27  O   UNL     1     -23.807 -40.269  23.628  1.00  0.00    -0.496 OA
ATOM     28  C   UNL     1     -25.141 -40.355  23.144  1.00  0.00     0.278 C 
ENDBRANCH  23  27
BRANCH  26  29
ATOM     29  O   UNL     1     -24.529 -37.586  27.683  1.00  0.00    -0.497 OA
ATOM     30  C   UNL     1     -23.901 -37.276  28.920  1.00  0.00     0.278 C 
ENDBRANCH  26  29
ENDBRANCH  11  21
ENDBRANCH   1   7
BRANCH   4  31
ATOM     31  S   UNL     1     -25.629 -46.663  28.666  1.00  0.00     0.238 S 
ATOM     32  O   UNL     1     -25.040 -47.978  28.780  1.00  0.00    -0.207 OA
ATOM     33  O   UNL     1     -26.936 -46.444  28.096  1.00  0.00    -0.207 OA
BRANCH  31  34
ATOM     34  N   UNL     1     -25.628 -46.030  30.227  1.00  0.00    -0.225 NA
ATOM     35  H   UNL     1     -26.409 -45.399  30.404  1.00  0.00     0.137 HD
ATOM     36  H   UNL     1     -24.728 -45.578  30.398  1.00  0.00     0.137 HD
ENDBRANCH  31  34
ENDBRANCH   4  31
TORSDOF 7
ENDMDL
