MODEL 1
REMARK VINA RESULT:   -12.696      0.000      0.000
REMARK INTER + INTRA:         -16.984
REMARK INTER:                 -16.406
REMARK INTRA:                  -0.578
REMARK UNBOUND:                -0.578
REMARK SMILES O=C1Cc2cc3c(CC[C@H]4CC[N@H+](Cc5ccccc5)CC4)noc3cc2N1
REMARK SMILES IDX 9 1 10 2 12 3 13 4 11 5 21 6 22 7 14 9 15 10 16 11 20 12
REMARK SMILES IDX 17 13 19 14 18 15 8 16 7 17 6 18 23 19 5 20 25 21 24 22 4 23
REMARK SMILES IDX 26 24 3 25 27 26 2 27 28 28 1 29
REMARK H PARENT 13 8 28 30
ROOT
ATOM      1  C   UNL     1     -13.787 -45.033  26.230  1.00  0.00     0.010 C 
ENDROOT
BRANCH   1   2
ATOM      2  C   UNL     1     -13.400 -45.627  27.608  1.00  0.00     0.000 C 
ATOM      3  C   UNL     1     -11.509 -46.543  29.051  1.00  0.00     0.262 C 
ATOM      4  N   UNL     1     -11.885 -45.528  30.096  1.00  0.00    -0.331 N 
ATOM      5  C   UNL     1     -11.918 -46.030  27.679  1.00  0.00     0.065 C 
ATOM      6  C   UNL     1     -13.376 -45.309  30.135  1.00  0.00     0.262 C 
ATOM      7  C   UNL     1     -13.827 -44.749  28.793  1.00  0.00     0.065 C 
ATOM      8  H   UNL     1     -11.458 -44.630  29.825  1.00  0.00     0.348 HD
BRANCH   4   9
ATOM      9  C   UNL     1     -11.303 -45.876  31.448  1.00  0.00     0.299 C 
BRANCH   9  10
ATOM     10  C   UNL     1      -9.940 -45.284  31.680  1.00  0.00     0.006 A 
ATOM     11  C   UNL     1      -8.782 -46.022  31.390  1.00  0.00     0.009 A 
ATOM     12  C   UNL     1      -9.806 -43.988  32.204  1.00  0.00     0.009 A 
ATOM     13  C   UNL     1      -7.519 -45.478  31.628  1.00  0.00     0.001 A 
ATOM     14  C   UNL     1      -8.541 -43.449  32.441  1.00  0.00     0.001 A 
ATOM     15  C   UNL     1      -7.399 -44.195  32.155  1.00  0.00     0.000 A 
ENDBRANCH   9  10
ENDBRANCH   4   9
ENDBRANCH   1   2
BRANCH   1  16
ATOM     16  C   UNL     1     -14.156 -43.543  26.152  1.00  0.00     0.061 C 
BRANCH  16  17
ATOM     17  C   UNL     1     -15.208 -43.208  25.151  1.00  0.00     0.091 A 
ATOM     18  C   UNL     1     -16.531 -42.749  25.386  1.00  0.00     0.045 A 
ATOM     19  N   UNL     1     -14.951 -43.326  23.838  1.00  0.00    -0.084 NA
ATOM     20  C   UNL     1     -17.329 -42.454  26.510  1.00  0.00     0.020 A 
ATOM     21  C   UNL     1     -17.054 -42.587  24.107  1.00  0.00     0.169 A 
ATOM     22  O   UNL     1     -16.111 -42.935  23.191  1.00  0.00    -0.356 OA
ATOM     23  C   UNL     1     -18.621 -42.011  26.247  1.00  0.00    -0.014 A 
ATOM     24  C   UNL     1     -18.345 -42.144  23.816  1.00  0.00     0.077 A 
ATOM     25  C   UNL     1     -19.700 -41.616  27.215  1.00  0.00     0.138 C 
ATOM     26  C   UNL     1     -19.097 -41.866  24.942  1.00  0.00     0.048 A 
ATOM     27  C   UNL     1     -20.852 -41.236  26.280  1.00  0.00     0.228 C 
ATOM     28  N   UNL     1     -20.407 -41.412  24.975  1.00  0.00    -0.325 N 
ATOM     29  O   UNL     1     -21.961 -40.852  26.608  1.00  0.00    -0.274 OA
ATOM     30  H   UNL     1     -20.992 -41.215  24.176  1.00  0.00     0.169 HD
ENDBRANCH  16  17
ENDBRANCH   1  16
TORSDOF 5
ENDMDL
MODEL 2
REMARK VINA RESULT:   -12.351      1.722      2.437
REMARK INTER + INTRA:         -16.539
REMARK INTER:                 -16.038
REMARK INTRA:                  -0.502
REMARK UNBOUND:                -0.578
REMARK SMILES O=C1Cc2cc3c(CC[C@H]4CC[N@H+](Cc5ccccc5)CC4)noc3cc2N1
REMARK SMILES IDX 9 1 10 2 12 3 13 4 11 5 21 6 22 7 14 9 15 10 16 11 20 12
REMARK SMILES IDX 17 13 19 14 18 15 8 16 7 17 6 18 23 19 5 20 25 21 24 22 4 23
REMARK SMILES IDX 26 24 3 25 27 26 2 27 28 28 1 29
REMARK H PARENT 13 8 28 30
ROOT
ATOM      1  C   UNL     1     -13.809 -44.959  26.551  1.00  0.00     0.010 C 
ENDROOT
BRANCH   1   2
ATOM      2  C   UNL     1     -13.232 -45.710  27.778  1.00  0.00     0.000 C 
ATOM      3  C   UNL     1     -11.118 -46.518  28.950  1.00  0.00     0.262 C 
ATOM      4  N   UNL     1     -11.583 -45.788  30.180  1.00  0.00    -0.331 N 
ATOM      5  C   UNL     1     -11.702 -45.850  27.715  1.00  0.00     0.065 C 
ATOM      6  C   UNL     1     -13.083 -45.846  30.317  1.00  0.00     0.262 C 
ATOM      7  C   UNL     1     -13.715 -45.146  29.121  1.00  0.00     0.065 C 
ATOM      8  H   UNL     1     -11.332 -44.794  30.066  1.00  0.00     0.348 HD
BRANCH   4   9
ATOM      9  C   UNL     1     -10.857 -46.261  31.419  1.00  0.00     0.299 C 
BRANCH   9  10
ATOM     10  C   UNL     1      -9.600 -45.488  31.706  1.00  0.00     0.006 A 
ATOM     11  C   UNL     1      -9.665 -44.190  32.236  1.00  0.00     0.009 A 
ATOM     12  C   UNL     1      -8.341 -46.049  31.434  1.00  0.00     0.009 A 
ATOM     13  C   UNL     1      -8.497 -43.467  32.480  1.00  0.00     0.001 A 
ATOM     14  C   UNL     1      -7.176 -45.320  31.679  1.00  0.00     0.001 A 
ATOM     15  C   UNL     1      -7.255 -44.031  32.199  1.00  0.00     0.000 A 
ENDBRANCH   9  10
ENDBRANCH   4   9
ENDBRANCH   1   2
BRANCH   1  16
ATOM     16  C   UNL     1     -14.028 -43.441  26.657  1.00  0.00     0.061 C 
BRANCH  16  17
ATOM     17  C   UNL     1     -15.443 -43.023  26.865  1.00  0.00     0.091 A 
ATOM     18  C   UNL     1     -16.428 -42.735  25.885  1.00  0.00     0.045 A 
ATOM     19  N   UNL     1     -15.927 -42.880  28.110  1.00  0.00    -0.084 NA
ATOM     20  C   UNL     1     -16.497 -42.711  24.477  1.00  0.00     0.020 A 
ATOM     21  C   UNL     1     -17.555 -42.415  26.635  1.00  0.00     0.169 A 
ATOM     22  O   UNL     1     -17.250 -42.501  27.957  1.00  0.00    -0.356 OA
ATOM     23  C   UNL     1     -17.724 -42.357  23.928  1.00  0.00    -0.014 A 
ATOM     24  C   UNL     1     -18.798 -42.058  26.110  1.00  0.00     0.077 A 
ATOM     25  C   UNL     1     -18.115 -42.245  22.481  1.00  0.00     0.138 C 
ATOM     26  C   UNL     1     -18.825 -42.045  24.727  1.00  0.00     0.048 A 
ATOM     27  C   UNL     1     -19.584 -41.822  22.573  1.00  0.00     0.228 C 
ATOM     28  N   UNL     1     -19.910 -41.732  23.922  1.00  0.00    -0.325 N 
ATOM     29  O   UNL     1     -20.339 -41.598  21.643  1.00  0.00    -0.274 OA
ATOM     30  H   UNL     1     -20.834 -41.475  24.236  1.00  0.00     0.169 HD
ENDBRANCH  16  17
ENDBRANCH   1  16
TORSDOF 5
ENDMDL
MODEL 3
REMARK VINA RESULT:   -12.153      3.720      8.962
REMARK INTER + INTRA:         -16.283
REMARK INTER:                 -15.783
REMARK INTRA:                  -0.500
REMARK UNBOUND:                -0.578
REMARK SMILES O=C1Cc2cc3c(CC[C@H]4CC[N@H+](Cc5ccccc5)CC4)noc3cc2N1
REMARK SMILES IDX 9 1 10 2 12 3 13 4 11 5 21 6 22 7 14 9 15 10 16 11 20 12
REMARK SMILES IDX 17 13 19 14 18 15 8 16 7 17 6 18 23 19 5 20 25 21 24 22 4 23
REMARK SMILES IDX 26 24 3 25 27 26 2 27 28 28 1 29
REMARK H PARENT 13 8 28 30
ROOT
ATOM      1  C   UNL     1     -11.375 -46.216  29.140  1.00  0.00     0.010 C 
ENDROOT
BRANCH   1   2
ATOM      2  C   UNL     1     -11.906 -45.385  27.945  1.00  0.00     0.000 C 
ATOM      3  C   UNL     1     -13.892 -44.929  26.413  1.00  0.00     0.262 C 
ATOM      4  N   UNL     1     -13.789 -43.479  26.796  1.00  0.00    -0.331 N 
ATOM      5  C   UNL     1     -13.332 -45.789  27.535  1.00  0.00     0.065 C 
ATOM      6  C   UNL     1     -12.352 -43.065  26.992  1.00  0.00     0.262 C 
ATOM      7  C   UNL     1     -11.760 -43.870  28.141  1.00  0.00     0.065 C 
ATOM      8  H   UNL     1     -14.259 -43.362  27.706  1.00  0.00     0.348 HD
BRANCH   4   9
ATOM      9  C   UNL     1     -14.533 -42.589  25.825  1.00  0.00     0.299 C 
BRANCH   9  10
ATOM     10  C   UNL     1     -16.014 -42.538  26.079  1.00  0.00     0.006 A 
ATOM     11  C   UNL     1     -16.920 -42.488  25.008  1.00  0.00     0.009 A 
ATOM     12  C   UNL     1     -16.512 -42.526  27.392  1.00  0.00     0.009 A 
ATOM     13  C   UNL     1     -18.293 -42.418  25.247  1.00  0.00     0.001 A 
ATOM     14  C   UNL     1     -17.886 -42.455  27.626  1.00  0.00     0.001 A 
ATOM     15  C   UNL     1     -18.775 -42.399  26.554  1.00  0.00     0.000 A 
ENDBRANCH   9  10
ENDBRANCH   4   9
ENDBRANCH   1   2
BRANCH   1  16
ATOM     16  C   UNL     1      -9.889 -46.095  29.514  1.00  0.00     0.061 C 
BRANCH  16  17
ATOM     17  C   UNL     1      -9.598 -45.163  30.640  1.00  0.00     0.091 A 
ATOM     18  C   UNL     1     -10.517 -44.428  31.433  1.00  0.00     0.045 A 
ATOM     19  N   UNL     1      -8.329 -44.939  31.017  1.00  0.00    -0.084 NA
ATOM     20  C   UNL     1     -11.916 -44.266  31.496  1.00  0.00     0.020 A 
ATOM     21  C   UNL     1      -9.703 -43.744  32.331  1.00  0.00     0.169 A 
ATOM     22  O   UNL     1      -8.403 -44.051  32.077  1.00  0.00    -0.356 OA
ATOM     23  C   UNL     1     -12.392 -43.408  32.482  1.00  0.00    -0.014 A 
ATOM     24  C   UNL     1     -10.154 -42.880  33.329  1.00  0.00     0.077 A 
ATOM     25  C   UNL     1     -13.811 -43.034  32.805  1.00  0.00     0.138 C 
ATOM     26  C   UNL     1     -11.530 -42.746  33.359  1.00  0.00     0.048 A 
ATOM     27  C   UNL     1     -13.633 -42.067  33.979  1.00  0.00     0.228 C 
ATOM     28  N   UNL     1     -12.269 -41.962  34.231  1.00  0.00    -0.325 N 
ATOM     29  O   UNL     1     -14.515 -41.486  34.586  1.00  0.00    -0.274 OA
ATOM     30  H   UNL     1     -11.903 -41.383  34.972  1.00  0.00     0.169 HD
ENDBRANCH  16  17
ENDBRANCH   1  16
TORSDOF 5
ENDMDL
MODEL 4
REMARK VINA RESULT:   -11.905      1.648      2.097
REMARK INTER + INTRA:         -15.963
REMARK INTER:                 -16.000
REMARK INTRA:                   0.037
REMARK UNBOUND:                -0.578
REMARK SMILES O=C1Cc2cc3c(CC[C@H]4CC[N@H+](Cc5ccccc5)CC4)noc3cc2N1
REMARK SMILES IDX 9 1 10 2 12 3 13 4 11 5 21 6 22 7 14 9 15 10 16 11 20 12
REMARK SMILES IDX 17 13 19 14 18 15 8 16 7 17 6 18 23 19 5 20 25 21 24 22 4 23
REMARK SMILES IDX 26 24 3 25 27 26 2 27 28 28 1 29
REMARK H PARENT 13 8 28 30
ROOT
ATOM      1  C   UNL     1     -13.904 -44.458  26.360  1.00  0.00     0.010 C 
ENDROOT
BRANCH   1   2
ATOM      2  C   UNL     1     -13.238 -44.825  27.710  1.00  0.00     0.000 C 
ATOM      3  C   UNL     1     -11.326 -44.325  29.319  1.00  0.00     0.262 C 
ATOM      4  N   UNL     1     -12.355 -44.120  30.396  1.00  0.00    -0.331 N 
ATOM      5  C   UNL     1     -11.947 -44.028  27.963  1.00  0.00     0.065 C 
ATOM      6  C   UNL     1     -13.518 -45.065  30.229  1.00  0.00     0.262 C 
ATOM      7  C   UNL     1     -14.204 -44.773  28.901  1.00  0.00     0.065 C 
ATOM      8  H   UNL     1     -12.730 -43.165  30.292  1.00  0.00     0.348 HD
BRANCH   4   9
ATOM      9  C   UNL     1     -11.740 -44.178  31.777  1.00  0.00     0.299 C 
BRANCH   9  10
ATOM     10  C   UNL     1     -10.310 -44.642  31.772  1.00  0.00     0.006 A 
ATOM     11  C   UNL     1      -9.274 -43.768  32.138  1.00  0.00     0.009 A 
ATOM     12  C   UNL     1      -9.987 -45.955  31.389  1.00  0.00     0.009 A 
ATOM     13  C   UNL     1      -7.946 -44.195  32.111  1.00  0.00     0.001 A 
ATOM     14  C   UNL     1      -8.657 -46.376  31.363  1.00  0.00     0.001 A 
ATOM     15  C   UNL     1      -7.639 -45.497  31.722  1.00  0.00     0.000 A 
ENDBRANCH   9  10
ENDBRANCH   4   9
ENDBRANCH   1   2
BRANCH   1  16
ATOM     16  C   UNL     1     -15.068 -43.453  26.366  1.00  0.00     0.061 C 
BRANCH  16  17
ATOM     17  C   UNL     1     -15.295 -42.745  25.074  1.00  0.00     0.091 A 
ATOM     18  C   UNL     1     -16.529 -42.373  24.480  1.00  0.00     0.045 A 
ATOM     19  N   UNL     1     -14.249 -42.376  24.317  1.00  0.00    -0.084 NA
ATOM     20  C   UNL     1     -17.897 -42.494  24.797  1.00  0.00     0.020 A 
ATOM     21  C   UNL     1     -16.148 -41.737  23.303  1.00  0.00     0.169 A 
ATOM     22  O   UNL     1     -14.792 -41.745  23.210  1.00  0.00    -0.356 OA
ATOM     23  C   UNL     1     -18.791 -41.953  23.879  1.00  0.00    -0.014 A 
ATOM     24  C   UNL     1     -17.023 -41.185  22.366  1.00  0.00     0.077 A 
ATOM     25  C   UNL     1     -20.292 -41.917  23.931  1.00  0.00     0.138 C 
ATOM     26  C   UNL     1     -18.355 -41.324  22.711  1.00  0.00     0.048 A 
ATOM     27  C   UNL     1     -20.644 -41.189  22.630  1.00  0.00     0.228 C 
ATOM     28  N   UNL     1     -19.451 -40.882  21.987  1.00  0.00    -0.325 N 
ATOM     29  O   UNL     1     -21.761 -40.926  22.221  1.00  0.00    -0.274 OA
ATOM     30  H   UNL     1     -19.426 -40.389  21.106  1.00  0.00     0.169 HD
ENDBRANCH  16  17
ENDBRANCH   1  16
TORSDOF 5
ENDMDL
MODEL 5
REMARK VINA RESULT:   -11.568      4.235      9.649
REMARK INTER + INTRA:         -15.528
REMARK INTER:                 -14.608
REMARK INTRA:                  -0.920
REMARK UNBOUND:                -0.578
REMARK SMILES O=C1Cc2cc3c(CC[C@H]4CC[N@H+](Cc5ccccc5)CC4)noc3cc2N1
REMARK SMILES IDX 9 1 10 2 12 3 13 4 11 5 21 6 22 7 14 9 15 10 16 11 20 12
REMARK SMILES IDX 17 13 19 14 18 15 8 16 7 17 6 18 23 19 5 20 25 21 24 22 4 23
REMARK SMILES IDX 26 24 3 25 27 26 2 27 28 28 1 29
REMARK H PARENT 13 8 28 30
ROOT
ATOM      1  C   UNL     1      -9.883 -46.380  28.764  1.00  0.00     0.010 C 
ENDROOT
BRANCH   1   2
ATOM      2  C   UNL     1     -11.154 -45.502  28.894  1.00  0.00     0.000 C 
ATOM      3  C   UNL     1     -12.333 -43.376  28.128  1.00  0.00     0.262 C 
ATOM      4  N   UNL     1     -13.508 -44.230  27.738  1.00  0.00    -0.331 N 
ATOM      5  C   UNL     1     -11.061 -44.208  28.068  1.00  0.00     0.065 C 
ATOM      6  C   UNL     1     -13.690 -45.380  28.696  1.00  0.00     0.262 C 
ATOM      7  C   UNL     1     -12.457 -46.271  28.636  1.00  0.00     0.065 C 
ATOM      8  H   UNL     1     -13.302 -44.639  26.815  1.00  0.00     0.348 HD
BRANCH   4   9
ATOM      9  C   UNL     1     -14.763 -43.405  27.559  1.00  0.00     0.299 C 
BRANCH   9  10
ATOM     10  C   UNL     1     -15.264 -43.383  26.141  1.00  0.00     0.006 A 
ATOM     11  C   UNL     1     -14.522 -43.984  25.112  1.00  0.00     0.009 A 
ATOM     12  C   UNL     1     -16.475 -42.748  25.823  1.00  0.00     0.009 A 
ATOM     13  C   UNL     1     -14.978 -43.942  23.795  1.00  0.00     0.001 A 
ATOM     14  C   UNL     1     -16.927 -42.708  24.503  1.00  0.00     0.001 A 
ATOM     15  C   UNL     1     -16.178 -43.303  23.491  1.00  0.00     0.000 A 
ENDBRANCH   9  10
ENDBRANCH   4   9
ENDBRANCH   1   2
BRANCH   1  16
ATOM     16  C   UNL     1      -9.226 -46.913  30.047  1.00  0.00     0.061 C 
BRANCH  16  17
ATOM     17  C   UNL     1      -8.508 -45.889  30.858  1.00  0.00     0.091 A 
ATOM     18  C   UNL     1      -9.060 -44.879  31.689  1.00  0.00     0.045 A 
ATOM     19  N   UNL     1      -7.166 -45.851  30.857  1.00  0.00    -0.084 NA
ATOM     20  C   UNL     1     -10.350 -44.450  32.061  1.00  0.00     0.020 A 
ATOM     21  C   UNL     1      -7.943 -44.230  32.203  1.00  0.00     0.169 A 
ATOM     22  O   UNL     1      -6.819 -44.810  31.703  1.00  0.00    -0.356 OA
ATOM     23  C   UNL     1     -10.410 -43.375  32.942  1.00  0.00    -0.014 A 
ATOM     24  C   UNL     1      -7.975 -43.151  33.088  1.00  0.00     0.077 A 
ATOM     25  C   UNL     1     -11.618 -42.696  33.523  1.00  0.00     0.138 C 
ATOM     26  C   UNL     1      -9.256 -42.759  33.429  1.00  0.00     0.048 A 
ATOM     27  C   UNL     1     -10.989 -41.609  34.399  1.00  0.00     0.228 C 
ATOM     28  N   UNL     1      -9.608 -41.724  34.282  1.00  0.00    -0.325 N 
ATOM     29  O   UNL     1     -11.579 -40.786  35.076  1.00  0.00    -0.274 OA
ATOM     30  H   UNL     1      -8.974 -41.115  34.778  1.00  0.00     0.169 HD
ENDBRANCH  16  17
ENDBRANCH   1  16
TORSDOF 5
ENDMDL
MODEL 6
REMARK VINA RESULT:   -11.086      3.568      9.682
REMARK INTER + INTRA:         -14.905
REMARK INTER:                 -14.641
REMARK INTRA:                  -0.264
REMARK UNBOUND:                -0.578
REMARK SMILES O=C1Cc2cc3c(CC[C@H]4CC[N@H+](Cc5ccccc5)CC4)noc3cc2N1
REMARK SMILES IDX 9 1 10 2 12 3 13 4 11 5 21 6 22 7 14 9 15 10 16 11 20 12
REMARK SMILES IDX 17 13 19 14 18 15 8 16 7 17 6 18 23 19 5 20 25 21 24 22 4 23
REMARK SMILES IDX 26 24 3 25 27 26 2 27 28 28 1 29
REMARK H PARENT 13 8 28 30
ROOT
ATOM      1  C   UNL     1     -12.873 -46.172  27.266  1.00  0.00     0.010 C 
ENDROOT
BRANCH   1   2
ATOM      2  C   UNL     1     -13.459 -44.947  26.521  1.00  0.00     0.000 C 
ATOM      3  C   UNL     1     -14.746 -44.145  24.472  1.00  0.00     0.262 C 
ATOM      4  N   UNL     1     -15.715 -43.475  25.407  1.00  0.00    -0.331 N 
ATOM      5  C   UNL     1     -14.101 -45.329  25.177  1.00  0.00     0.065 C 
ATOM      6  C   UNL     1     -15.012 -42.931  26.625  1.00  0.00     0.262 C 
ATOM      7  C   UNL     1     -14.387 -44.089  27.392  1.00  0.00     0.065 C 
ATOM      8  H   UNL     1     -16.375 -44.193  25.739  1.00  0.00     0.348 HD
BRANCH   4   9
ATOM      9  C   UNL     1     -16.552 -42.436  24.694  1.00  0.00     0.299 C 
BRANCH   9  10
ATOM     10  C   UNL     1     -17.877 -42.182  25.357  1.00  0.00     0.006 A 
ATOM     11  C   UNL     1     -18.019 -42.322  26.747  1.00  0.00     0.009 A 
ATOM     12  C   UNL     1     -18.998 -41.815  24.594  1.00  0.00     0.009 A 
ATOM     13  C   UNL     1     -19.256 -42.107  27.356  1.00  0.00     0.001 A 
ATOM     14  C   UNL     1     -20.233 -41.603  25.208  1.00  0.00     0.001 A 
ATOM     15  C   UNL     1     -20.362 -41.751  26.587  1.00  0.00     0.000 A 
ENDBRANCH   9  10
ENDBRANCH   4   9
ENDBRANCH   1   2
BRANCH   1  16
ATOM     16  C   UNL     1     -12.920 -46.187  28.803  1.00  0.00     0.061 C 
BRANCH  16  17
ATOM     17  C   UNL     1     -11.616 -45.920  29.474  1.00  0.00     0.091 A 
ATOM     18  C   UNL     1     -11.347 -45.043  30.557  1.00  0.00     0.045 A 
ATOM     19  N   UNL     1     -10.505 -46.552  29.061  1.00  0.00    -0.084 NA
ATOM     20  C   UNL     1     -12.086 -44.154  31.364  1.00  0.00     0.020 A 
ATOM     21  C   UNL     1      -9.982 -45.201  30.777  1.00  0.00     0.169 A 
ATOM     22  O   UNL     1      -9.487 -46.097  29.882  1.00  0.00    -0.356 OA
ATOM     23  C   UNL     1     -11.372 -43.480  32.349  1.00  0.00    -0.014 A 
ATOM     24  C   UNL     1      -9.243 -44.539  31.758  1.00  0.00     0.077 A 
ATOM     25  C   UNL     1     -11.866 -42.483  33.359  1.00  0.00     0.138 C 
ATOM     26  C   UNL     1     -10.001 -43.676  32.528  1.00  0.00     0.048 A 
ATOM     27  C   UNL     1     -10.587 -42.138  34.127  1.00  0.00     0.228 C 
ATOM     28  N   UNL     1      -9.552 -42.883  33.573  1.00  0.00    -0.325 N 
ATOM     29  O   UNL     1     -10.481 -41.354  35.054  1.00  0.00    -0.274 OA
ATOM     30  H   UNL     1      -8.606 -42.831  33.920  1.00  0.00     0.169 HD
ENDBRANCH  16  17
ENDBRANCH   1  16
TORSDOF 5
ENDMDL
MODEL 7
REMARK VINA RESULT:   -11.019      3.383     10.919
REMARK INTER + INTRA:         -14.818
REMARK INTER:                 -14.481
REMARK INTRA:                  -0.337
REMARK UNBOUND:                -0.578
REMARK SMILES O=C1Cc2cc3c(CC[C@H]4CC[N@H+](Cc5ccccc5)CC4)noc3cc2N1
REMARK SMILES IDX 9 1 10 2 12 3 13 4 11 5 21 6 22 7 14 9 15 10 16 11 20 12
REMARK SMILES IDX 17 13 19 14 18 15 8 16 7 17 6 18 23 19 5 20 25 21 24 22 4 23
REMARK SMILES IDX 26 24 3 25 27 26 2 27 28 28 1 29
REMARK H PARENT 13 8 28 30
ROOT
ATOM      1  C   UNL     1     -14.792 -43.082  25.556  1.00  0.00     0.010 C 
ENDROOT
BRANCH   1   2
ATOM      2  C   UNL     1     -16.271 -43.076  25.092  1.00  0.00     0.000 C 
ATOM      3  C   UNL     1     -18.658 -42.397  25.673  1.00  0.00     0.262 C 
ATOM      4  N   UNL     1     -18.712 -41.660  24.363  1.00  0.00    -0.331 N 
ATOM      5  C   UNL     1     -17.215 -42.478  26.148  1.00  0.00     0.065 C 
ATOM      6  C   UNL     1     -17.938 -42.388  23.293  1.00  0.00     0.262 C 
ATOM      7  C   UNL     1     -16.473 -42.453  23.704  1.00  0.00     0.065 C 
ATOM      8  H   UNL     1     -18.249 -40.749  24.498  1.00  0.00     0.348 HD
BRANCH   4   9
ATOM      9  C   UNL     1     -20.135 -41.349  23.955  1.00  0.00     0.299 C 
BRANCH   9  10
ATOM     10  C   UNL     1     -20.270 -40.977  22.504  1.00  0.00     0.006 A 
ATOM     11  C   UNL     1     -20.843 -41.873  21.588  1.00  0.00     0.009 A 
ATOM     12  C   UNL     1     -19.814 -39.732  22.042  1.00  0.00     0.009 A 
ATOM     13  C   UNL     1     -20.947 -41.534  20.238  1.00  0.00     0.001 A 
ATOM     14  C   UNL     1     -19.920 -39.398  20.691  1.00  0.00     0.001 A 
ATOM     15  C   UNL     1     -20.483 -40.299  19.791  1.00  0.00     0.000 A 
ENDBRANCH   9  10
ENDBRANCH   4   9
ENDBRANCH   1   2
BRANCH   1  16
ATOM     16  C   UNL     1     -14.196 -44.396  26.088  1.00  0.00     0.061 C 
BRANCH  16  17
ATOM     17  C   UNL     1     -14.085 -44.480  27.571  1.00  0.00     0.091 A 
ATOM     18  C   UNL     1     -13.007 -44.984  28.345  1.00  0.00     0.045 A 
ATOM     19  N   UNL     1     -15.088 -44.041  28.348  1.00  0.00    -0.084 NA
ATOM     20  C   UNL     1     -11.743 -45.556  28.092  1.00  0.00     0.020 A 
ATOM     21  C   UNL     1     -13.433 -44.806  29.657  1.00  0.00     0.169 A 
ATOM     22  O   UNL     1     -14.672 -44.247  29.652  1.00  0.00    -0.356 OA
ATOM     23  C   UNL     1     -10.995 -45.912  29.210  1.00  0.00    -0.014 A 
ATOM     24  C   UNL     1     -12.702 -45.152  30.795  1.00  0.00     0.077 A 
ATOM     25  C   UNL     1      -9.627 -46.530  29.273  1.00  0.00     0.138 C 
ATOM     26  C   UNL     1     -11.470 -45.711  30.507  1.00  0.00     0.048 A 
ATOM     27  C   UNL     1      -9.398 -46.657  30.782  1.00  0.00     0.228 C 
ATOM     28  N   UNL     1     -10.526 -46.153  31.420  1.00  0.00    -0.325 N 
ATOM     29  O   UNL     1      -8.415 -47.118  31.335  1.00  0.00    -0.274 OA
ATOM     30  H   UNL     1     -10.605 -46.122  32.426  1.00  0.00     0.169 HD
ENDBRANCH  16  17
ENDBRANCH   1  16
TORSDOF 5
ENDMDL
MODEL 8
REMARK VINA RESULT:   -10.966      3.603     10.169
REMARK INTER + INTRA:         -14.749
REMARK INTER:                 -14.821
REMARK INTRA:                   0.072
REMARK UNBOUND:                -0.578
REMARK SMILES O=C1Cc2cc3c(CC[C@H]4CC[N@H+](Cc5ccccc5)CC4)noc3cc2N1
REMARK SMILES IDX 9 1 10 2 12 3 13 4 11 5 21 6 22 7 14 9 15 10 16 11 20 12
REMARK SMILES IDX 17 13 19 14 18 15 8 16 7 17 6 18 23 19 5 20 25 21 24 22 4 23
REMARK SMILES IDX 26 24 3 25 27 26 2 27 28 28 1 29
REMARK H PARENT 13 8 28 30
ROOT
ATOM      1  C   UNL     1     -13.066 -45.945  28.781  1.00  0.00     0.010 C 
ENDROOT
BRANCH   1   2
ATOM      2  C   UNL     1     -13.576 -44.759  27.923  1.00  0.00     0.000 C 
ATOM      3  C   UNL     1     -14.195 -43.966  25.582  1.00  0.00     0.262 C 
ATOM      4  N   UNL     1     -15.537 -43.564  26.129  1.00  0.00    -0.331 N 
ATOM      5  C   UNL     1     -13.624 -45.096  26.424  1.00  0.00     0.065 C 
ATOM      6  C   UNL     1     -15.420 -43.045  27.539  1.00  0.00     0.262 C 
ATOM      7  C   UNL     1     -14.894 -44.160  28.433  1.00  0.00     0.065 C 
ATOM      8  H   UNL     1     -16.123 -44.411  26.170  1.00  0.00     0.348 HD
BRANCH   4   9
ATOM      9  C   UNL     1     -16.254 -42.606  25.204  1.00  0.00     0.299 C 
BRANCH   9  10
ATOM     10  C   UNL     1     -17.731 -42.516  25.467  1.00  0.00     0.006 A 
ATOM     11  C   UNL     1     -18.210 -42.184  26.745  1.00  0.00     0.009 A 
ATOM     12  C   UNL     1     -18.656 -42.776  24.442  1.00  0.00     0.009 A 
ATOM     13  C   UNL     1     -19.582 -42.123  26.992  1.00  0.00     0.001 A 
ATOM     14  C   UNL     1     -20.027 -42.715  24.695  1.00  0.00     0.001 A 
ATOM     15  C   UNL     1     -20.488 -42.391  25.968  1.00  0.00     0.000 A 
ENDBRANCH   9  10
ENDBRANCH   4   9
ENDBRANCH   1   2
BRANCH   1  16
ATOM     16  C   UNL     1     -13.507 -46.029  30.251  1.00  0.00     0.061 C 
BRANCH  16  17
ATOM     17  C   UNL     1     -13.086 -44.879  31.100  1.00  0.00     0.091 A 
ATOM     18  C   UNL     1     -11.780 -44.550  31.550  1.00  0.00     0.045 A 
ATOM     19  N   UNL     1     -13.997 -43.994  31.535  1.00  0.00    -0.084 NA
ATOM     20  C   UNL     1     -10.485 -45.090  31.420  1.00  0.00     0.020 A 
ATOM     21  C   UNL     1     -11.970 -43.385  32.287  1.00  0.00     0.169 A 
ATOM     22  O   UNL     1     -13.291 -43.061  32.276  1.00  0.00    -0.356 OA
ATOM     23  C   UNL     1      -9.462 -44.396  32.059  1.00  0.00    -0.014 A 
ATOM     24  C   UNL     1     -10.963 -42.669  32.935  1.00  0.00     0.077 A 
ATOM     25  C   UNL     1      -7.993 -44.709  32.104  1.00  0.00     0.138 C 
ATOM     26  C   UNL     1      -9.708 -43.230  32.786  1.00  0.00     0.048 A 
ATOM     27  C   UNL     1      -7.445 -43.564  32.961  1.00  0.00     0.228 C 
ATOM     28  N   UNL     1      -8.518 -42.751  33.311  1.00  0.00    -0.325 N 
ATOM     29  O   UNL     1      -6.284 -43.388  33.287  1.00  0.00    -0.274 OA
ATOM     30  H   UNL     1      -8.402 -41.921  33.872  1.00  0.00     0.169 HD
ENDBRANCH  16  17
ENDBRANCH   1  16
TORSDOF 5
ENDMDL
MODEL 9
REMARK VINA RESULT:   -10.704      3.581     10.914
REMARK INTER + INTRA:         -14.410
REMARK INTER:                 -14.147
REMARK INTRA:                  -0.263
REMARK UNBOUND:                -0.578
REMARK SMILES O=C1Cc2cc3c(CC[C@H]4CC[N@H+](Cc5ccccc5)CC4)noc3cc2N1
REMARK SMILES IDX 9 1 10 2 12 3 13 4 11 5 21 6 22 7 14 9 15 10 16 11 20 12
REMARK SMILES IDX 17 13 19 14 18 15 8 16 7 17 6 18 23 19 5 20 25 21 24 22 4 23
REMARK SMILES IDX 26 24 3 25 27 26 2 27 28 28 1 29
REMARK H PARENT 13 8 28 30
ROOT
ATOM      1  C   UNL     1     -14.643 -43.057  24.866  1.00  0.00     0.010 C 
ENDROOT
BRANCH   1   2
ATOM      2  C   UNL     1     -16.031 -42.467  24.509  1.00  0.00     0.000 C 
ATOM      3  C   UNL     1     -17.884 -42.350  22.763  1.00  0.00     0.262 C 
ATOM      4  N   UNL     1     -18.846 -42.794  23.830  1.00  0.00    -0.331 N 
ATOM      5  C   UNL     1     -16.490 -42.861  23.096  1.00  0.00     0.065 C 
ATOM      6  C   UNL     1     -18.476 -42.219  25.174  1.00  0.00     0.262 C 
ATOM      7  C   UNL     1     -17.103 -42.741  25.573  1.00  0.00     0.065 C 
ATOM      8  H   UNL     1     -18.769 -43.819  23.913  1.00  0.00     0.348 HD
BRANCH   4   9
ATOM      9  C   UNL     1     -20.280 -42.513  23.442  1.00  0.00     0.299 C 
BRANCH   9  10
ATOM     10  C   UNL     1     -20.420 -41.397  22.444  1.00  0.00     0.006 A 
ATOM     11  C   UNL     1     -20.363 -40.057  22.858  1.00  0.00     0.009 A 
ATOM     12  C   UNL     1     -20.623 -41.679  21.083  1.00  0.00     0.009 A 
ATOM     13  C   UNL     1     -20.516 -39.024  21.933  1.00  0.00     0.001 A 
ATOM     14  C   UNL     1     -20.776 -40.642  20.161  1.00  0.00     0.001 A 
ATOM     15  C   UNL     1     -20.724 -39.317  20.587  1.00  0.00     0.000 A 
ENDBRANCH   9  10
ENDBRANCH   4   9
ENDBRANCH   1   2
BRANCH   1  16
ATOM     16  C   UNL     1     -13.977 -42.621  26.182  1.00  0.00     0.061 C 
BRANCH  16  17
ATOM     17  C   UNL     1     -13.417 -43.732  27.001  1.00  0.00     0.091 A 
ATOM     18  C   UNL     1     -12.199 -43.760  27.730  1.00  0.00     0.045 A 
ATOM     19  N   UNL     1     -14.091 -44.888  27.118  1.00  0.00    -0.084 NA
ATOM     20  C   UNL     1     -11.124 -42.878  27.965  1.00  0.00     0.020 A 
ATOM     21  C   UNL     1     -12.191 -45.025  28.309  1.00  0.00     0.169 A 
ATOM     22  O   UNL     1     -13.318 -45.692  27.940  1.00  0.00    -0.356 OA
ATOM     23  C   UNL     1     -10.105 -43.355  28.782  1.00  0.00    -0.014 A 
ATOM     24  C   UNL     1     -11.184 -45.527  29.133  1.00  0.00     0.077 A 
ATOM     25  C   UNL     1      -8.844 -42.665  29.220  1.00  0.00     0.138 C 
ATOM     26  C   UNL     1     -10.148 -44.635  29.340  1.00  0.00     0.048 A 
ATOM     27  C   UNL     1      -8.178 -43.732  30.094  1.00  0.00     0.228 C 
ATOM     28  N   UNL     1      -9.012 -44.845  30.106  1.00  0.00    -0.325 N 
ATOM     29  O   UNL     1      -7.111 -43.637  30.675  1.00  0.00    -0.274 OA
ATOM     30  H   UNL     1      -8.787 -45.680  30.626  1.00  0.00     0.169 HD
ENDBRANCH  16  17
ENDBRANCH   1  16
TORSDOF 5
ENDMDL
