MODEL 1
REMARK VINA RESULT:   -11.579      0.000      0.000
REMARK INTER + INTRA:         -17.523
REMARK INTER:                 -16.318
REMARK INTRA:                  -1.205
REMARK UNBOUND:                -1.205
REMARK SMILES O=C(NCCCCN=c1c2c([nH]c3ccccc13)CCCC2)c1ccc(F)cc1
REMARK SMILES IDX 6 1 7 2 8 3 9 4 12 5 11 6 13 7 10 8 19 9 14 10 18 11 22 12
REMARK SMILES IDX 20 13 15 14 17 15 21 16 16 17 5 19 4 20 3 21 2 22 1 24 23 25
REMARK SMILES IDX 24 26 29 27 25 28 28 29 26 30 27 31
REMARK H PARENT 12 18 3 23
ROOT
ATOM      1  C   UNL     1     -11.348 -46.529  27.989  1.00  0.00     0.025 C 
ENDROOT
BRANCH   1   2
ATOM      2  C   UNL     1     -10.377 -45.569  28.683  1.00  0.00     0.143 C 
BRANCH   2   3
ATOM      3  N   UNL     1     -10.300 -45.951  30.079  1.00  0.00    -0.284 NA
BRANCH   3   4
ATOM      4  C   UNL     1     -10.478 -45.163  31.086  1.00  0.00     0.072 A 
ATOM      5  N   UNL     1     -10.477 -42.845  32.687  1.00  0.00    -0.358 N 
ATOM      6  C   UNL     1      -9.299 -43.540  32.503  1.00  0.00     0.021 A 
ATOM      7  C   UNL     1     -11.711 -43.454  32.411  1.00  0.00     0.048 A 
ATOM      8  C   UNL     1      -9.229 -44.673  31.776  1.00  0.00    -0.003 A 
ATOM      9  C   UNL     1      -8.065 -42.953  33.156  1.00  0.00     0.054 C 
ATOM     10  C   UNL     1     -12.896 -42.875  32.885  1.00  0.00     0.027 A 
ATOM     11  C   UNL     1     -11.769 -44.633  31.644  1.00  0.00     0.024 A 
ATOM     12  C   UNL     1      -7.962 -45.454  31.558  1.00  0.00     0.039 C 
ATOM     13  C   UNL     1      -6.750 -43.535  32.636  1.00  0.00     0.007 C 
ATOM     14  C   UNL     1     -14.123 -43.501  32.674  1.00  0.00     0.002 A 
ATOM     15  C   UNL     1     -13.000 -45.282  31.488  1.00  0.00     0.012 A 
ATOM     16  C   UNL     1      -6.837 -45.050  32.511  1.00  0.00     0.005 C 
ATOM     17  C   UNL     1     -14.172 -44.715  31.994  1.00  0.00     0.001 A 
ATOM     18  H   UNL     1     -10.472 -42.123  33.398  1.00  0.00     0.166 HD
ENDBRANCH   3   4
ENDBRANCH   2   3
ENDBRANCH   1   2
BRANCH   1  19
ATOM     19  C   UNL     1     -12.724 -45.916  27.725  1.00  0.00     0.023 C 
BRANCH  19  20
ATOM     20  C   UNL     1     -12.734 -44.392  27.824  1.00  0.00     0.116 C 
BRANCH  20  21
ATOM     21  N   UNL     1     -14.078 -43.861  27.691  1.00  0.00    -0.352 N 
ATOM     22  C   UNL     1     -14.511 -43.295  26.509  1.00  0.00     0.251 C 
ATOM     23  H   UNL     1     -14.761 -44.141  28.381  1.00  0.00     0.163 HD
ATOM     24  O   UNL     1     -13.800 -43.153  25.521  1.00  0.00    -0.269 OA
BRANCH  22  25
ATOM     25  C   UNL     1     -15.941 -42.880  26.461  1.00  0.00     0.040 A 
ATOM     26  C   UNL     1     -16.640 -42.758  25.250  1.00  0.00     0.017 A 
ATOM     27  C   UNL     1     -16.603 -42.633  27.674  1.00  0.00     0.017 A 
ATOM     28  C   UNL     1     -17.982 -42.369  25.257  1.00  0.00     0.040 A 
ATOM     29  C   UNL     1     -17.943 -42.245  27.675  1.00  0.00     0.040 A 
ATOM     30  C   UNL     1     -18.620 -42.113  26.467  1.00  0.00     0.123 A 
ATOM     31  F   UNL     1     -19.906 -41.742  26.468  1.00  0.00    -0.207 F 
ENDBRANCH  22  25
ENDBRANCH  20  21
ENDBRANCH  19  20
ENDBRANCH   1  19
TORSDOF 7
ENDMDL
MODEL 2
REMARK VINA RESULT:   -11.224      1.116      1.705
REMARK INTER + INTRA:         -17.022
REMARK INTER:                 -16.300
REMARK INTRA:                  -0.721
REMARK UNBOUND:                -1.205
REMARK SMILES O=C(NCCCCN=c1c2c([nH]c3ccccc13)CCCC2)c1ccc(F)cc1
REMARK SMILES IDX 6 1 7 2 8 3 9 4 12 5 11 6 13 7 10 8 19 9 14 10 18 11 22 12
REMARK SMILES IDX 20 13 15 14 17 15 21 16 16 17 5 19 4 20 3 21 2 22 1 24 23 25
REMARK SMILES IDX 24 26 29 27 25 28 28 29 26 30 27 31
REMARK H PARENT 12 18 3 23
ROOT
ATOM      1  C   UNL     1     -12.523 -45.793  28.032  1.00  0.00     0.025 C 
ENDROOT
BRANCH   1   2
ATOM      2  C   UNL     1     -13.220 -45.911  29.391  1.00  0.00     0.143 C 
BRANCH   2   3
ATOM      3  N   UNL     1     -12.203 -46.191  30.384  1.00  0.00    -0.284 NA
BRANCH   3   4
ATOM      4  C   UNL     1     -11.753 -45.353  31.258  1.00  0.00     0.072 A 
ATOM      5  N   UNL     1     -10.447 -43.127  32.388  1.00  0.00    -0.358 N 
ATOM      6  C   UNL     1      -9.697 -44.201  31.952  1.00  0.00     0.021 A 
ATOM      7  C   UNL     1     -11.824 -43.270  32.619  1.00  0.00     0.048 A 
ATOM      8  C   UNL     1     -10.254 -45.312  31.430  1.00  0.00    -0.003 A 
ATOM      9  C   UNL     1      -8.195 -44.065  32.078  1.00  0.00     0.054 C 
ATOM     10  C   UNL     1     -12.514 -42.291  33.346  1.00  0.00     0.027 A 
ATOM     11  C   UNL     1     -12.522 -44.380  32.106  1.00  0.00     0.024 A 
ATOM     12  C   UNL     1      -9.466 -46.498  30.946  1.00  0.00     0.039 C 
ATOM     13  C   UNL     1      -7.407 -45.095  31.266  1.00  0.00     0.007 C 
ATOM     14  C   UNL     1     -13.868 -42.449  33.637  1.00  0.00     0.002 A 
ATOM     15  C   UNL     1     -13.867 -44.556  32.454  1.00  0.00     0.012 A 
ATOM     16  C   UNL     1      -8.012 -46.484  31.417  1.00  0.00     0.005 C 
ATOM     17  C   UNL     1     -14.538 -43.591  33.209  1.00  0.00     0.001 A 
ATOM     18  H   UNL     1      -9.961 -42.428  32.937  1.00  0.00     0.166 HD
ENDBRANCH   3   4
ENDBRANCH   2   3
ENDBRANCH   1   2
BRANCH   1  19
ATOM     19  C   UNL     1     -13.425 -45.227  26.934  1.00  0.00     0.023 C 
BRANCH  19  20
ATOM     20  C   UNL     1     -13.475 -43.700  26.921  1.00  0.00     0.116 C 
BRANCH  20  21
ATOM     21  N   UNL     1     -14.839 -43.213  26.999  1.00  0.00    -0.352 N 
ATOM     22  C   UNL     1     -15.585 -42.982  25.860  1.00  0.00     0.251 C 
ATOM     23  H   UNL     1     -15.313 -43.293  27.888  1.00  0.00     0.163 HD
ATOM     24  O   UNL     1     -15.149 -43.116  24.723  1.00  0.00    -0.269 OA
BRANCH  22  25
ATOM     25  C   UNL     1     -17.004 -42.583  26.070  1.00  0.00     0.040 A 
ATOM     26  C   UNL     1     -17.546 -42.411  27.353  1.00  0.00     0.017 A 
ATOM     27  C   UNL     1     -17.803 -42.349  24.941  1.00  0.00     0.017 A 
ATOM     28  C   UNL     1     -18.883 -42.032  27.499  1.00  0.00     0.040 A 
ATOM     29  C   UNL     1     -19.138 -41.972  25.092  1.00  0.00     0.040 A 
ATOM     30  C   UNL     1     -19.667 -41.819  26.369  1.00  0.00     0.123 A 
ATOM     31  F   UNL     1     -20.947 -41.456  26.515  1.00  0.00    -0.207 F 
ENDBRANCH  22  25
ENDBRANCH  20  21
ENDBRANCH  19  20
ENDBRANCH   1  19
TORSDOF 7
ENDMDL
MODEL 3
REMARK VINA RESULT:   -11.183      1.610      2.013
REMARK INTER + INTRA:         -16.964
REMARK INTER:                 -16.155
REMARK INTRA:                  -0.809
REMARK UNBOUND:                -1.205
REMARK SMILES O=C(NCCCCN=c1c2c([nH]c3ccccc13)CCCC2)c1ccc(F)cc1
REMARK SMILES IDX 6 1 7 2 8 3 9 4 12 5 11 6 13 7 10 8 19 9 14 10 18 11 22 12
REMARK SMILES IDX 20 13 15 14 17 15 21 16 16 17 5 19 4 20 3 21 2 22 1 24 23 25
REMARK SMILES IDX 24 26 29 27 25 28 28 29 26 30 27 31
REMARK H PARENT 12 18 3 23
ROOT
ATOM      1  C   UNL     1     -11.797 -46.153  28.121  1.00  0.00     0.025 C 
ENDROOT
BRANCH   1   2
ATOM      2  C   UNL     1     -11.231 -46.165  29.544  1.00  0.00     0.143 C 
BRANCH   2   3
ATOM      3  N   UNL     1     -10.898 -44.800  29.898  1.00  0.00    -0.284 NA
BRANCH   3   4
ATOM      4  C   UNL     1     -10.931 -44.300  31.089  1.00  0.00     0.072 A 
ATOM      5  N   UNL     1     -10.582 -42.512  33.237  1.00  0.00    -0.358 N 
ATOM      6  C   UNL     1      -9.501 -43.238  32.780  1.00  0.00     0.021 A 
ATOM      7  C   UNL     1     -11.890 -42.906  32.915  1.00  0.00     0.048 A 
ATOM      8  C   UNL     1      -9.599 -44.133  31.777  1.00  0.00    -0.003 A 
ATOM      9  C   UNL     1      -8.175 -42.966  33.459  1.00  0.00     0.054 C 
ATOM     10  C   UNL     1     -12.974 -42.370  33.621  1.00  0.00     0.027 A 
ATOM     11  C   UNL     1     -12.121 -43.823  31.871  1.00  0.00     0.024 A 
ATOM     12  C   UNL     1      -8.441 -44.940  31.256  1.00  0.00     0.039 C 
ATOM     13  C   UNL     1      -6.964 -43.506  32.697  1.00  0.00     0.007 C 
ATOM     14  C   UNL     1     -14.274 -42.799  33.355  1.00  0.00     0.002 A 
ATOM     15  C   UNL     1     -13.424 -44.289  31.653  1.00  0.00     0.012 A 
ATOM     16  C   UNL     1      -7.227 -44.916  32.185  1.00  0.00     0.005 C 
ATOM     17  C   UNL     1     -14.495 -43.773  32.387  1.00  0.00     0.001 A 
ATOM     18  H   UNL     1     -10.457 -42.013  34.110  1.00  0.00     0.166 HD
ENDBRANCH   3   4
ENDBRANCH   2   3
ENDBRANCH   1   2
BRANCH   1  19
ATOM     19  C   UNL     1     -12.405 -44.808  27.720  1.00  0.00     0.023 C 
BRANCH  19  20
ATOM     20  C   UNL     1     -13.927 -44.773  27.845  1.00  0.00     0.116 C 
BRANCH  20  21
ATOM     21  N   UNL     1     -14.547 -44.256  26.639  1.00  0.00    -0.352 N 
ATOM     22  C   UNL     1     -15.403 -43.174  26.680  1.00  0.00     0.251 C 
ATOM     23  H   UNL     1     -14.146 -44.532  25.754  1.00  0.00     0.163 HD
ATOM     24  O   UNL     1     -15.739 -42.611  27.714  1.00  0.00    -0.269 OA
BRANCH  22  25
ATOM     25  C   UNL     1     -15.894 -42.672  25.366  1.00  0.00     0.040 A 
ATOM     26  C   UNL     1     -17.249 -42.728  25.008  1.00  0.00     0.017 A 
ATOM     27  C   UNL     1     -14.964 -42.102  24.482  1.00  0.00     0.017 A 
ATOM     28  C   UNL     1     -17.662 -42.239  23.766  1.00  0.00     0.040 A 
ATOM     29  C   UNL     1     -15.381 -41.617  23.243  1.00  0.00     0.040 A 
ATOM     30  C   UNL     1     -16.726 -41.693  22.894  1.00  0.00     0.123 A 
ATOM     31  F   UNL     1     -17.127 -41.226  21.706  1.00  0.00    -0.207 F 
ENDBRANCH  22  25
ENDBRANCH  20  21
ENDBRANCH  19  20
ENDBRANCH   1  19
TORSDOF 7
ENDMDL
MODEL 4
REMARK VINA RESULT:   -10.186      3.682     10.210
REMARK INTER + INTRA:         -15.559
REMARK INTER:                 -14.611
REMARK INTRA:                  -0.948
REMARK UNBOUND:                -1.205
REMARK SMILES O=C(NCCCCN=c1c2c([nH]c3ccccc13)CCCC2)c1ccc(F)cc1
REMARK SMILES IDX 6 1 7 2 8 3 9 4 12 5 11 6 13 7 10 8 19 9 14 10 18 11 22 12
REMARK SMILES IDX 20 13 15 14 17 15 21 16 16 17 5 19 4 20 3 21 2 22 1 24 23 25
REMARK SMILES IDX 24 26 29 27 25 28 28 29 26 30 27 31
REMARK H PARENT 12 18 3 23
ROOT
ATOM      1  C   UNL     1     -14.277 -43.152  24.415  1.00  0.00     0.025 C 
ENDROOT
BRANCH   1   2
ATOM      2  C   UNL     1     -15.686 -43.383  23.861  1.00  0.00     0.143 C 
BRANCH   2   3
ATOM      3  N   UNL     1     -16.432 -42.152  24.027  1.00  0.00    -0.284 NA
BRANCH   3   4
ATOM      4  C   UNL     1     -17.684 -42.066  24.334  1.00  0.00     0.072 A 
ATOM      5  N   UNL     1     -20.452 -42.589  24.402  1.00  0.00    -0.358 N 
ATOM      6  C   UNL     1     -19.917 -41.918  23.321  1.00  0.00     0.021 A 
ATOM      7  C   UNL     1     -19.734 -42.682  25.604  1.00  0.00     0.048 A 
ATOM      8  C   UNL     1     -18.608 -41.606  23.233  1.00  0.00    -0.003 A 
ATOM      9  C   UNL     1     -20.882 -41.555  22.212  1.00  0.00     0.054 C 
ATOM     10  C   UNL     1     -20.389 -43.079  26.778  1.00  0.00     0.027 A 
ATOM     11  C   UNL     1     -18.355 -42.400  25.636  1.00  0.00     0.024 A 
ATOM     12  C   UNL     1     -17.995 -40.877  22.070  1.00  0.00     0.039 C 
ATOM     13  C   UNL     1     -20.203 -41.152  20.903  1.00  0.00     0.007 C 
ATOM     14  C   UNL     1     -19.704 -43.117  27.992  1.00  0.00     0.002 A 
ATOM     15  C   UNL     1     -17.693 -42.385  26.870  1.00  0.00     0.012 A 
ATOM     16  C   UNL     1     -19.032 -40.214  21.163  1.00  0.00     0.005 C 
ATOM     17  C   UNL     1     -18.363 -42.750  28.040  1.00  0.00     0.001 A 
ATOM     18  H   UNL     1     -21.462 -42.606  24.470  1.00  0.00     0.166 HD
ENDBRANCH   3   4
ENDBRANCH   2   3
ENDBRANCH   1   2
BRANCH   1  19
ATOM     19  C   UNL     1     -14.243 -42.975  25.935  1.00  0.00     0.023 C 
BRANCH  19  20
ATOM     20  C   UNL     1     -14.544 -44.263  26.699  1.00  0.00     0.116 C 
BRANCH  20  21
ATOM     21  N   UNL     1     -13.393 -44.708  27.462  1.00  0.00    -0.352 N 
ATOM     22  C   UNL     1     -13.472 -44.910  28.826  1.00  0.00     0.251 C 
ATOM     23  H   UNL     1     -12.620 -45.110  26.950  1.00  0.00     0.163 HD
ATOM     24  O   UNL     1     -14.477 -44.686  29.490  1.00  0.00    -0.269 OA
BRANCH  22  25
ATOM     25  C   UNL     1     -12.256 -45.466  29.482  1.00  0.00     0.040 A 
ATOM     26  C   UNL     1     -12.135 -45.548  30.878  1.00  0.00     0.017 A 
ATOM     27  C   UNL     1     -11.219 -45.943  28.665  1.00  0.00     0.017 A 
ATOM     28  C   UNL     1     -10.976 -46.081  31.446  1.00  0.00     0.040 A 
ATOM     29  C   UNL     1     -10.063 -46.475  29.238  1.00  0.00     0.040 A 
ATOM     30  C   UNL     1      -9.950 -46.536  30.623  1.00  0.00     0.123 A 
ATOM     31  F   UNL     1      -8.843 -47.047  31.173  1.00  0.00    -0.207 F 
ENDBRANCH  22  25
ENDBRANCH  20  21
ENDBRANCH  19  20
ENDBRANCH   1  19
TORSDOF 7
ENDMDL
MODEL 5
REMARK VINA RESULT:   -10.114      1.732      4.061
REMARK INTER + INTRA:         -15.458
REMARK INTER:                 -14.880
REMARK INTRA:                  -0.579
REMARK UNBOUND:                -1.205
REMARK SMILES O=C(NCCCCN=c1c2c([nH]c3ccccc13)CCCC2)c1ccc(F)cc1
REMARK SMILES IDX 6 1 7 2 8 3 9 4 12 5 11 6 13 7 10 8 19 9 14 10 18 11 22 12
REMARK SMILES IDX 20 13 15 14 17 15 21 16 16 17 5 19 4 20 3 21 2 22 1 24 23 25
REMARK SMILES IDX 24 26 29 27 25 28 28 29 26 30 27 31
REMARK H PARENT 12 18 3 23
ROOT
ATOM      1  C   UNL     1     -12.714 -46.148  29.398  1.00  0.00     0.025 C 
ENDROOT
BRANCH   1   2
ATOM      2  C   UNL     1     -13.472 -45.178  30.309  1.00  0.00     0.143 C 
BRANCH   2   3
ATOM      3  N   UNL     1     -12.821 -45.189  31.604  1.00  0.00    -0.284 NA
BRANCH   3   4
ATOM      4  C   UNL     1     -12.232 -44.183  32.159  1.00  0.00     0.072 A 
ATOM      5  N   UNL     1     -11.286 -42.407  34.131  1.00  0.00    -0.358 N 
ATOM      6  C   UNL     1     -12.615 -42.362  33.762  1.00  0.00     0.021 A 
ATOM      7  C   UNL     1     -10.342 -43.039  33.307  1.00  0.00     0.048 A 
ATOM      8  C   UNL     1     -13.132 -43.159  32.806  1.00  0.00    -0.003 A 
ATOM      9  C   UNL     1     -13.484 -41.368  34.505  1.00  0.00     0.054 C 
ATOM     10  C   UNL     1      -8.974 -42.818  33.517  1.00  0.00     0.027 A 
ATOM     11  C   UNL     1     -10.759 -43.912  32.284  1.00  0.00     0.024 A 
ATOM     12  C   UNL     1     -14.574 -43.134  32.381  1.00  0.00     0.039 C 
ATOM     13  C   UNL     1     -14.985 -41.602  34.330  1.00  0.00     0.007 C 
ATOM     14  C   UNL     1      -8.027 -43.389  32.668  1.00  0.00     0.002 A 
ATOM     15  C   UNL     1      -9.803 -44.432  31.403  1.00  0.00     0.012 A 
ATOM     16  C   UNL     1     -15.323 -41.896  32.875  1.00  0.00     0.005 C 
ATOM     17  C   UNL     1      -8.443 -44.178  31.599  1.00  0.00     0.001 A 
ATOM     18  H   UNL     1     -10.950 -41.647  34.712  1.00  0.00     0.166 HD
ENDBRANCH   3   4
ENDBRANCH   2   3
ENDBRANCH   1   2
BRANCH   1  19
ATOM     19  C   UNL     1     -12.749 -45.748  27.922  1.00  0.00     0.023 C 
BRANCH  19  20
ATOM     20  C   UNL     1     -12.703 -44.237  27.705  1.00  0.00     0.116 C 
BRANCH  20  21
ATOM     21  N   UNL     1     -13.563 -43.832  26.609  1.00  0.00    -0.352 N 
ATOM     22  C   UNL     1     -14.831 -43.337  26.837  1.00  0.00     0.251 C 
ATOM     23  H   UNL     1     -13.130 -43.676  25.709  1.00  0.00     0.163 HD
ATOM     24  O   UNL     1     -15.338 -43.251  27.949  1.00  0.00    -0.269 OA
BRANCH  22  25
ATOM     25  C   UNL     1     -15.578 -42.858  25.641  1.00  0.00     0.040 A 
ATOM     26  C   UNL     1     -14.923 -42.467  24.463  1.00  0.00     0.017 A 
ATOM     27  C   UNL     1     -16.980 -42.828  25.700  1.00  0.00     0.017 A 
ATOM     28  C   UNL     1     -15.668 -42.028  23.366  1.00  0.00     0.040 A 
ATOM     29  C   UNL     1     -17.719 -42.388  24.601  1.00  0.00     0.040 A 
ATOM     30  C   UNL     1     -17.057 -41.989  23.445  1.00  0.00     0.123 A 
ATOM     31  F   UNL     1     -17.765 -41.569  22.390  1.00  0.00    -0.207 F 
ENDBRANCH  22  25
ENDBRANCH  20  21
ENDBRANCH  19  20
ENDBRANCH   1  19
TORSDOF 7
ENDMDL
MODEL 6
REMARK VINA RESULT:    -9.485      3.326      6.007
REMARK INTER + INTRA:         -14.572
REMARK INTER:                 -13.083
REMARK INTRA:                  -1.489
REMARK UNBOUND:                -1.205
REMARK SMILES O=C(NCCCCN=c1c2c([nH]c3ccccc13)CCCC2)c1ccc(F)cc1
REMARK SMILES IDX 6 1 7 2 8 3 9 4 12 5 11 6 13 7 10 8 19 9 14 10 18 11 22 12
REMARK SMILES IDX 20 13 15 14 17 15 21 16 16 17 5 19 4 20 3 21 2 22 1 24 23 25
REMARK SMILES IDX 24 26 29 27 25 28 28 29 26 30 27 31
REMARK H PARENT 12 18 3 23
ROOT
ATOM      1  C   UNL     1      -8.639 -42.423  33.698  1.00  0.00     0.025 C 
ENDROOT
BRANCH   1   2
ATOM      2  C   UNL     1     -10.060 -42.763  34.155  1.00  0.00     0.143 C 
BRANCH   2   3
ATOM      3  N   UNL     1     -10.969 -42.379  33.094  1.00  0.00    -0.284 NA
BRANCH   3   4
ATOM      4  C   UNL     1     -12.063 -42.990  32.780  1.00  0.00     0.072 A 
ATOM      5  N   UNL     1     -14.543 -43.559  31.571  1.00  0.00    -0.358 N 
ATOM      6  C   UNL     1     -14.488 -42.644  32.603  1.00  0.00     0.021 A 
ATOM      7  C   UNL     1     -13.488 -44.461  31.366  1.00  0.00     0.048 A 
ATOM      8  C   UNL     1     -13.343 -42.345  33.249  1.00  0.00    -0.003 A 
ATOM      9  C   UNL     1     -15.793 -41.972  32.974  1.00  0.00     0.054 C 
ATOM     10  C   UNL     1     -13.674 -45.575  30.536  1.00  0.00     0.027 A 
ATOM     11  C   UNL     1     -12.236 -44.244  31.972  1.00  0.00     0.024 A 
ATOM     12  C   UNL     1     -13.250 -41.354  34.377  1.00  0.00     0.039 C 
ATOM     13  C   UNL     1     -15.626 -40.730  33.849  1.00  0.00     0.007 C 
ATOM     14  C   UNL     1     -12.657 -46.513  30.372  1.00  0.00     0.002 A 
ATOM     15  C   UNL     1     -11.242 -45.223  31.847  1.00  0.00     0.012 A 
ATOM     16  C   UNL     1     -14.613 -40.978  34.959  1.00  0.00     0.005 C 
ATOM     17  C   UNL     1     -11.449 -46.348  31.044  1.00  0.00     0.001 A 
ATOM     18  H   UNL     1     -15.465 -43.860  31.281  1.00  0.00     0.166 HD
ENDBRANCH   3   4
ENDBRANCH   2   3
ENDBRANCH   1   2
BRANCH   1  19
ATOM     19  C   UNL     1      -7.941 -43.575  32.972  1.00  0.00     0.023 C 
BRANCH  19  20
ATOM     20  C   UNL     1      -7.663 -43.279  31.500  1.00  0.00     0.116 C 
BRANCH  20  21
ATOM     21  N   UNL     1      -8.848 -43.475  30.685  1.00  0.00    -0.352 N 
ATOM     22  C   UNL     1      -8.962 -42.900  29.436  1.00  0.00     0.251 C 
ATOM     23  H   UNL     1      -9.463 -44.237  30.934  1.00  0.00     0.163 HD
ATOM     24  O   UNL     1      -8.119 -42.156  28.949  1.00  0.00    -0.269 OA
BRANCH  22  25
ATOM     25  C   UNL     1     -10.178 -43.258  28.653  1.00  0.00     0.040 A 
ATOM     26  C   UNL     1     -11.005 -42.283  28.075  1.00  0.00     0.017 A 
ATOM     27  C   UNL     1     -10.477 -44.618  28.475  1.00  0.00     0.017 A 
ATOM     28  C   UNL     1     -12.132 -42.669  27.346  1.00  0.00     0.040 A 
ATOM     29  C   UNL     1     -11.605 -44.998  27.747  1.00  0.00     0.040 A 
ATOM     30  C   UNL     1     -12.424 -44.020  27.192  1.00  0.00     0.123 A 
ATOM     31  F   UNL     1     -13.506 -44.384  26.492  1.00  0.00    -0.207 F 
ENDBRANCH  22  25
ENDBRANCH  20  21
ENDBRANCH  19  20
ENDBRANCH   1  19
TORSDOF 7
ENDMDL
MODEL 7
REMARK VINA RESULT:    -9.450      4.461     11.416
REMARK INTER + INTRA:         -14.522
REMARK INTER:                 -14.052
REMARK INTRA:                  -0.470
REMARK UNBOUND:                -1.205
REMARK SMILES O=C(NCCCCN=c1c2c([nH]c3ccccc13)CCCC2)c1ccc(F)cc1
REMARK SMILES IDX 6 1 7 2 8 3 9 4 12 5 11 6 13 7 10 8 19 9 14 10 18 11 22 12
REMARK SMILES IDX 20 13 15 14 17 15 21 16 16 17 5 19 4 20 3 21 2 22 1 24 23 25
REMARK SMILES IDX 24 26 29 27 25 28 28 29 26 30 27 31
REMARK H PARENT 12 18 3 23
ROOT
ATOM      1  C   UNL     1     -16.125 -41.717  22.785  1.00  0.00     0.025 C 
ENDROOT
BRANCH   1   2
ATOM      2  C   UNL     1     -17.548 -42.284  22.815  1.00  0.00     0.143 C 
BRANCH   2   3
ATOM      3  N   UNL     1     -18.458 -41.209  22.478  1.00  0.00    -0.284 NA
BRANCH   3   4
ATOM      4  C   UNL     1     -19.579 -40.958  23.069  1.00  0.00     0.072 A 
ATOM      5  N   UNL     1     -22.320 -41.018  23.719  1.00  0.00    -0.358 N 
ATOM      6  C   UNL     1     -21.903 -40.308  22.611  1.00  0.00     0.021 A 
ATOM      7  C   UNL     1     -21.399 -41.389  24.711  1.00  0.00     0.048 A 
ATOM      8  C   UNL     1     -20.607 -40.209  22.256  1.00  0.00    -0.003 A 
ATOM      9  C   UNL     1     -22.990 -39.646  21.791  1.00  0.00     0.054 C 
ATOM     10  C   UNL     1     -21.859 -41.824  25.961  1.00  0.00     0.027 A 
ATOM     11  C   UNL     1     -20.016 -41.346  24.453  1.00  0.00     0.024 A 
ATOM     12  C   UNL     1     -20.121 -39.444  21.056  1.00  0.00     0.039 C 
ATOM     13  C   UNL     1     -22.534 -39.192  20.404  1.00  0.00     0.007 C 
ATOM     14  C   UNL     1     -20.957 -42.135  26.978  1.00  0.00     0.002 A 
ATOM     15  C   UNL     1     -19.121 -41.605  25.499  1.00  0.00     0.012 A 
ATOM     16  C   UNL     1     -21.178 -38.503  20.476  1.00  0.00     0.005 C 
ATOM     17  C   UNL     1     -19.590 -42.005  26.753  1.00  0.00     0.001 A 
ATOM     18  H   UNL     1     -23.278 -40.877  24.014  1.00  0.00     0.166 HD
ENDBRANCH   3   4
ENDBRANCH   2   3
ENDBRANCH   1   2
BRANCH   1  19
ATOM     19  C   UNL     1     -15.309 -42.057  24.033  1.00  0.00     0.023 C 
BRANCH  19  20
ATOM     20  C   UNL     1     -15.656 -43.421  24.627  1.00  0.00     0.116 C 
BRANCH  20  21
ATOM     21  N   UNL     1     -14.516 -44.009  25.306  1.00  0.00    -0.352 N 
ATOM     22  C   UNL     1     -14.226 -43.700  26.620  1.00  0.00     0.251 C 
ATOM     23  H   UNL     1     -14.099 -44.831  24.891  1.00  0.00     0.163 HD
ATOM     24  O   UNL     1     -14.859 -42.888  27.284  1.00  0.00    -0.269 OA
BRANCH  22  25
ATOM     25  C   UNL     1     -13.095 -44.445  27.239  1.00  0.00     0.040 A 
ATOM     26  C   UNL     1     -12.084 -43.795  27.964  1.00  0.00     0.017 A 
ATOM     27  C   UNL     1     -13.067 -45.842  27.106  1.00  0.00     0.017 A 
ATOM     28  C   UNL     1     -11.045 -44.539  28.529  1.00  0.00     0.040 A 
ATOM     29  C   UNL     1     -12.026 -46.580  27.673  1.00  0.00     0.040 A 
ATOM     30  C   UNL     1     -11.023 -45.921  28.376  1.00  0.00     0.123 A 
ATOM     31  F   UNL     1     -10.026 -46.628  28.921  1.00  0.00    -0.207 F 
ENDBRANCH  22  25
ENDBRANCH  20  21
ENDBRANCH  19  20
ENDBRANCH   1  19
TORSDOF 7
ENDMDL
MODEL 8
REMARK VINA RESULT:    -9.378      4.112     11.064
REMARK INTER + INTRA:         -14.420
REMARK INTER:                 -13.669
REMARK INTRA:                  -0.751
REMARK UNBOUND:                -1.205
REMARK SMILES O=C(NCCCCN=c1c2c([nH]c3ccccc13)CCCC2)c1ccc(F)cc1
REMARK SMILES IDX 6 1 7 2 8 3 9 4 12 5 11 6 13 7 10 8 19 9 14 10 18 11 22 12
REMARK SMILES IDX 20 13 15 14 17 15 21 16 16 17 5 19 4 20 3 21 2 22 1 24 23 25
REMARK SMILES IDX 24 26 29 27 25 28 28 29 26 30 27 31
REMARK H PARENT 12 18 3 23
ROOT
ATOM      1  C   UNL     1     -17.853 -42.441  26.887  1.00  0.00     0.025 C 
ENDROOT
BRANCH   1   2
ATOM      2  C   UNL     1     -17.503 -42.490  25.397  1.00  0.00     0.143 C 
BRANCH   2   3
ATOM      3  N   UNL     1     -18.603 -43.134  24.707  1.00  0.00    -0.284 NA
BRANCH   3   4
ATOM      4  C   UNL     1     -19.714 -42.568  24.369  1.00  0.00     0.072 A 
ATOM      5  N   UNL     1     -22.085 -41.053  24.518  1.00  0.00    -0.358 N 
ATOM      6  C   UNL     1     -22.049 -42.310  25.087  1.00  0.00     0.021 A 
ATOM      7  C   UNL     1     -21.120 -40.676  23.570  1.00  0.00     0.048 A 
ATOM      8  C   UNL     1     -20.961 -43.103  25.030  1.00  0.00    -0.003 A 
ATOM      9  C   UNL     1     -23.305 -42.756  25.805  1.00  0.00     0.054 C 
ATOM     10  C   UNL     1     -21.332 -39.543  22.773  1.00  0.00     0.027 A 
ATOM     11  C   UNL     1     -19.931 -41.416  23.429  1.00  0.00     0.024 A 
ATOM     12  C   UNL     1     -20.890 -44.476  25.640  1.00  0.00     0.039 C 
ATOM     13  C   UNL     1     -23.103 -43.969  26.715  1.00  0.00     0.007 C 
ATOM     14  C   UNL     1     -20.413 -39.192  21.785  1.00  0.00     0.002 A 
ATOM     15  C   UNL     1     -19.045 -41.088  22.396  1.00  0.00     0.012 A 
ATOM     16  C   UNL     1     -22.261 -45.033  26.025  1.00  0.00     0.005 C 
ATOM     17  C   UNL     1     -19.282 -39.976  21.583  1.00  0.00     0.001 A 
ATOM     18  H   UNL     1     -22.995 -40.615  24.443  1.00  0.00     0.166 HD
ENDBRANCH   3   4
ENDBRANCH   2   3
ENDBRANCH   1   2
BRANCH   1  19
ATOM     19  C   UNL     1     -16.649 -42.679  27.801  1.00  0.00     0.023 C 
BRANCH  19  20
ATOM     20  C   UNL     1     -15.438 -43.250  27.068  1.00  0.00     0.116 C 
BRANCH  20  21
ATOM     21  N   UNL     1     -14.513 -43.887  27.986  1.00  0.00    -0.352 N 
ATOM     22  C   UNL     1     -13.679 -44.906  27.573  1.00  0.00     0.251 C 
ATOM     23  H   UNL     1     -14.309 -43.405  28.851  1.00  0.00     0.163 HD
ATOM     24  O   UNL     1     -13.689 -45.377  26.443  1.00  0.00    -0.269 OA
BRANCH  22  25
ATOM     25  C   UNL     1     -12.702 -45.408  28.579  1.00  0.00     0.040 A 
ATOM     26  C   UNL     1     -11.450 -45.923  28.208  1.00  0.00     0.017 A 
ATOM     27  C   UNL     1     -13.047 -45.332  29.937  1.00  0.00     0.017 A 
ATOM     28  C   UNL     1     -10.566 -46.378  29.189  1.00  0.00     0.040 A 
ATOM     29  C   UNL     1     -12.160 -45.788  30.913  1.00  0.00     0.040 A 
ATOM     30  C   UNL     1     -10.929 -46.310  30.530  1.00  0.00     0.123 A 
ATOM     31  F   UNL     1     -10.077 -46.747  31.466  1.00  0.00    -0.207 F 
ENDBRANCH  22  25
ENDBRANCH  20  21
ENDBRANCH  19  20
ENDBRANCH   1  19
TORSDOF 7
ENDMDL
MODEL 9
REMARK VINA RESULT:    -9.337      4.760     11.694
REMARK INTER + INTRA:         -14.364
REMARK INTER:                 -14.009
REMARK INTRA:                  -0.355
REMARK UNBOUND:                -1.205
REMARK SMILES O=C(NCCCCN=c1c2c([nH]c3ccccc13)CCCC2)c1ccc(F)cc1
REMARK SMILES IDX 6 1 7 2 8 3 9 4 12 5 11 6 13 7 10 8 19 9 14 10 18 11 22 12
REMARK SMILES IDX 20 13 15 14 17 15 21 16 16 17 5 19 4 20 3 21 2 22 1 24 23 25
REMARK SMILES IDX 24 26 29 27 25 28 28 29 26 30 27 31
REMARK H PARENT 12 18 3 23
ROOT
ATOM      1  C   UNL     1     -17.500 -42.127  24.232  1.00  0.00     0.025 C 
ENDROOT
BRANCH   1   2
ATOM      2  C   UNL     1     -17.966 -41.633  22.859  1.00  0.00     0.143 C 
BRANCH   2   3
ATOM      3  N   UNL     1     -19.396 -41.847  22.776  1.00  0.00    -0.284 NA
BRANCH   3   4
ATOM      4  C   UNL     1     -20.306 -41.001  23.128  1.00  0.00     0.072 A 
ATOM      5  N   UNL     1     -22.797 -39.702  23.337  1.00  0.00    -0.358 N 
ATOM      6  C   UNL     1     -22.035 -39.523  22.201  1.00  0.00     0.021 A 
ATOM      7  C   UNL     1     -22.213 -40.199  24.513  1.00  0.00     0.048 A 
ATOM      8  C   UNL     1     -20.821 -40.087  22.044  1.00  0.00    -0.003 A 
ATOM      9  C   UNL     1     -22.642 -38.659  21.116  1.00  0.00     0.054 C 
ATOM     10  C   UNL     1     -22.896 -40.088  25.732  1.00  0.00     0.027 A 
ATOM     11  C   UNL     1     -20.954 -40.829  24.472  1.00  0.00     0.024 A 
ATOM     12  C   UNL     1     -19.966 -39.911  20.819  1.00  0.00     0.039 C 
ATOM     13  C   UNL     1     -21.946 -38.784  19.760  1.00  0.00     0.007 C 
ATOM     14  C   UNL     1     -22.302 -40.520  26.917  1.00  0.00     0.002 A 
ATOM     15  C   UNL     1     -20.345 -41.206  25.676  1.00  0.00     0.012 A 
ATOM     16  C   UNL     1     -20.432 -38.764  19.922  1.00  0.00     0.005 C 
ATOM     17  C   UNL     1     -21.019 -41.059  26.891  1.00  0.00     0.001 A 
ATOM     18  H   UNL     1     -23.598 -39.091  23.448  1.00  0.00     0.166 HD
ENDBRANCH   3   4
ENDBRANCH   2   3
ENDBRANCH   1   2
BRANCH   1  19
ATOM     19  C   UNL     1     -16.402 -43.190  24.156  1.00  0.00     0.023 C 
BRANCH  19  20
ATOM     20  C   UNL     1     -14.992 -42.602  24.174  1.00  0.00     0.116 C 
BRANCH  20  21
ATOM     21  N   UNL     1     -14.091 -43.410  24.974  1.00  0.00    -0.352 N 
ATOM     22  C   UNL     1     -14.022 -43.264  26.345  1.00  0.00     0.251 C 
ATOM     23  H   UNL     1     -13.712 -44.246  24.550  1.00  0.00     0.163 HD
ATOM     24  O   UNL     1     -14.661 -42.428  26.973  1.00  0.00    -0.269 OA
BRANCH  22  25
ATOM     25  C   UNL     1     -13.138 -44.220  27.067  1.00  0.00     0.040 A 
ATOM     26  C   UNL     1     -13.308 -45.610  26.969  1.00  0.00     0.017 A 
ATOM     27  C   UNL     1     -12.090 -43.701  27.843  1.00  0.00     0.017 A 
ATOM     28  C   UNL     1     -12.449 -46.466  27.663  1.00  0.00     0.040 A 
ATOM     29  C   UNL     1     -11.236 -44.561  28.534  1.00  0.00     0.040 A 
ATOM     30  C   UNL     1     -11.425 -45.936  28.441  1.00  0.00     0.123 A 
ATOM     31  F   UNL     1     -10.605 -46.761  29.102  1.00  0.00    -0.207 F 
ENDBRANCH  22  25
ENDBRANCH  20  21
ENDBRANCH  19  20
ENDBRANCH   1  19
TORSDOF 7
ENDMDL
