MODEL 1
REMARK VINA RESULT:   -13.429      0.000      0.000
REMARK INTER + INTRA:         -17.456
REMARK INTER:                 -16.569
REMARK INTRA:                  -0.887
REMARK UNBOUND:                -0.887
REMARK SMILES Cc1cccc(C(=O)N2Cc3cc(NC(=O)c4cccc(Cl)c4)ccc3CC2=O)c1
REMARK SMILES IDX 9 1 10 2 11 3 12 4 13 5 24 6 25 7 26 8 27 9 28 10 29 11 7 12
REMARK SMILES IDX 8 13 6 14 2 15 3 16 30 17 4 18 5 19 1 20 14 21 15 22 16 24
REMARK SMILES IDX 17 25 18 26 23 27 19 28 21 29 20 30 22 31
REMARK H PARENT 14 23
ROOT
ATOM      1  N   UNL     1      -9.799 -44.393  29.983  1.00  0.00    -0.274 N 
ATOM      2  C   UNL     1     -10.360 -43.722  28.823  1.00  0.00     0.164 C 
ATOM      3  C   UNL     1     -11.452 -44.534  28.187  1.00  0.00    -0.022 A 
ATOM      4  C   UNL     1     -12.579 -43.939  27.605  1.00  0.00     0.032 A 
ATOM      5  C   UNL     1     -13.561 -44.723  26.984  1.00  0.00     0.041 A 
ATOM      6  C   UNL     1     -13.394 -46.108  26.947  1.00  0.00     0.026 A 
ATOM      7  C   UNL     1     -12.263 -46.704  27.513  1.00  0.00     0.007 A 
ATOM      8  C   UNL     1     -11.293 -45.921  28.141  1.00  0.00    -0.033 A 
ATOM      9  C   UNL     1     -10.045 -46.528  28.721  1.00  0.00     0.136 C 
ATOM     10  C   UNL     1      -9.391 -45.719  29.835  1.00  0.00     0.234 C 
ATOM     11  O   UNL     1      -8.543 -46.260  30.547  1.00  0.00    -0.274 OA
ENDROOT
BRANCH   1  12
ATOM     12  C   UNL     1      -9.165 -43.549  30.898  1.00  0.00     0.260 C 
ATOM     13  O   UNL     1      -8.024 -43.120  30.722  1.00  0.00    -0.269 OA
BRANCH  12  14
ATOM     14  C   UNL     1      -9.906 -43.126  32.120  1.00  0.00     0.040 A 
ATOM     15  C   UNL     1     -11.977 -42.591  33.282  1.00  0.00    -0.050 A 
ATOM     16  C   UNL     1     -11.231 -42.221  34.408  1.00  0.00     0.003 A 
ATOM     17  C   UNL     1     -11.305 -43.025  32.129  1.00  0.00     0.017 A 
ATOM     18  C   UNL     1      -9.837 -42.301  34.395  1.00  0.00     0.001 A 
ATOM     19  C   UNL     1      -9.175 -42.749  33.252  1.00  0.00     0.014 A 
ATOM     20  C   UNL     1     -13.472 -42.466  33.286  1.00  0.00     0.044 C 
ENDBRANCH  12  14
ENDBRANCH   1  12
BRANCH   5  21
ATOM     21  N   UNL     1     -14.672 -44.047  26.435  1.00  0.00    -0.322 N 
ATOM     22  C   UNL     1     -14.900 -43.756  25.101  1.00  0.00     0.255 C 
ATOM     23  H   UNL     1     -15.337 -43.683  27.105  1.00  0.00     0.170 HD
ATOM     24  O   UNL     1     -14.145 -43.970  24.161  1.00  0.00    -0.269 OA
BRANCH  22  25
ATOM     25  C   UNL     1     -16.194 -43.073  24.819  1.00  0.00     0.041 A 
ATOM     26  C   UNL     1     -16.516 -42.777  23.488  1.00  0.00     0.014 A 
ATOM     27  C   UNL     1     -17.096 -42.757  25.842  1.00  0.00     0.034 A 
ATOM     28  C   UNL     1     -17.720 -42.140  23.180  1.00  0.00     0.002 A 
ATOM     29  C   UNL     1     -18.296 -42.122  25.524  1.00  0.00     0.041 A 
ATOM     30  C   UNL     1     -18.610 -41.807  24.202  1.00  0.00     0.020 A 
ATOM     31  Cl  UNL     1     -19.404 -41.725  26.779  1.00  0.00    -0.084 Cl
ENDBRANCH  22  25
ENDBRANCH   5  21
TORSDOF 4
ENDMDL
MODEL 2
REMARK VINA RESULT:   -11.735      3.119      9.094
REMARK INTER + INTRA:         -15.366
REMARK INTER:                 -15.085
REMARK INTRA:                  -0.281
REMARK UNBOUND:                -0.887
REMARK SMILES Cc1cccc(C(=O)N2Cc3cc(NC(=O)c4cccc(Cl)c4)ccc3CC2=O)c1
REMARK SMILES IDX 9 1 10 2 11 3 12 4 13 5 24 6 25 7 26 8 27 9 28 10 29 11 7 12
REMARK SMILES IDX 8 13 6 14 2 15 3 16 30 17 4 18 5 19 1 20 14 21 15 22 16 24
REMARK SMILES IDX 17 25 18 26 23 27 19 28 21 29 20 30 22 31
REMARK H PARENT 14 23
ROOT
ATOM      1  N   UNL     1     -14.292 -43.726  25.327  1.00  0.00    -0.274 N 
ATOM      2  C   UNL     1     -14.285 -43.540  26.768  1.00  0.00     0.164 C 
ATOM      3  C   UNL     1     -13.211 -44.358  27.427  1.00  0.00    -0.022 A 
ATOM      4  C   UNL     1     -12.508 -43.898  28.549  1.00  0.00     0.032 A 
ATOM      5  C   UNL     1     -11.539 -44.701  29.165  1.00  0.00     0.041 A 
ATOM      6  C   UNL     1     -11.291 -45.973  28.648  1.00  0.00     0.026 A 
ATOM      7  C   UNL     1     -12.000 -46.442  27.538  1.00  0.00     0.007 A 
ATOM      8  C   UNL     1     -12.956 -45.633  26.920  1.00  0.00    -0.033 A 
ATOM      9  C   UNL     1     -13.767 -46.125  25.752  1.00  0.00     0.136 C 
ATOM     10  C   UNL     1     -14.311 -45.033  24.839  1.00  0.00     0.234 C 
ATOM     11  O   UNL     1     -14.739 -45.344  23.726  1.00  0.00    -0.274 OA
ENDROOT
BRANCH   1  12
ATOM     12  C   UNL     1     -14.882 -42.685  24.605  1.00  0.00     0.260 C 
ATOM     13  O   UNL     1     -14.228 -41.916  23.900  1.00  0.00    -0.269 OA
BRANCH  12  14
ATOM     14  C   UNL     1     -16.361 -42.517  24.665  1.00  0.00     0.040 A 
ATOM     15  C   UNL     1     -18.436 -42.309  25.920  1.00  0.00    -0.050 A 
ATOM     16  C   UNL     1     -19.148 -42.315  24.714  1.00  0.00     0.003 A 
ATOM     17  C   UNL     1     -17.039 -42.432  25.890  1.00  0.00     0.017 A 
ATOM     18  C   UNL     1     -18.477 -42.421  23.494  1.00  0.00     0.001 A 
ATOM     19  C   UNL     1     -17.087 -42.526  23.469  1.00  0.00     0.014 A 
ATOM     20  C   UNL     1     -19.162 -42.235  27.231  1.00  0.00     0.044 C 
ENDBRANCH  12  14
ENDBRANCH   1  12
BRANCH   5  21
ATOM     21  N   UNL     1     -10.867 -44.158  30.281  1.00  0.00    -0.322 N 
ATOM     22  C   UNL     1     -11.437 -43.577  31.401  1.00  0.00     0.255 C 
ATOM     23  H   UNL     1      -9.858 -44.137  30.216  1.00  0.00     0.170 HD
ATOM     24  O   UNL     1     -12.627 -43.366  31.596  1.00  0.00    -0.269 OA
BRANCH  22  25
ATOM     25  C   UNL     1     -10.466 -43.138  32.443  1.00  0.00     0.041 A 
ATOM     26  C   UNL     1     -10.954 -42.437  33.555  1.00  0.00     0.014 A 
ATOM     27  C   UNL     1      -9.102 -43.435  32.349  1.00  0.00     0.034 A 
ATOM     28  C   UNL     1     -10.079 -42.010  34.555  1.00  0.00     0.002 A 
ATOM     29  C   UNL     1      -8.237 -43.004  33.354  1.00  0.00     0.041 A 
ATOM     30  C   UNL     1      -8.716 -42.290  34.452  1.00  0.00     0.020 A 
ATOM     31  Cl  UNL     1      -6.558 -43.362  33.238  1.00  0.00    -0.084 Cl
ENDBRANCH  22  25
ENDBRANCH   5  21
TORSDOF 4
ENDMDL
MODEL 3
REMARK VINA RESULT:   -11.383      2.702      9.129
REMARK INTER + INTRA:         -14.932
REMARK INTER:                 -14.718
REMARK INTRA:                  -0.213
REMARK UNBOUND:                -0.887
REMARK SMILES Cc1cccc(C(=O)N2Cc3cc(NC(=O)c4cccc(Cl)c4)ccc3CC2=O)c1
REMARK SMILES IDX 9 1 10 2 11 3 12 4 13 5 24 6 25 7 26 8 27 9 28 10 29 11 7 12
REMARK SMILES IDX 8 13 6 14 2 15 3 16 30 17 4 18 5 19 1 20 14 21 15 22 16 24
REMARK SMILES IDX 17 25 18 26 23 27 19 28 21 29 20 30 22 31
REMARK H PARENT 14 23
ROOT
ATOM      1  N   UNL     1     -14.344 -43.697  25.206  1.00  0.00    -0.274 N 
ATOM      2  C   UNL     1     -14.289 -43.527  26.649  1.00  0.00     0.164 C 
ATOM      3  C   UNL     1     -13.222 -44.385  27.267  1.00  0.00    -0.022 A 
ATOM      4  C   UNL     1     -12.473 -43.959  28.372  1.00  0.00     0.032 A 
ATOM      5  C   UNL     1     -11.512 -44.798  28.952  1.00  0.00     0.041 A 
ATOM      6  C   UNL     1     -11.318 -46.072  28.414  1.00  0.00     0.026 A 
ATOM      7  C   UNL     1     -12.075 -46.506  27.322  1.00  0.00     0.007 A 
ATOM      8  C   UNL     1     -13.022 -45.662  26.740  1.00  0.00    -0.033 A 
ATOM      9  C   UNL     1     -13.882 -46.116  25.592  1.00  0.00     0.136 C 
ATOM     10  C   UNL     1     -14.419 -44.998  24.706  1.00  0.00     0.234 C 
ATOM     11  O   UNL     1     -14.889 -45.284  23.604  1.00  0.00    -0.274 OA
ENDROOT
BRANCH   1  12
ATOM     12  C   UNL     1     -14.922 -42.632  24.512  1.00  0.00     0.260 C 
ATOM     13  O   UNL     1     -14.257 -41.840  23.843  1.00  0.00    -0.269 OA
BRANCH  12  14
ATOM     14  C   UNL     1     -16.402 -42.463  24.558  1.00  0.00     0.040 A 
ATOM     15  C   UNL     1     -18.494 -42.298  25.790  1.00  0.00    -0.050 A 
ATOM     16  C   UNL     1     -19.189 -42.256  24.575  1.00  0.00     0.003 A 
ATOM     17  C   UNL     1     -17.097 -42.422  25.775  1.00  0.00     0.017 A 
ATOM     18  C   UNL     1     -18.501 -42.317  23.361  1.00  0.00     0.001 A 
ATOM     19  C   UNL     1     -17.111 -42.425  23.352  1.00  0.00     0.014 A 
ATOM     20  C   UNL     1     -19.239 -42.272  27.092  1.00  0.00     0.044 C 
ENDBRANCH  12  14
ENDBRANCH   1  12
BRANCH   5  21
ATOM     21  N   UNL     1     -10.790 -44.288  30.052  1.00  0.00    -0.322 N 
ATOM     22  C   UNL     1     -10.317 -44.995  31.144  1.00  0.00     0.255 C 
ATOM     23  H   UNL     1     -10.666 -43.284  30.065  1.00  0.00     0.170 HD
ATOM     24  O   UNL     1     -10.500 -46.181  31.389  1.00  0.00    -0.269 OA
BRANCH  22  25
ATOM     25  C   UNL     1      -9.541 -44.187  32.127  1.00  0.00     0.041 A 
ATOM     26  C   UNL     1      -8.142 -44.264  32.096  1.00  0.00     0.014 A 
ATOM     27  C   UNL     1     -10.173 -43.341  33.045  1.00  0.00     0.034 A 
ATOM     28  C   UNL     1      -7.378 -43.521  32.997  1.00  0.00     0.002 A 
ATOM     29  C   UNL     1      -9.400 -42.603  33.941  1.00  0.00     0.041 A 
ATOM     30  C   UNL     1      -8.009 -42.693  33.926  1.00  0.00     0.020 A 
ATOM     31  Cl  UNL     1     -10.175 -41.568  35.076  1.00  0.00    -0.084 Cl
ENDBRANCH  22  25
ENDBRANCH   5  21
TORSDOF 4
ENDMDL
MODEL 4
REMARK VINA RESULT:   -11.272      4.305     10.534
REMARK INTER + INTRA:         -14.796
REMARK INTER:                 -14.095
REMARK INTRA:                  -0.700
REMARK UNBOUND:                -0.887
REMARK SMILES Cc1cccc(C(=O)N2Cc3cc(NC(=O)c4cccc(Cl)c4)ccc3CC2=O)c1
REMARK SMILES IDX 9 1 10 2 11 3 12 4 13 5 24 6 25 7 26 8 27 9 28 10 29 11 7 12
REMARK SMILES IDX 8 13 6 14 2 15 3 16 30 17 4 18 5 19 1 20 14 21 15 22 16 24
REMARK SMILES IDX 17 25 18 26 23 27 19 28 21 29 20 30 22 31
REMARK H PARENT 14 23
ROOT
ATOM      1  N   UNL     1     -19.856 -41.353  22.972  1.00  0.00    -0.274 N 
ATOM      2  C   UNL     1     -19.122 -42.580  23.235  1.00  0.00     0.164 C 
ATOM      3  C   UNL     1     -17.662 -42.314  23.466  1.00  0.00    -0.022 A 
ATOM      4  C   UNL     1     -16.905 -43.057  24.382  1.00  0.00     0.032 A 
ATOM      5  C   UNL     1     -15.535 -42.811  24.545  1.00  0.00     0.041 A 
ATOM      6  C   UNL     1     -14.933 -41.817  23.773  1.00  0.00     0.026 A 
ATOM      7  C   UNL     1     -15.681 -41.084  22.847  1.00  0.00     0.007 A 
ATOM      8  C   UNL     1     -17.048 -41.324  22.696  1.00  0.00    -0.033 A 
ATOM      9  C   UNL     1     -17.870 -40.582  21.678  1.00  0.00     0.136 C 
ATOM     10  C   UNL     1     -19.359 -40.495  21.990  1.00  0.00     0.234 C 
ATOM     11  O   UNL     1     -20.052 -39.685  21.373  1.00  0.00    -0.274 OA
ENDROOT
BRANCH   1  12
ATOM     12  C   UNL     1     -21.226 -41.423  23.233  1.00  0.00     0.260 C 
ATOM     13  O   UNL     1     -22.037 -41.839  22.405  1.00  0.00    -0.269 OA
BRANCH  12  14
ATOM     14  C   UNL     1     -21.724 -41.006  24.574  1.00  0.00     0.040 A 
ATOM     15  C   UNL     1     -23.321 -39.833  25.988  1.00  0.00    -0.050 A 
ATOM     16  C   UNL     1     -22.546 -40.161  27.108  1.00  0.00     0.003 A 
ATOM     17  C   UNL     1     -22.892 -40.243  24.717  1.00  0.00     0.017 A 
ATOM     18  C   UNL     1     -21.371 -40.903  26.967  1.00  0.00     0.001 A 
ATOM     19  C   UNL     1     -20.959 -41.321  25.702  1.00  0.00     0.014 A 
ATOM     20  C   UNL     1     -24.560 -39.002  26.139  1.00  0.00     0.044 C 
ENDBRANCH  12  14
ENDBRANCH   1  12
BRANCH   5  21
ATOM     21  N   UNL     1     -14.850 -43.594  25.499  1.00  0.00    -0.322 N 
ATOM     22  C   UNL     1     -14.954 -43.516  26.876  1.00  0.00     0.255 C 
ATOM     23  H   UNL     1     -14.163 -44.235  25.125  1.00  0.00     0.170 HD
ATOM     24  O   UNL     1     -15.607 -42.705  27.522  1.00  0.00    -0.269 OA
BRANCH  22  25
ATOM     25  C   UNL     1     -14.139 -44.513  27.626  1.00  0.00     0.041 A 
ATOM     26  C   UNL     1     -13.336 -45.401  26.897  1.00  0.00     0.014 A 
ATOM     27  C   UNL     1     -14.137 -44.558  29.024  1.00  0.00     0.034 A 
ATOM     28  C   UNL     1     -12.555 -46.349  27.561  1.00  0.00     0.002 A 
ATOM     29  C   UNL     1     -13.353 -45.509  29.678  1.00  0.00     0.041 A 
ATOM     30  C   UNL     1     -12.568 -46.407  28.954  1.00  0.00     0.020 A 
ATOM     31  Cl  UNL     1     -13.353 -45.572  31.397  1.00  0.00    -0.084 Cl
ENDBRANCH  22  25
ENDBRANCH   5  21
TORSDOF 4
ENDMDL
MODEL 5
REMARK VINA RESULT:   -10.897      3.988      9.920
REMARK INTER + INTRA:         -14.333
REMARK INTER:                 -13.715
REMARK INTRA:                  -0.618
REMARK UNBOUND:                -0.887
REMARK SMILES Cc1cccc(C(=O)N2Cc3cc(NC(=O)c4cccc(Cl)c4)ccc3CC2=O)c1
REMARK SMILES IDX 9 1 10 2 11 3 12 4 13 5 24 6 25 7 26 8 27 9 28 10 29 11 7 12
REMARK SMILES IDX 8 13 6 14 2 15 3 16 30 17 4 18 5 19 1 20 14 21 15 22 16 24
REMARK SMILES IDX 17 25 18 26 23 27 19 28 21 29 20 30 22 31
REMARK H PARENT 14 23
ROOT
ATOM      1  N   UNL     1     -19.092 -42.085  25.899  1.00  0.00    -0.274 N 
ATOM      2  C   UNL     1     -18.111 -43.009  26.443  1.00  0.00     0.164 C 
ATOM      3  C   UNL     1     -16.740 -42.752  25.886  1.00  0.00    -0.022 A 
ATOM      4  C   UNL     1     -15.581 -42.915  26.657  1.00  0.00     0.032 A 
ATOM      5  C   UNL     1     -14.313 -42.706  26.098  1.00  0.00     0.041 A 
ATOM      6  C   UNL     1     -14.223 -42.339  24.754  1.00  0.00     0.026 A 
ATOM      7  C   UNL     1     -15.375 -42.190  23.978  1.00  0.00     0.007 A 
ATOM      8  C   UNL     1     -16.637 -42.387  24.542  1.00  0.00    -0.033 A 
ATOM      9  C   UNL     1     -17.893 -42.277  23.722  1.00  0.00     0.136 C 
ATOM     10  C   UNL     1     -19.152 -41.940  24.512  1.00  0.00     0.234 C 
ATOM     11  O   UNL     1     -20.154 -41.560  23.904  1.00  0.00    -0.274 OA
ENDROOT
BRANCH   1  12
ATOM     12  C   UNL     1     -20.235 -41.914  26.684  1.00  0.00     0.260 C 
ATOM     13  O   UNL     1     -20.519 -40.839  27.213  1.00  0.00    -0.269 OA
BRANCH  12  14
ATOM     14  C   UNL     1     -21.161 -43.067  26.865  1.00  0.00     0.040 A 
ATOM     15  C   UNL     1     -23.164 -44.311  26.261  1.00  0.00    -0.050 A 
ATOM     16  C   UNL     1     -22.922 -45.187  27.326  1.00  0.00     0.003 A 
ATOM     17  C   UNL     1     -22.288 -43.236  26.048  1.00  0.00     0.017 A 
ATOM     18  C   UNL     1     -21.813 -45.009  28.155  1.00  0.00     0.001 A 
ATOM     19  C   UNL     1     -20.936 -43.949  27.928  1.00  0.00     0.014 A 
ATOM     20  C   UNL     1     -24.378 -44.482  25.397  1.00  0.00     0.044 C 
ENDBRANCH  12  14
ENDBRANCH   1  12
BRANCH   5  21
ATOM     21  N   UNL     1     -13.199 -42.878  26.946  1.00  0.00    -0.322 N 
ATOM     22  C   UNL     1     -12.743 -44.061  27.500  1.00  0.00     0.255 C 
ATOM     23  H   UNL     1     -12.727 -42.028  27.225  1.00  0.00     0.170 HD
ATOM     24  O   UNL     1     -13.265 -45.166  27.412  1.00  0.00    -0.269 OA
BRANCH  22  25
ATOM     25  C   UNL     1     -11.504 -43.935  28.319  1.00  0.00     0.041 A 
ATOM     26  C   UNL     1     -10.639 -42.863  28.059  1.00  0.00     0.014 A 
ATOM     27  C   UNL     1     -11.209 -44.836  29.348  1.00  0.00     0.034 A 
ATOM     28  C   UNL     1      -9.469 -42.707  28.805  1.00  0.00     0.002 A 
ATOM     29  C   UNL     1     -10.038 -44.671  30.088  1.00  0.00     0.041 A 
ATOM     30  C   UNL     1      -9.166 -43.617  29.818  1.00  0.00     0.020 A 
ATOM     31  Cl  UNL     1      -9.669 -45.780  31.350  1.00  0.00    -0.084 Cl
ENDBRANCH  22  25
ENDBRANCH   5  21
TORSDOF 4
ENDMDL
MODEL 6
REMARK VINA RESULT:   -10.747      4.429      8.114
REMARK INTER + INTRA:         -14.147
REMARK INTER:                 -14.585
REMARK INTRA:                   0.439
REMARK UNBOUND:                -0.887
REMARK SMILES Cc1cccc(C(=O)N2Cc3cc(NC(=O)c4cccc(Cl)c4)ccc3CC2=O)c1
REMARK SMILES IDX 9 1 10 2 11 3 12 4 13 5 24 6 25 7 26 8 27 9 28 10 29 11 7 12
REMARK SMILES IDX 8 13 6 14 2 15 3 16 30 17 4 18 5 19 1 20 14 21 15 22 16 24
REMARK SMILES IDX 17 25 18 26 23 27 19 28 21 29 20 30 22 31
REMARK H PARENT 14 23
ROOT
ATOM      1  N   UNL     1     -16.013 -42.614  25.469  1.00  0.00    -0.274 N 
ATOM      2  C   UNL     1     -16.951 -43.063  24.453  1.00  0.00     0.164 C 
ATOM      3  C   UNL     1     -18.264 -42.342  24.554  1.00  0.00    -0.022 A 
ATOM      4  C   UNL     1     -19.018 -42.007  23.421  1.00  0.00     0.032 A 
ATOM      5  C   UNL     1     -20.260 -41.369  23.551  1.00  0.00     0.041 A 
ATOM      6  C   UNL     1     -20.738 -41.079  24.830  1.00  0.00     0.026 A 
ATOM      7  C   UNL     1     -19.996 -41.425  25.963  1.00  0.00     0.007 A 
ATOM      8  C   UNL     1     -18.754 -42.050  25.829  1.00  0.00    -0.033 A 
ATOM      9  C   UNL     1     -17.952 -42.473  27.029  1.00  0.00     0.136 C 
ATOM     10  C   UNL     1     -16.451 -42.590  26.794  1.00  0.00     0.234 C 
ATOM     11  O   UNL     1     -15.698 -42.655  27.767  1.00  0.00    -0.274 OA
ENDROOT
BRANCH   1  12
ATOM     12  C   UNL     1     -14.669 -42.840  25.166  1.00  0.00     0.260 C 
ATOM     13  O   UNL     1     -14.156 -42.462  24.112  1.00  0.00    -0.269 OA
BRANCH  12  14
ATOM     14  C   UNL     1     -13.813 -43.537  26.167  1.00  0.00     0.040 A 
ATOM     15  C   UNL     1     -11.960 -43.561  27.744  1.00  0.00    -0.050 A 
ATOM     16  C   UNL     1     -12.174 -44.929  27.951  1.00  0.00     0.003 A 
ATOM     17  C   UNL     1     -12.773 -42.873  26.832  1.00  0.00     0.017 A 
ATOM     18  C   UNL     1     -13.195 -45.599  27.275  1.00  0.00     0.001 A 
ATOM     19  C   UNL     1     -14.012 -44.906  26.382  1.00  0.00     0.014 A 
ATOM     20  C   UNL     1     -10.836 -42.853  28.442  1.00  0.00     0.044 C 
ENDBRANCH  12  14
ENDBRANCH   1  12
BRANCH   5  21
ATOM     21  N   UNL     1     -20.949 -41.053  22.360  1.00  0.00    -0.322 N 
ATOM     22  C   UNL     1     -20.927 -39.852  21.674  1.00  0.00     0.255 C 
ATOM     23  H   UNL     1     -21.573 -41.769  22.014  1.00  0.00     0.170 HD
ATOM     24  O   UNL     1     -20.361 -38.819  22.013  1.00  0.00    -0.269 OA
BRANCH  22  25
ATOM     25  C   UNL     1     -21.720 -39.834  20.413  1.00  0.00     0.041 A 
ATOM     26  C   UNL     1     -22.469 -40.971  20.080  1.00  0.00     0.014 A 
ATOM     27  C   UNL     1     -21.755 -38.708  19.583  1.00  0.00     0.034 A 
ATOM     28  C   UNL     1     -23.228 -40.994  18.908  1.00  0.00     0.002 A 
ATOM     29  C   UNL     1     -22.517 -38.741  18.415  1.00  0.00     0.041 A 
ATOM     30  C   UNL     1     -23.247 -39.878  18.071  1.00  0.00     0.020 A 
ATOM     31  Cl  UNL     1     -22.557 -37.361  17.389  1.00  0.00    -0.084 Cl
ENDBRANCH  22  25
ENDBRANCH   5  21
TORSDOF 4
ENDMDL
