MODEL 1
REMARK VINA RESULT:    -7.755      0.000      0.000
REMARK INTER + INTRA:         -10.276
REMARK INTER:                  -9.796
REMARK INTRA:                  -0.480
REMARK UNBOUND:                -0.480
REMARK SMILES CCOc1cc2c(cc1OCC)C(O)=C(C)C2
REMARK SMILES IDX 13 1 15 2 16 3 17 4 6 5 5 6 4 7 9 8 8 9 7 10 14 11 10 13
REMARK SMILES IDX 11 14 12 15 3 16 2 17 1 18
REMARK H PARENT 14 12
ROOT
ATOM      1  C   UNL     1     -14.683 -44.094  27.545  1.00  0.00     0.122 C 
ATOM      2  C   UNL     1     -14.144 -44.672  26.460  1.00  0.00    -0.026 C 
ATOM      3  C   UNL     1     -14.504 -44.447  25.036  1.00  0.00     0.044 C 
ATOM      4  C   UNL     1     -13.054 -45.649  26.837  1.00  0.00     0.071 C 
ATOM      5  C   UNL     1     -13.058 -45.528  28.334  1.00  0.00    -0.029 A 
ATOM      6  C   UNL     1     -12.260 -46.188  29.251  1.00  0.00     0.055 A 
ATOM      7  C   UNL     1     -12.434 -45.904  30.610  1.00  0.00     0.161 A 
ATOM      8  C   UNL     1     -13.438 -45.002  31.043  1.00  0.00     0.161 A 
ATOM      9  C   UNL     1     -14.230 -44.339  30.091  1.00  0.00     0.062 A 
ATOM     10  C   UNL     1     -14.030 -44.606  28.743  1.00  0.00     0.024 A 
ENDROOT
BRANCH   1  11
ATOM     11  O   UNL     1     -15.681 -43.172  27.563  1.00  0.00    -0.507 OA
ATOM     12  H   UNL     1     -15.921 -42.961  26.648  1.00  0.00     0.293 HD
ENDBRANCH   1  11
BRANCH   8  13
ATOM     13  O   UNL     1     -13.581 -44.841  32.397  1.00  0.00    -0.490 OA
BRANCH  13  14
ATOM     14  C   UNL     1     -14.297 -43.703  32.868  1.00  0.00     0.226 C 
ATOM     15  C   UNL     1     -13.281 -42.648  33.269  1.00  0.00     0.049 C 
ENDBRANCH  13  14
ENDBRANCH   8  13
BRANCH   7  16
ATOM     16  O   UNL     1     -11.607 -46.619  31.442  1.00  0.00    -0.490 OA
BRANCH  16  17
ATOM     17  C   UNL     1     -10.213 -46.368  31.248  1.00  0.00     0.226 C 
ATOM     18  C   UNL     1      -9.897 -45.013  31.856  1.00  0.00     0.049 C 
ENDBRANCH  16  17
ENDBRANCH   7  16
TORSDOF 5
ENDMDL
MODEL 2
REMARK VINA RESULT:    -7.603      2.197      3.026
REMARK INTER + INTRA:         -10.084
REMARK INTER:                  -9.636
REMARK INTRA:                  -0.447
REMARK UNBOUND:                -0.480
REMARK SMILES CCOc1cc2c(cc1OCC)C(O)=C(C)C2
REMARK SMILES IDX 13 1 15 2 16 3 17 4 6 5 5 6 4 7 9 8 8 9 7 10 14 11 10 13
REMARK SMILES IDX 11 14 12 15 3 16 2 17 1 18
REMARK H PARENT 14 12
ROOT
ATOM      1  C   UNL     1     -12.798 -45.317  28.798  1.00  0.00     0.122 C 
ATOM      2  C   UNL     1     -12.348 -46.138  27.837  1.00  0.00    -0.026 C 
ATOM      3  C   UNL     1     -13.057 -46.572  26.606  1.00  0.00     0.044 C 
ATOM      4  C   UNL     1     -10.948 -46.625  28.136  1.00  0.00     0.071 C 
ATOM      5  C   UNL     1     -10.670 -45.934  29.439  1.00  0.00    -0.029 A 
ATOM      6  C   UNL     1      -9.526 -45.991  30.215  1.00  0.00     0.055 A 
ATOM      7  C   UNL     1      -9.486 -45.245  31.398  1.00  0.00     0.161 A 
ATOM      8  C   UNL     1     -10.609 -44.490  31.821  1.00  0.00     0.161 A 
ATOM      9  C   UNL     1     -11.756 -44.442  31.012  1.00  0.00     0.062 A 
ATOM     10  C   UNL     1     -11.774 -45.163  29.825  1.00  0.00     0.024 A 
ENDROOT
BRANCH   1  11
ATOM     11  O   UNL     1     -14.010 -44.704  28.842  1.00  0.00    -0.507 OA
ATOM     12  H   UNL     1     -14.410 -44.877  29.708  1.00  0.00     0.293 HD
ENDBRANCH   1  11
BRANCH   8  13
ATOM     13  O   UNL     1     -10.502 -43.849  33.029  1.00  0.00    -0.490 OA
BRANCH  13  14
ATOM     14  C   UNL     1     -10.849 -42.469  33.091  1.00  0.00     0.226 C 
ATOM     15  C   UNL     1     -10.316 -41.914  34.400  1.00  0.00     0.049 C 
ENDBRANCH  13  14
ENDBRANCH   8  13
BRANCH   7  16
ATOM     16  O   UNL     1      -8.316 -45.378  32.105  1.00  0.00    -0.490 OA
BRANCH  16  17
ATOM     17  C   UNL     1      -7.268 -44.500  31.685  1.00  0.00     0.226 C 
ATOM     18  C   UNL     1      -7.118 -43.419  32.741  1.00  0.00     0.049 C 
ENDBRANCH  16  17
ENDBRANCH   7  16
TORSDOF 5
ENDMDL
MODEL 3
REMARK VINA RESULT:    -7.584      2.137      5.480
REMARK INTER + INTRA:         -10.059
REMARK INTER:                  -9.607
REMARK INTRA:                  -0.452
REMARK UNBOUND:                -0.480
REMARK SMILES CCOc1cc2c(cc1OCC)C(O)=C(C)C2
REMARK SMILES IDX 13 1 15 2 16 3 17 4 6 5 5 6 4 7 9 8 8 9 7 10 14 11 10 13
REMARK SMILES IDX 11 14 12 15 3 16 2 17 1 18
REMARK H PARENT 14 12
ROOT
ATOM      1  C   UNL     1      -9.043 -43.180  32.944  1.00  0.00     0.122 C 
ATOM      2  C   UNL     1      -8.035 -43.991  32.586  1.00  0.00    -0.026 C 
ATOM      3  C   UNL     1      -6.590 -43.835  32.894  1.00  0.00     0.044 C 
ATOM      4  C   UNL     1      -8.531 -45.169  31.780  1.00  0.00     0.071 C 
ATOM      5  C   UNL     1     -10.007 -44.895  31.738  1.00  0.00    -0.029 A 
ATOM      6  C   UNL     1     -11.002 -45.641  31.134  1.00  0.00     0.055 A 
ATOM      7  C   UNL     1     -12.324 -45.194  31.238  1.00  0.00     0.161 A 
ATOM      8  C   UNL     1     -12.633 -43.980  31.901  1.00  0.00     0.161 A 
ATOM      9  C   UNL     1     -11.605 -43.245  32.514  1.00  0.00     0.062 A 
ATOM     10  C   UNL     1     -10.299 -43.712  32.429  1.00  0.00     0.024 A 
ENDROOT
BRANCH   1  11
ATOM     11  O   UNL     1      -8.948 -42.036  33.671  1.00  0.00    -0.507 OA
ATOM     12  H   UNL     1      -8.018 -41.764  33.694  1.00  0.00     0.293 HD
ENDBRANCH   1  11
BRANCH   8  13
ATOM     13  O   UNL     1     -13.947 -43.587  31.890  1.00  0.00    -0.490 OA
BRANCH  13  14
ATOM     14  C   UNL     1     -14.563 -43.265  33.133  1.00  0.00     0.226 C 
ATOM     15  C   UNL     1     -14.960 -41.800  33.090  1.00  0.00     0.049 C 
ENDBRANCH  13  14
ENDBRANCH   8  13
BRANCH   7  16
ATOM     16  O   UNL     1     -13.238 -45.992  30.593  1.00  0.00    -0.490 OA
BRANCH  16  17
ATOM     17  C   UNL     1     -12.981 -46.179  29.199  1.00  0.00     0.226 C 
ATOM     18  C   UNL     1     -13.663 -45.050  28.446  1.00  0.00     0.049 C 
ENDBRANCH  16  17
ENDBRANCH   7  16
TORSDOF 5
ENDMDL
MODEL 4
REMARK VINA RESULT:    -7.381      5.078      9.057
REMARK INTER + INTRA:          -9.804
REMARK INTER:                  -9.405
REMARK INTRA:                  -0.399
REMARK UNBOUND:                -0.480
REMARK SMILES CCOc1cc2c(cc1OCC)C(O)=C(C)C2
REMARK SMILES IDX 13 1 15 2 16 3 17 4 6 5 5 6 4 7 9 8 8 9 7 10 14 11 10 13
REMARK SMILES IDX 11 14 12 15 3 16 2 17 1 18
REMARK H PARENT 14 12
ROOT
ATOM      1  C   UNL     1     -15.378 -43.328  24.737  1.00  0.00     0.122 C 
ATOM      2  C   UNL     1     -15.037 -43.416  26.032  1.00  0.00    -0.026 C 
ATOM      3  C   UNL     1     -13.758 -43.912  26.603  1.00  0.00     0.044 C 
ATOM      4  C   UNL     1     -16.149 -42.929  26.932  1.00  0.00     0.071 C 
ATOM      5  C   UNL     1     -17.193 -42.541  25.925  1.00  0.00    -0.029 A 
ATOM      6  C   UNL     1     -18.452 -42.016  26.151  1.00  0.00     0.055 A 
ATOM      7  C   UNL     1     -19.256 -41.716  25.045  1.00  0.00     0.161 A 
ATOM      8  C   UNL     1     -18.814 -41.991  23.727  1.00  0.00     0.161 A 
ATOM      9  C   UNL     1     -17.528 -42.517  23.523  1.00  0.00     0.062 A 
ATOM     10  C   UNL     1     -16.727 -42.785  24.626  1.00  0.00     0.024 A 
ENDROOT
BRANCH   1  11
ATOM     11  O   UNL     1     -14.615 -43.679  23.669  1.00  0.00    -0.507 OA
ATOM     12  H   UNL     1     -15.198 -43.824  22.909  1.00  0.00     0.293 HD
ENDBRANCH   1  11
BRANCH   8  13
ATOM     13  O   UNL     1     -19.699 -41.730  22.712  1.00  0.00    -0.490 OA
BRANCH  13  14
ATOM     14  C   UNL     1     -19.359 -40.720  21.767  1.00  0.00     0.226 C 
ATOM     15  C   UNL     1     -20.171 -39.480  22.098  1.00  0.00     0.049 C 
ENDBRANCH  13  14
ENDBRANCH   8  13
BRANCH   7  16
ATOM     16  O   UNL     1     -20.492 -41.214  25.372  1.00  0.00    -0.490 OA
BRANCH  16  17
ATOM     17  C   UNL     1     -20.787 -41.230  26.771  1.00  0.00     0.226 C 
ATOM     18  C   UNL     1     -22.113 -40.519  26.975  1.00  0.00     0.049 C 
ENDBRANCH  16  17
ENDBRANCH   7  16
TORSDOF 5
ENDMDL
MODEL 5
REMARK VINA RESULT:    -7.370      2.521      6.393
REMARK INTER + INTRA:          -9.790
REMARK INTER:                  -9.551
REMARK INTRA:                  -0.238
REMARK UNBOUND:                -0.480
REMARK SMILES CCOc1cc2c(cc1OCC)C(O)=C(C)C2
REMARK SMILES IDX 13 1 15 2 16 3 17 4 6 5 5 6 4 7 9 8 8 9 7 10 14 11 10 13
REMARK SMILES IDX 11 14 12 15 3 16 2 17 1 18
REMARK H PARENT 14 12
ROOT
ATOM      1  C   UNL     1      -7.706 -43.929  31.192  1.00  0.00     0.122 C 
ATOM      2  C   UNL     1      -7.573 -43.442  32.435  1.00  0.00    -0.026 C 
ATOM      3  C   UNL     1      -6.314 -43.160  33.172  1.00  0.00     0.044 C 
ATOM      4  C   UNL     1      -8.918 -43.183  33.075  1.00  0.00     0.071 C 
ATOM      5  C   UNL     1      -9.851 -43.605  31.977  1.00  0.00    -0.029 A 
ATOM      6  C   UNL     1     -11.233 -43.593  31.973  1.00  0.00     0.055 A 
ATOM      7  C   UNL     1     -11.899 -44.025  30.820  1.00  0.00     0.161 A 
ATOM      8  C   UNL     1     -11.177 -44.511  29.701  1.00  0.00     0.161 A 
ATOM      9  C   UNL     1      -9.773 -44.506  29.727  1.00  0.00     0.062 A 
ATOM     10  C   UNL     1      -9.122 -44.049  30.866  1.00  0.00     0.024 A 
ENDROOT
BRANCH   1  11
ATOM     11  O   UNL     1      -6.703 -44.269  30.340  1.00  0.00    -0.507 OA
ATOM     12  H   UNL     1      -6.598 -45.232  30.359  1.00  0.00     0.293 HD
ENDBRANCH   1  11
BRANCH   8  13
ATOM     13  O   UNL     1     -11.917 -44.979  28.646  1.00  0.00    -0.490 OA
BRANCH  13  14
ATOM     14  C   UNL     1     -11.595 -46.261  28.115  1.00  0.00     0.226 C 
ATOM     15  C   UNL     1     -12.643 -46.610  27.073  1.00  0.00     0.049 C 
ENDBRANCH  13  14
ENDBRANCH   8  13
BRANCH   7  16
ATOM     16  O   UNL     1     -13.269 -43.990  30.918  1.00  0.00    -0.490 OA
BRANCH  16  17
ATOM     17  C   UNL     1     -13.770 -44.127  32.250  1.00  0.00     0.226 C 
ATOM     18  C   UNL     1     -14.582 -42.885  32.571  1.00  0.00     0.049 C 
ENDBRANCH  16  17
ENDBRANCH   7  16
TORSDOF 5
ENDMDL
MODEL 6
REMARK VINA RESULT:    -7.358      2.398      5.602
REMARK INTER + INTRA:          -9.774
REMARK INTER:                  -9.413
REMARK INTRA:                  -0.361
REMARK UNBOUND:                -0.480
REMARK SMILES CCOc1cc2c(cc1OCC)C(O)=C(C)C2
REMARK SMILES IDX 13 1 15 2 16 3 17 4 6 5 5 6 4 7 9 8 8 9 7 10 14 11 10 13
REMARK SMILES IDX 11 14 12 15 3 16 2 17 1 18
REMARK H PARENT 14 12
ROOT
ATOM      1  C   UNL     1     -12.301 -42.392  33.575  1.00  0.00     0.122 C 
ATOM      2  C   UNL     1     -13.643 -42.422  33.591  1.00  0.00    -0.026 C 
ATOM      3  C   UNL     1     -14.559 -41.660  34.478  1.00  0.00     0.044 C 
ATOM      4  C   UNL     1     -14.188 -43.371  32.549  1.00  0.00     0.071 C 
ATOM      5  C   UNL     1     -12.921 -43.882  31.926  1.00  0.00    -0.029 A 
ATOM      6  C   UNL     1     -12.776 -44.792  30.895  1.00  0.00     0.055 A 
ATOM      7  C   UNL     1     -11.482 -45.111  30.466  1.00  0.00     0.161 A 
ATOM      8  C   UNL     1     -10.345 -44.556  31.106  1.00  0.00     0.161 A 
ATOM      9  C   UNL     1     -10.519 -43.629  32.145  1.00  0.00     0.062 A 
ATOM     10  C   UNL     1     -11.808 -43.297  32.544  1.00  0.00     0.024 A 
ENDROOT
BRANCH   1  11
ATOM     11  O   UNL     1     -11.495 -41.648  34.378  1.00  0.00    -0.507 OA
ATOM     12  H   UNL     1     -11.184 -42.209  35.104  1.00  0.00     0.293 HD
ENDBRANCH   1  11
BRANCH   8  13
ATOM     13  O   UNL     1      -9.119 -44.984  30.663  1.00  0.00    -0.490 OA
BRANCH  13  14
ATOM     14  C   UNL     1      -8.426 -45.956  31.440  1.00  0.00     0.226 C 
ATOM     15  C   UNL     1      -7.065 -45.385  31.795  1.00  0.00     0.049 C 
ENDBRANCH  13  14
ENDBRANCH   8  13
BRANCH   7  16
ATOM     16  O   UNL     1     -11.442 -46.033  29.449  1.00  0.00    -0.490 OA
BRANCH  16  17
ATOM     17  C   UNL     1     -12.681 -46.208  28.758  1.00  0.00     0.226 C 
ATOM     18  C   UNL     1     -12.364 -46.605  27.327  1.00  0.00     0.049 C 
ENDBRANCH  16  17
ENDBRANCH   7  16
TORSDOF 5
ENDMDL
MODEL 7
REMARK VINA RESULT:    -7.252      4.519      8.405
REMARK INTER + INTRA:          -9.640
REMARK INTER:                  -9.252
REMARK INTRA:                  -0.388
REMARK UNBOUND:                -0.480
REMARK SMILES CCOc1cc2c(cc1OCC)C(O)=C(C)C2
REMARK SMILES IDX 13 1 15 2 16 3 17 4 6 5 5 6 4 7 9 8 8 9 7 10 14 11 10 13
REMARK SMILES IDX 11 14 12 15 3 16 2 17 1 18
REMARK H PARENT 14 12
ROOT
ATOM      1  C   UNL     1     -15.552 -43.124  26.948  1.00  0.00     0.122 C 
ATOM      2  C   UNL     1     -14.399 -43.397  26.318  1.00  0.00    -0.026 C 
ATOM      3  C   UNL     1     -13.108 -43.813  26.924  1.00  0.00     0.044 C 
ATOM      4  C   UNL     1     -14.534 -43.233  24.822  1.00  0.00     0.071 C 
ATOM      5  C   UNL     1     -15.972 -42.819  24.701  1.00  0.00    -0.029 A 
ATOM      6  C   UNL     1     -16.688 -42.525  23.555  1.00  0.00     0.055 A 
ATOM      7  C   UNL     1     -18.035 -42.171  23.684  1.00  0.00     0.161 A 
ATOM      8  C   UNL     1     -18.641 -42.065  24.961  1.00  0.00     0.161 A 
ATOM      9  C   UNL     1     -17.895 -42.377  26.110  1.00  0.00     0.062 A 
ATOM     10  C   UNL     1     -16.566 -42.754  25.968  1.00  0.00     0.024 A 
ENDROOT
BRANCH   1  11
ATOM     11  O   UNL     1     -15.778 -43.173  28.287  1.00  0.00    -0.507 OA
ATOM     12  H   UNL     1     -15.730 -44.097  28.573  1.00  0.00     0.293 HD
ENDBRANCH   1  11
BRANCH   8  13
ATOM     13  O   UNL     1     -19.945 -41.643  24.993  1.00  0.00    -0.490 OA
BRANCH  13  14
ATOM     14  C   UNL     1     -20.787 -42.135  26.031  1.00  0.00     0.226 C 
ATOM     15  C   UNL     1     -21.264 -40.946  26.847  1.00  0.00     0.049 C 
ENDBRANCH  13  14
ENDBRANCH   8  13
BRANCH   7  16
ATOM     16  O   UNL     1     -18.656 -41.884  22.493  1.00  0.00    -0.490 OA
BRANCH  16  17
ATOM     17  C   UNL     1     -18.361 -40.586  21.970  1.00  0.00     0.226 C 
ATOM     18  C   UNL     1     -19.679 -39.867  21.741  1.00  0.00     0.049 C 
ENDBRANCH  16  17
ENDBRANCH   7  16
TORSDOF 5
ENDMDL
MODEL 8
REMARK VINA RESULT:    -7.236      1.722      3.624
REMARK INTER + INTRA:          -9.621
REMARK INTER:                  -9.192
REMARK INTRA:                  -0.429
REMARK UNBOUND:                -0.480
REMARK SMILES CCOc1cc2c(cc1OCC)C(O)=C(C)C2
REMARK SMILES IDX 13 1 15 2 16 3 17 4 6 5 5 6 4 7 9 8 8 9 7 10 14 11 10 13
REMARK SMILES IDX 11 14 12 15 3 16 2 17 1 18
REMARK H PARENT 14 12
ROOT
ATOM      1  C   UNL     1     -14.696 -44.044  25.306  1.00  0.00     0.122 C 
ATOM      2  C   UNL     1     -15.680 -43.164  25.551  1.00  0.00    -0.026 C 
ATOM      3  C   UNL     1     -16.492 -42.409  24.563  1.00  0.00     0.044 C 
ATOM      4  C   UNL     1     -15.912 -42.993  27.035  1.00  0.00     0.071 C 
ATOM      5  C   UNL     1     -14.887 -43.932  27.602  1.00  0.00    -0.029 A 
ATOM      6  C   UNL     1     -14.620 -44.212  28.930  1.00  0.00     0.055 A 
ATOM      7  C   UNL     1     -13.617 -45.143  29.225  1.00  0.00     0.161 A 
ATOM      8  C   UNL     1     -12.858 -45.747  28.192  1.00  0.00     0.161 A 
ATOM      9  C   UNL     1     -13.154 -45.452  26.851  1.00  0.00     0.062 A 
ATOM     10  C   UNL     1     -14.170 -44.548  26.568  1.00  0.00     0.024 A 
ENDROOT
BRANCH   1  11
ATOM     11  O   UNL     1     -14.236 -44.429  24.087  1.00  0.00    -0.507 OA
ATOM     12  H   UNL     1     -14.809 -45.135  23.751  1.00  0.00     0.293 HD
ENDBRANCH   1  11
BRANCH   8  13
ATOM     13  O   UNL     1     -11.849 -46.591  28.580  1.00  0.00    -0.490 OA
BRANCH  13  14
ATOM     14  C   UNL     1     -10.526 -46.068  28.657  1.00  0.00     0.226 C 
ATOM     15  C   UNL     1      -9.985 -46.372  30.042  1.00  0.00     0.049 C 
ENDBRANCH  13  14
ENDBRANCH   8  13
BRANCH   7  16
ATOM     16  O   UNL     1     -13.416 -45.342  30.569  1.00  0.00    -0.490 OA
BRANCH  16  17
ATOM     17  C   UNL     1     -12.819 -44.234  31.248  1.00  0.00     0.226 C 
ATOM     18  C   UNL     1     -13.751 -43.825  32.376  1.00  0.00     0.049 C 
ENDBRANCH  16  17
ENDBRANCH   7  16
TORSDOF 5
ENDMDL
MODEL 9
REMARK VINA RESULT:    -7.152      2.472      5.214
REMARK INTER + INTRA:          -9.514
REMARK INTER:                  -9.127
REMARK INTRA:                  -0.388
REMARK UNBOUND:                -0.480
REMARK SMILES CCOc1cc2c(cc1OCC)C(O)=C(C)C2
REMARK SMILES IDX 13 1 15 2 16 3 17 4 6 5 5 6 4 7 9 8 8 9 7 10 14 11 10 13
REMARK SMILES IDX 11 14 12 15 3 16 2 17 1 18
REMARK H PARENT 14 12
ROOT
ATOM      1  C   UNL     1     -13.652 -43.204  32.188  1.00  0.00     0.122 C 
ATOM      2  C   UNL     1     -13.403 -42.554  33.335  1.00  0.00    -0.026 C 
ATOM      3  C   UNL     1     -14.389 -41.977  34.286  1.00  0.00     0.044 C 
ATOM      4  C   UNL     1     -11.919 -42.448  33.601  1.00  0.00     0.071 C 
ATOM      5  C   UNL     1     -11.356 -43.156  32.404  1.00  0.00    -0.029 A 
ATOM      6  C   UNL     1     -10.029 -43.385  32.087  1.00  0.00     0.055 A 
ATOM      7  C   UNL     1      -9.738 -44.087  30.911  1.00  0.00     0.161 A 
ATOM      8  C   UNL     1     -10.772 -44.508  30.039  1.00  0.00     0.161 A 
ATOM      9  C   UNL     1     -12.112 -44.270  30.387  1.00  0.00     0.062 A 
ATOM     10  C   UNL     1     -12.391 -43.598  31.570  1.00  0.00     0.024 A 
ENDROOT
BRANCH   1  11
ATOM     11  O   UNL     1     -14.872 -43.472  31.653  1.00  0.00    -0.507 OA
ATOM     12  H   UNL     1     -15.208 -44.290  32.050  1.00  0.00     0.293 HD
ENDBRANCH   1  11
BRANCH   8  13
ATOM     13  O   UNL     1     -10.386 -45.125  28.876  1.00  0.00    -0.490 OA
BRANCH  13  14
ATOM     14  C   UNL     1     -10.801 -46.470  28.659  1.00  0.00     0.226 C 
ATOM     15  C   UNL     1     -11.892 -46.457  27.604  1.00  0.00     0.049 C 
ENDBRANCH  13  14
ENDBRANCH   8  13
BRANCH   7  16
ATOM     16  O   UNL     1      -8.394 -44.251  30.676  1.00  0.00    -0.490 OA
BRANCH  16  17
ATOM     17  C   UNL     1      -7.734 -45.123  31.598  1.00  0.00     0.226 C 
ATOM     18  C   UNL     1      -8.183 -46.542  31.297  1.00  0.00     0.049 C 
ENDBRANCH  16  17
ENDBRANCH   7  16
TORSDOF 5
ENDMDL
