MODEL 1
REMARK VINA RESULT:    -9.658      0.000      0.000
REMARK INTER + INTRA:          -9.940
REMARK INTER:                  -9.940
REMARK INTRA:                   0.000
REMARK UNBOUND:                 0.000
REMARK SMILES CC1=C[C@@H]2Cc3nc4cc(Cl)ccc4c(N)c3[C@H](C1)C2
REMARK SMILES IDX 1 1 2 2 3 3 4 4 5 5 6 6 7 7 8 8 9 9 10 10 11 11 12 12 13 13
REMARK SMILES IDX 14 14 15 15 17 16 18 17 19 18 20 19 16 20
REMARK H PARENT 16 21 16 22
ROOT
ATOM      1  C   UNL     1     -10.322 -43.020  31.082  1.00  0.00     0.039 C 
ATOM      2  C   UNL     1     -11.183 -44.167  30.641  1.00  0.00    -0.076 C 
ATOM      3  C   UNL     1     -10.710 -45.171  29.880  1.00  0.00    -0.024 C 
ATOM      4  C   UNL     1     -11.560 -46.346  29.444  1.00  0.00     0.018 C 
ATOM      5  C   UNL     1     -12.069 -46.149  28.011  1.00  0.00     0.064 C 
ATOM      6  C   UNL     1     -13.243 -45.200  27.899  1.00  0.00     0.047 A 
ATOM      7  N   UNL     1     -13.579 -44.866  26.630  1.00  0.00    -0.252 NA
ATOM      8  C   UNL     1     -14.654 -44.100  26.424  1.00  0.00     0.074 A 
ATOM      9  C   UNL     1     -14.993 -43.819  25.109  1.00  0.00     0.049 A 
ATOM     10  C   UNL     1     -16.114 -43.055  24.799  1.00  0.00     0.043 A 
ATOM     11  Cl  UNL     1     -16.504 -42.731  23.154  1.00  0.00    -0.084 Cl
ATOM     12  C   UNL     1     -16.923 -42.559  25.809  1.00  0.00     0.021 A 
ATOM     13  C   UNL     1     -16.594 -42.827  27.138  1.00  0.00     0.014 A 
ATOM     14  C   UNL     1     -15.447 -43.592  27.475  1.00  0.00     0.024 A 
ATOM     15  C   UNL     1     -15.039 -43.881  28.808  1.00  0.00     0.046 A 
ATOM     16  C   UNL     1     -13.958 -44.761  29.021  1.00  0.00     0.001 A 
ATOM     17  C   UNL     1     -13.527 -45.198  30.418  1.00  0.00     0.028 C 
ATOM     18  C   UNL     1     -12.630 -44.129  31.089  1.00  0.00     0.039 C 
ATOM     19  C   UNL     1     -12.766 -46.529  30.368  1.00  0.00     0.017 C 
ENDROOT
BRANCH  15  20
ATOM     20  N   UNL     1     -15.834 -43.459  29.904  1.00  0.00    -0.398 N 
ATOM     21  H   UNL     1     -16.736 -43.923  29.949  1.00  0.00     0.156 HD
ATOM     22  H   UNL     1     -15.951 -42.455  29.970  1.00  0.00     0.156 HD
ENDBRANCH  15  20
TORSDOF 1
ENDMDL
MODEL 2
REMARK VINA RESULT:    -9.564      2.079      3.261
REMARK INTER + INTRA:          -9.844
REMARK INTER:                  -9.844
REMARK INTRA:                   0.000
REMARK UNBOUND:                 0.000
REMARK SMILES CC1=C[C@@H]2Cc3nc4cc(Cl)ccc4c(N)c3[C@H](C1)C2
REMARK SMILES IDX 1 1 2 2 3 3 4 4 5 5 6 6 7 7 8 8 9 9 10 10 11 11 12 12 13 13
REMARK SMILES IDX 14 14 15 15 17 16 18 17 19 18 20 19 16 20
REMARK H PARENT 16 21 16 22
ROOT
ATOM      1  C   UNL     1     -10.038 -42.797  33.691  1.00  0.00     0.039 C 
ATOM      2  C   UNL     1      -9.634 -43.582  32.478  1.00  0.00    -0.076 C 
ATOM      3  C   UNL     1      -8.632 -43.193  31.669  1.00  0.00    -0.024 C 
ATOM      4  C   UNL     1      -8.199 -43.984  30.453  1.00  0.00     0.018 C 
ATOM      5  C   UNL     1      -8.809 -43.397  29.174  1.00  0.00     0.064 C 
ATOM      6  C   UNL     1     -10.259 -43.769  28.955  1.00  0.00     0.047 A 
ATOM      7  N   UNL     1     -10.865 -43.107  27.941  1.00  0.00    -0.252 NA
ATOM      8  C   UNL     1     -12.120 -43.425  27.616  1.00  0.00     0.074 A 
ATOM      9  C   UNL     1     -12.690 -42.758  26.542  1.00  0.00     0.049 A 
ATOM     10  C   UNL     1     -13.982 -43.047  26.114  1.00  0.00     0.043 A 
ATOM     11  Cl  UNL     1     -14.652 -42.199  24.774  1.00  0.00    -0.084 Cl
ATOM     12  C   UNL     1     -14.730 -44.020  26.757  1.00  0.00     0.021 A 
ATOM     13  C   UNL     1     -14.175 -44.698  27.843  1.00  0.00     0.014 A 
ATOM     14  C   UNL     1     -12.865 -44.408  28.304  1.00  0.00     0.024 A 
ATOM     15  C   UNL     1     -12.248 -45.041  29.420  1.00  0.00     0.046 A 
ATOM     16  C   UNL     1     -10.895 -44.767  29.706  1.00  0.00     0.001 A 
ATOM     17  C   UNL     1     -10.137 -45.482  30.820  1.00  0.00     0.028 C 
ATOM     18  C   UNL     1     -10.431 -44.840  32.199  1.00  0.00     0.039 C 
ATOM     19  C   UNL     1      -8.625 -45.449  30.566  1.00  0.00     0.017 C 
ENDROOT
BRANCH  15  20
ATOM     20  N   UNL     1     -12.918 -46.086  30.106  1.00  0.00    -0.398 N 
ATOM     21  H   UNL     1     -13.773 -45.784  30.562  1.00  0.00     0.156 HD
ATOM     22  H   UNL     1     -12.335 -46.597  30.757  1.00  0.00     0.156 HD
ENDBRANCH  15  20
TORSDOF 1
ENDMDL
MODEL 3
REMARK VINA RESULT:    -8.867      4.049      7.120
REMARK INTER + INTRA:          -9.126
REMARK INTER:                  -9.126
REMARK INTRA:                   0.000
REMARK UNBOUND:                 0.000
REMARK SMILES CC1=C[C@@H]2Cc3nc4cc(Cl)ccc4c(N)c3[C@H](C1)C2
REMARK SMILES IDX 1 1 2 2 3 3 4 4 5 5 6 6 7 7 8 8 9 9 10 10 11 11 12 12 13 13
REMARK SMILES IDX 14 14 15 15 17 16 18 17 19 18 20 19 16 20
REMARK H PARENT 16 21 16 22
ROOT
ATOM      1  C   UNL     1     -13.045 -43.158  26.555  1.00  0.00     0.039 C 
ATOM      2  C   UNL     1     -13.035 -44.155  27.677  1.00  0.00    -0.076 C 
ATOM      3  C   UNL     1     -14.082 -44.315  28.506  1.00  0.00    -0.024 C 
ATOM      4  C   UNL     1     -14.096 -45.330  29.630  1.00  0.00     0.018 C 
ATOM      5  C   UNL     1     -13.759 -44.664  30.970  1.00  0.00     0.064 C 
ATOM      6  C   UNL     1     -12.282 -44.397  31.171  1.00  0.00     0.047 A 
ATOM      7  N   UNL     1     -11.989 -43.640  32.255  1.00  0.00    -0.252 NA
ATOM      8  C   UNL     1     -10.709 -43.418  32.563  1.00  0.00     0.074 A 
ATOM      9  C   UNL     1     -10.447 -42.678  33.707  1.00  0.00     0.049 A 
ATOM     10  C   UNL     1      -9.144 -42.424  34.123  1.00  0.00     0.043 A 
ATOM     11  Cl  UNL     1      -8.862 -41.505  35.550  1.00  0.00    -0.084 Cl
ATOM     12  C   UNL     1      -8.071 -42.913  33.395  1.00  0.00     0.021 A 
ATOM     13  C   UNL     1      -8.314 -43.654  32.239  1.00  0.00     0.014 A 
ATOM     14  C   UNL     1      -9.636 -43.912  31.791  1.00  0.00     0.024 A 
ATOM     15  C   UNL     1      -9.955 -44.638  30.608  1.00  0.00     0.046 A 
ATOM     16  C   UNL     1     -11.303 -44.945  30.332  1.00  0.00     0.001 A 
ATOM     17  C   UNL     1     -11.716 -45.805  29.141  1.00  0.00     0.028 C 
ATOM     18  C   UNL     1     -11.768 -44.969  27.838  1.00  0.00     0.039 C 
ATOM     19  C   UNL     1     -13.086 -46.451  29.376  1.00  0.00     0.017 C 
ENDROOT
BRANCH  15  20
ATOM     20  N   UNL     1      -8.923 -45.220  29.829  1.00  0.00    -0.398 N 
ATOM     21  H   UNL     1      -8.385 -45.918  30.332  1.00  0.00     0.156 HD
ATOM     22  H   UNL     1      -8.305 -44.549  29.390  1.00  0.00     0.156 HD
ENDBRANCH  15  20
TORSDOF 1
ENDMDL
MODEL 4
REMARK VINA RESULT:    -8.689      4.100      8.618
REMARK INTER + INTRA:          -8.943
REMARK INTER:                  -8.943
REMARK INTRA:                   0.000
REMARK UNBOUND:                 0.000
REMARK SMILES CC1=C[C@@H]2Cc3nc4cc(Cl)ccc4c(N)c3[C@H](C1)C2
REMARK SMILES IDX 1 1 2 2 3 3 4 4 5 5 6 6 7 7 8 8 9 9 10 10 11 11 12 12 13 13
REMARK SMILES IDX 14 14 15 15 17 16 18 17 19 18 20 19 16 20
REMARK H PARENT 16 21 16 22
ROOT
ATOM      1  C   UNL     1     -22.940 -44.142  23.255  1.00  0.00     0.039 C 
ATOM      2  C   UNL     1     -22.082 -42.911  23.265  1.00  0.00    -0.076 C 
ATOM      3  C   UNL     1     -21.389 -42.508  22.184  1.00  0.00    -0.024 C 
ATOM      4  C   UNL     1     -20.535 -41.258  22.171  1.00  0.00     0.018 C 
ATOM      5  C   UNL     1     -19.056 -41.605  22.386  1.00  0.00     0.064 C 
ATOM      6  C   UNL     1     -18.693 -41.892  23.827  1.00  0.00     0.047 A 
ATOM      7  N   UNL     1     -17.445 -42.386  24.006  1.00  0.00    -0.252 NA
ATOM      8  C   UNL     1     -17.002 -42.593  25.249  1.00  0.00     0.074 A 
ATOM      9  C   UNL     1     -15.702 -43.056  25.393  1.00  0.00     0.049 A 
ATOM     10  C   UNL     1     -15.146 -43.270  26.650  1.00  0.00     0.043 A 
ATOM     11  Cl  UNL     1     -13.528 -43.840  26.788  1.00  0.00    -0.084 Cl
ATOM     12  C   UNL     1     -15.888 -43.020  27.794  1.00  0.00     0.021 A 
ATOM     13  C   UNL     1     -17.199 -42.561  27.668  1.00  0.00     0.014 A 
ATOM     14  C   UNL     1     -17.789 -42.349  26.395  1.00  0.00     0.024 A 
ATOM     15  C   UNL     1     -19.127 -41.907  26.194  1.00  0.00     0.046 A 
ATOM     16  C   UNL     1     -19.563 -41.606  24.887  1.00  0.00     0.001 A 
ATOM     17  C   UNL     1     -20.948 -41.031  24.603  1.00  0.00     0.028 C 
ATOM     18  C   UNL     1     -22.022 -42.147  24.572  1.00  0.00     0.039 C 
ATOM     19  C   UNL     1     -20.968 -40.280  23.266  1.00  0.00     0.017 C 
ENDROOT
BRANCH  15  20
ATOM     20  N   UNL     1     -19.943 -41.577  27.305  1.00  0.00    -0.398 N 
ATOM     21  H   UNL     1     -20.804 -42.112  27.345  1.00  0.00     0.156 HD
ATOM     22  H   UNL     1     -20.139 -40.588  27.398  1.00  0.00     0.156 HD
ENDBRANCH  15  20
TORSDOF 1
ENDMDL
MODEL 5
REMARK VINA RESULT:    -8.315      7.306      9.349
REMARK INTER + INTRA:          -8.558
REMARK INTER:                  -8.558
REMARK INTRA:                   0.000
REMARK UNBOUND:                 0.000
REMARK SMILES CC1=C[C@@H]2Cc3nc4cc(Cl)ccc4c(N)c3[C@H](C1)C2
REMARK SMILES IDX 1 1 2 2 3 3 4 4 5 5 6 6 7 7 8 8 9 9 10 10 11 11 12 12 13 13
REMARK SMILES IDX 14 14 15 15 17 16 18 17 19 18 20 19 16 20
REMARK H PARENT 16 21 16 22
ROOT
ATOM      1  C   UNL     1     -21.294 -45.413  25.350  1.00  0.00     0.039 C 
ATOM      2  C   UNL     1     -20.799 -44.028  25.650  1.00  0.00    -0.076 C 
ATOM      3  C   UNL     1     -21.516 -43.147  26.370  1.00  0.00    -0.024 C 
ATOM      4  C   UNL     1     -21.023 -41.754  26.698  1.00  0.00     0.018 C 
ATOM      5  C   UNL     1     -21.627 -40.721  25.739  1.00  0.00     0.064 C 
ATOM      6  C   UNL     1     -20.966 -40.683  24.378  1.00  0.00     0.047 A 
ATOM      7  N   UNL     1     -21.607 -39.920  23.461  1.00  0.00    -0.252 NA
ATOM      8  C   UNL     1     -21.058 -39.756  22.255  1.00  0.00     0.074 A 
ATOM      9  C   UNL     1     -21.720 -38.930  21.359  1.00  0.00     0.049 A 
ATOM     10  C   UNL     1     -21.205 -38.677  20.092  1.00  0.00     0.043 A 
ATOM     11  Cl  UNL     1     -22.055 -37.642  19.011  1.00  0.00    -0.084 Cl
ATOM     12  C   UNL     1     -20.007 -39.250  19.697  1.00  0.00     0.021 A 
ATOM     13  C   UNL     1     -19.330 -40.089  20.583  1.00  0.00     0.014 A 
ATOM     14  C   UNL     1     -19.845 -40.370  21.874  1.00  0.00     0.024 A 
ATOM     15  C   UNL     1     -19.221 -41.236  22.817  1.00  0.00     0.046 A 
ATOM     16  C   UNL     1     -19.755 -41.337  24.117  1.00  0.00     0.001 A 
ATOM     17  C   UNL     1     -19.085 -42.163  25.212  1.00  0.00     0.028 C 
ATOM     18  C   UNL     1     -19.443 -43.664  25.079  1.00  0.00     0.039 C 
ATOM     19  C   UNL     1     -19.498 -41.671  26.604  1.00  0.00     0.017 C 
ENDROOT
BRANCH  15  20
ATOM     20  N   UNL     1     -17.965 -41.825  22.520  1.00  0.00    -0.398 N 
ATOM     21  H   UNL     1     -17.412 -42.030  23.346  1.00  0.00     0.156 HD
ATOM     22  H   UNL     1     -17.413 -41.309  21.846  1.00  0.00     0.156 HD
ENDBRANCH  15  20
TORSDOF 1
ENDMDL
MODEL 6
REMARK VINA RESULT:    -8.120      5.884     10.570
REMARK INTER + INTRA:          -8.357
REMARK INTER:                  -8.357
REMARK INTRA:                   0.000
REMARK UNBOUND:                 0.000
REMARK SMILES CC1=C[C@@H]2Cc3nc4cc(Cl)ccc4c(N)c3[C@H](C1)C2
REMARK SMILES IDX 1 1 2 2 3 3 4 4 5 5 6 6 7 7 8 8 9 9 10 10 11 11 12 12 13 13
REMARK SMILES IDX 14 14 15 15 17 16 18 17 19 18 20 19 16 20
REMARK H PARENT 16 21 16 22
ROOT
ATOM      1  C   UNL     1     -23.497 -42.116  19.767  1.00  0.00     0.039 C 
ATOM      2  C   UNL     1     -22.599 -41.010  20.239  1.00  0.00    -0.076 C 
ATOM      3  C   UNL     1     -21.674 -40.445  19.443  1.00  0.00    -0.024 C 
ATOM      4  C   UNL     1     -20.774 -39.315  19.898  1.00  0.00     0.018 C 
ATOM      5  C   UNL     1     -19.394 -39.846  20.305  1.00  0.00     0.064 C 
ATOM      6  C   UNL     1     -19.360 -40.484  21.677  1.00  0.00     0.047 A 
ATOM      7  N   UNL     1     -18.205 -41.127  21.971  1.00  0.00    -0.252 NA
ATOM      8  C   UNL     1     -18.046 -41.652  23.189  1.00  0.00     0.074 A 
ATOM      9  C   UNL     1     -16.832 -42.261  23.468  1.00  0.00     0.049 A 
ATOM     10  C   UNL     1     -16.567 -42.807  24.720  1.00  0.00     0.043 A 
ATOM     11  Cl  UNL     1     -15.046 -43.550  25.027  1.00  0.00    -0.084 Cl
ATOM     12  C   UNL     1     -17.520 -42.749  25.723  1.00  0.00     0.021 A 
ATOM     13  C   UNL     1     -18.750 -42.145  25.459  1.00  0.00     0.014 A 
ATOM     14  C   UNL     1     -19.045 -41.595  24.185  1.00  0.00     0.024 A 
ATOM     15  C   UNL     1     -20.286 -40.989  23.840  1.00  0.00     0.046 A 
ATOM     16  C   UNL     1     -20.419 -40.360  22.585  1.00  0.00     0.001 A 
ATOM     17  C   UNL     1     -21.682 -39.602  22.184  1.00  0.00     0.028 C 
ATOM     18  C   UNL     1     -22.780 -40.570  21.678  1.00  0.00     0.039 C 
ATOM     19  C   UNL     1     -21.380 -38.571  21.090  1.00  0.00     0.017 C 
ENDROOT
BRANCH  15  20
ATOM     20  N   UNL     1     -21.301 -40.839  24.818  1.00  0.00    -0.398 N 
ATOM     21  H   UNL     1     -21.011 -41.125  25.748  1.00  0.00     0.156 HD
ATOM     22  H   UNL     1     -22.182 -41.277  24.575  1.00  0.00     0.156 HD
ENDBRANCH  15  20
TORSDOF 1
ENDMDL
MODEL 7
REMARK VINA RESULT:    -7.751      4.505      6.136
REMARK INTER + INTRA:          -7.978
REMARK INTER:                  -7.978
REMARK INTRA:                   0.000
REMARK UNBOUND:                 0.000
REMARK SMILES CC1=C[C@@H]2Cc3nc4cc(Cl)ccc4c(N)c3[C@H](C1)C2
REMARK SMILES IDX 1 1 2 2 3 3 4 4 5 5 6 6 7 7 8 8 9 9 10 10 11 11 12 12 13 13
REMARK SMILES IDX 14 14 15 15 17 16 18 17 19 18 20 19 16 20
REMARK H PARENT 16 21 16 22
ROOT
ATOM      1  C   UNL     1      -8.885 -42.844  27.798  1.00  0.00     0.039 C 
ATOM      2  C   UNL     1      -9.403 -43.876  28.756  1.00  0.00    -0.076 C 
ATOM      3  C   UNL     1     -10.343 -44.774  28.408  1.00  0.00    -0.024 C 
ATOM      4  C   UNL     1     -10.862 -45.834  29.356  1.00  0.00     0.018 C 
ATOM      5  C   UNL     1     -12.197 -45.404  29.977  1.00  0.00     0.064 C 
ATOM      6  C   UNL     1     -12.059 -44.401  31.103  1.00  0.00     0.047 A 
ATOM      7  N   UNL     1     -13.228 -43.867  31.529  1.00  0.00    -0.252 NA
ATOM      8  C   UNL     1     -13.219 -43.035  32.574  1.00  0.00     0.074 A 
ATOM      9  C   UNL     1     -14.441 -42.547  33.011  1.00  0.00     0.049 A 
ATOM     10  C   UNL     1     -14.530 -41.699  34.110  1.00  0.00     0.043 A 
ATOM     11  Cl  UNL     1     -16.066 -41.117  34.624  1.00  0.00    -0.084 Cl
ATOM     12  C   UNL     1     -13.387 -41.326  34.799  1.00  0.00     0.021 A 
ATOM     13  C   UNL     1     -12.148 -41.803  34.371  1.00  0.00     0.014 A 
ATOM     14  C   UNL     1     -12.035 -42.657  33.243  1.00  0.00     0.024 A 
ATOM     15  C   UNL     1     -10.803 -43.159  32.736  1.00  0.00     0.046 A 
ATOM     16  C   UNL     1     -10.822 -44.104  31.691  1.00  0.00     0.001 A 
ATOM     17  C   UNL     1      -9.551 -44.764  31.164  1.00  0.00     0.028 C 
ATOM     18  C   UNL     1      -8.820 -43.844  30.154  1.00  0.00     0.039 C 
ATOM     19  C   UNL     1      -9.865 -46.102  30.486  1.00  0.00     0.017 C 
ENDROOT
BRANCH  15  20
ATOM     20  N   UNL     1      -9.587 -42.872  33.408  1.00  0.00    -0.398 N 
ATOM     21  H   UNL     1      -8.763 -43.054  32.844  1.00  0.00     0.156 HD
ATOM     22  H   UNL     1      -9.498 -43.316  34.314  1.00  0.00     0.156 HD
ENDBRANCH  15  20
TORSDOF 1
ENDMDL
MODEL 8
REMARK VINA RESULT:    -7.008      5.222      8.796
REMARK INTER + INTRA:          -7.213
REMARK INTER:                  -7.213
REMARK INTRA:                   0.000
REMARK UNBOUND:                 0.000
REMARK SMILES CC1=C[C@@H]2Cc3nc4cc(Cl)ccc4c(N)c3[C@H](C1)C2
REMARK SMILES IDX 1 1 2 2 3 3 4 4 5 5 6 6 7 7 8 8 9 9 10 10 11 11 12 12 13 13
REMARK SMILES IDX 14 14 15 15 17 16 18 17 19 18 20 19 16 20
REMARK H PARENT 16 21 16 22
ROOT
ATOM      1  C   UNL     1     -23.380 -39.393  26.194  1.00  0.00     0.039 C 
ATOM      2  C   UNL     1     -23.001 -40.819  25.924  1.00  0.00    -0.076 C 
ATOM      3  C   UNL     1     -22.918 -41.739  26.903  1.00  0.00    -0.024 C 
ATOM      4  C   UNL     1     -22.557 -43.187  26.645  1.00  0.00     0.018 C 
ATOM      5  C   UNL     1     -21.075 -43.442  26.946  1.00  0.00     0.064 C 
ATOM      6  C   UNL     1     -20.135 -42.967  25.859  1.00  0.00     0.047 A 
ATOM      7  N   UNL     1     -18.822 -43.007  26.192  1.00  0.00    -0.252 NA
ATOM      8  C   UNL     1     -17.910 -42.687  25.271  1.00  0.00     0.074 A 
ATOM      9  C   UNL     1     -16.575 -42.786  25.634  1.00  0.00     0.049 A 
ATOM     10  C   UNL     1     -15.556 -42.503  24.731  1.00  0.00     0.043 A 
ATOM     11  Cl  UNL     1     -13.912 -42.641  25.219  1.00  0.00    -0.084 Cl
ATOM     12  C   UNL     1     -15.859 -42.116  23.435  1.00  0.00     0.021 A 
ATOM     13  C   UNL     1     -17.196 -42.005  23.053  1.00  0.00     0.014 A 
ATOM     14  C   UNL     1     -18.250 -42.276  23.964  1.00  0.00     0.024 A 
ATOM     15  C   UNL     1     -19.633 -42.159  23.649  1.00  0.00     0.046 A 
ATOM     16  C   UNL     1     -20.592 -42.580  24.593  1.00  0.00     0.001 A 
ATOM     17  C   UNL     1     -22.088 -42.581  24.290  1.00  0.00     0.028 C 
ATOM     18  C   UNL     1     -22.699 -41.171  24.482  1.00  0.00     0.039 C 
ATOM     19  C   UNL     1     -22.831 -43.575  25.191  1.00  0.00     0.017 C 
ENDROOT
BRANCH  15  20
ATOM     20  N   UNL     1     -20.038 -41.819  22.333  1.00  0.00    -0.398 N 
ATOM     21  H   UNL     1     -20.853 -42.335  22.017  1.00  0.00     0.156 HD
ATOM     22  H   UNL     1     -19.298 -41.874  21.644  1.00  0.00     0.156 HD
ENDBRANCH  15  20
TORSDOF 1
ENDMDL
MODEL 9
REMARK VINA RESULT:    -6.939      6.038      8.659
REMARK INTER + INTRA:          -7.141
REMARK INTER:                  -7.141
REMARK INTRA:                   0.000
REMARK UNBOUND:                 0.000
REMARK SMILES CC1=C[C@@H]2Cc3nc4cc(Cl)ccc4c(N)c3[C@H](C1)C2
REMARK SMILES IDX 1 1 2 2 3 3 4 4 5 5 6 6 7 7 8 8 9 9 10 10 11 11 12 12 13 13
REMARK SMILES IDX 14 14 15 15 17 16 18 17 19 18 20 19 16 20
REMARK H PARENT 16 21 16 22
ROOT
ATOM      1  C   UNL     1     -16.338 -42.795  25.091  1.00  0.00     0.039 C 
ATOM      2  C   UNL     1     -17.736 -42.452  25.515  1.00  0.00    -0.076 C 
ATOM      3  C   UNL     1     -18.158 -42.590  26.785  1.00  0.00    -0.024 C 
ATOM      4  C   UNL     1     -19.559 -42.230  27.232  1.00  0.00     0.018 C 
ATOM      5  C   UNL     1     -20.444 -43.479  27.315  1.00  0.00     0.064 C 
ATOM      6  C   UNL     1     -20.950 -43.966  25.974  1.00  0.00     0.047 A 
ATOM      7  N   UNL     1     -21.567 -45.171  26.008  1.00  0.00    -0.252 NA
ATOM      8  C   UNL     1     -22.121 -45.648  24.890  1.00  0.00     0.074 A 
ATOM      9  C   UNL     1     -22.786 -46.862  24.976  1.00  0.00     0.049 A 
ATOM     10  C   UNL     1     -23.419 -47.420  23.869  1.00  0.00     0.043 A 
ATOM     11  Cl  UNL     1     -24.237 -48.927  24.017  1.00  0.00    -0.084 Cl
ATOM     12  C   UNL     1     -23.400 -46.764  22.649  1.00  0.00     0.021 A 
ATOM     13  C   UNL     1     -22.731 -45.544  22.543  1.00  0.00     0.014 A 
ATOM     14  C   UNL     1     -22.068 -44.966  23.656  1.00  0.00     0.024 A 
ATOM     15  C   UNL     1     -21.346 -43.739  23.611  1.00  0.00     0.046 A 
ATOM     16  C   UNL     1     -20.838 -43.196  24.809  1.00  0.00     0.001 A 
ATOM     17  C   UNL     1     -20.144 -41.838  24.858  1.00  0.00     0.028 C 
ATOM     18  C   UNL     1     -18.661 -41.951  24.425  1.00  0.00     0.039 C 
ATOM     19  C   UNL     1     -20.209 -41.236  26.267  1.00  0.00     0.017 C 
ENDROOT
BRANCH  15  20
ATOM     20  N   UNL     1     -21.316 -42.973  22.419  1.00  0.00    -0.398 N 
ATOM     21  H   UNL     1     -21.710 -43.458  21.619  1.00  0.00     0.156 HD
ATOM     22  H   UNL     1     -20.405 -42.597  22.188  1.00  0.00     0.156 HD
ENDBRANCH  15  20
TORSDOF 1
ENDMDL
