MODEL 1
REMARK VINA RESULT:   -10.712      0.000      0.000
REMARK INTER + INTRA:         -16.802
REMARK INTER:                 -16.035
REMARK INTRA:                  -0.767
REMARK UNBOUND:                -0.767
REMARK SMILES COc1cc2c(cc1OC)S[C@@H](C(O)=CCc1cc[n+](Cc3ccccc3)cc1)C2
REMARK SMILES IDX 15 1 13 2 14 3 12 5 30 6 11 7 5 8 6 9 4 10 7 11 3 12 8 13
REMARK SMILES IDX 2 14 1 15 9 16 10 17 16 18 17 19 18 20 29 21 19 22 28 23
REMARK SMILES IDX 20 24 21 25 22 26 23 27 27 28 24 29 26 30 25 31
REMARK H PARENT 14 4
ROOT
ATOM      1  C   UNL     1     -12.501 -45.455  27.956  1.00  0.00     0.020 C 
ENDROOT
BRANCH   1   2
ATOM      2  C   UNL     1     -11.587 -46.100  28.697  1.00  0.00     0.102 C 
BRANCH   2   3
ATOM      3  O   UNL     1     -10.388 -46.412  28.065  1.00  0.00    -0.511 OA
ATOM      4  H   UNL     1     -10.383 -45.977  27.189  1.00  0.00     0.293 HD
ENDBRANCH   2   3
BRANCH   2   5
ATOM      5  C   UNL     1     -11.719 -46.497  30.160  1.00  0.00     0.121 C 
ATOM      6  C   UNL     1     -10.669 -45.820  31.067  1.00  0.00     0.059 C 
ATOM      7  S   UNL     1     -13.368 -46.007  30.786  1.00  0.00    -0.114 SA
ATOM      8  C   UNL     1     -11.323 -44.660  31.767  1.00  0.00    -0.029 A 
ATOM      9  C   UNL     1     -12.714 -44.670  31.736  1.00  0.00     0.015 A 
ATOM     10  C   UNL     1     -10.639 -43.658  32.455  1.00  0.00     0.055 A 
ATOM     11  C   UNL     1     -13.447 -43.688  32.379  1.00  0.00     0.065 A 
ATOM     12  C   UNL     1     -11.361 -42.645  33.106  1.00  0.00     0.161 A 
ATOM     13  C   UNL     1     -12.772 -42.684  33.085  1.00  0.00     0.161 A 
BRANCH  12  14
ATOM     14  O   UNL     1     -10.774 -41.595  33.760  1.00  0.00    -0.493 OA
ATOM     15  C   UNL     1      -9.982 -41.876  34.906  1.00  0.00     0.278 C 
ENDBRANCH  12  14
BRANCH  13  16
ATOM     16  O   UNL     1     -13.606 -41.757  33.659  1.00  0.00    -0.493 OA
ATOM     17  C   UNL     1     -14.962 -41.812  33.223  1.00  0.00     0.278 C 
ENDBRANCH  13  16
ENDBRANCH   2   5
ENDBRANCH   1   2
BRANCH   1  18
ATOM     18  C   UNL     1     -12.612 -43.981  27.698  1.00  0.00     0.067 C 
BRANCH  18  19
ATOM     19  C   UNL     1     -13.597 -43.682  26.586  1.00  0.00    -0.032 A 
ATOM     20  C   UNL     1     -14.039 -44.693  25.732  1.00  0.00     0.075 A 
ATOM     21  C   UNL     1     -14.047 -42.380  26.364  1.00  0.00     0.075 A 
ATOM     22  C   UNL     1     -14.916 -44.389  24.696  1.00  0.00     0.308 A 
ATOM     23  C   UNL     1     -14.923 -42.121  25.314  1.00  0.00     0.308 A 
ATOM     24  N   UNL     1     -15.345 -43.121  24.504  1.00  0.00    -0.201 N 
BRANCH  24  25
ATOM     25  C   UNL     1     -16.269 -42.813  23.384  1.00  0.00     0.393 C 
BRANCH  25  26
ATOM     26  C   UNL     1     -17.606 -42.342  23.895  1.00  0.00     0.017 A 
ATOM     27  C   UNL     1     -17.988 -42.569  25.227  1.00  0.00     0.010 A 
ATOM     28  C   UNL     1     -18.496 -41.676  23.038  1.00  0.00     0.010 A 
ATOM     29  C   UNL     1     -19.225 -42.122  25.693  1.00  0.00     0.001 A 
ATOM     30  C   UNL     1     -19.732 -41.232  23.509  1.00  0.00     0.001 A 
ATOM     31  C   UNL     1     -20.095 -41.453  24.835  1.00  0.00     0.000 A 
ENDBRANCH  25  26
ENDBRANCH  24  25
ENDBRANCH  18  19
ENDBRANCH   1  18
TORSDOF 9
ENDMDL
MODEL 2
REMARK VINA RESULT:   -10.683      1.782      2.625
REMARK INTER + INTRA:         -16.758
REMARK INTER:                 -16.038
REMARK INTRA:                  -0.720
REMARK UNBOUND:                -0.767
REMARK SMILES COc1cc2c(cc1OC)S[C@@H](C(O)=CCc1cc[n+](Cc3ccccc3)cc1)C2
REMARK SMILES IDX 15 1 13 2 14 3 12 5 30 6 11 7 5 8 6 9 4 10 7 11 3 12 8 13
REMARK SMILES IDX 2 14 1 15 9 16 10 17 16 18 17 19 18 20 29 21 19 22 28 23
REMARK SMILES IDX 20 24 21 25 22 26 23 27 27 28 24 29 26 30 25 31
REMARK H PARENT 14 4
ROOT
ATOM      1  C   UNL     1     -13.460 -45.151  28.473  1.00  0.00     0.020 C 
ENDROOT
BRANCH   1   2
ATOM      2  C   UNL     1     -14.070 -44.881  29.637  1.00  0.00     0.102 C 
BRANCH   2   3
ATOM      3  O   UNL     1     -15.183 -44.049  29.574  1.00  0.00    -0.511 OA
ATOM      4  H   UNL     1     -14.969 -43.299  28.983  1.00  0.00     0.293 HD
ENDBRANCH   2   3
BRANCH   2   5
ATOM      5  C   UNL     1     -13.684 -45.414  31.009  1.00  0.00     0.121 C 
ATOM      6  C   UNL     1     -12.325 -46.147  31.013  1.00  0.00     0.059 C 
ATOM      7  S   UNL     1     -13.551 -44.025  32.195  1.00  0.00    -0.114 SA
ATOM      8  C   UNL     1     -11.282 -45.210  31.556  1.00  0.00    -0.029 A 
ATOM      9  C   UNL     1     -11.787 -44.104  32.232  1.00  0.00     0.015 A 
ATOM     10  C   UNL     1      -9.905 -45.415  31.467  1.00  0.00     0.055 A 
ATOM     11  C   UNL     1     -10.939 -43.183  32.823  1.00  0.00     0.065 A 
ATOM     12  C   UNL     1      -9.025 -44.489  32.050  1.00  0.00     0.161 A 
ATOM     13  C   UNL     1      -9.556 -43.384  32.752  1.00  0.00     0.161 A 
BRANCH  12  14
ATOM     14  O   UNL     1      -7.661 -44.582  31.967  1.00  0.00    -0.493 OA
ATOM     15  C   UNL     1      -7.099 -45.786  31.465  1.00  0.00     0.278 C 
ENDBRANCH  12  14
BRANCH  13  16
ATOM     16  O   UNL     1      -8.822 -42.393  33.354  1.00  0.00    -0.493 OA
ATOM     17  C   UNL     1      -9.168 -42.124  34.710  1.00  0.00     0.278 C 
ENDBRANCH  13  16
ENDBRANCH   2   5
ENDBRANCH   1   2
BRANCH   1  18
ATOM     18  C   UNL     1     -12.790 -44.192  27.534  1.00  0.00     0.067 C 
BRANCH  18  19
ATOM     19  C   UNL     1     -13.719 -43.765  26.415  1.00  0.00    -0.032 A 
ATOM     20  C   UNL     1     -14.166 -44.686  25.467  1.00  0.00     0.075 A 
ATOM     21  C   UNL     1     -14.111 -42.432  26.284  1.00  0.00     0.075 A 
ATOM     22  C   UNL     1     -14.989 -44.265  24.428  1.00  0.00     0.308 A 
ATOM     23  C   UNL     1     -14.936 -42.055  25.228  1.00  0.00     0.308 A 
ATOM     24  N   UNL     1     -15.363 -42.969  24.325  1.00  0.00    -0.201 N 
BRANCH  24  25
ATOM     25  C   UNL     1     -16.231 -42.535  23.201  1.00  0.00     0.393 C 
BRANCH  25  26
ATOM     26  C   UNL     1     -17.604 -42.153  23.690  1.00  0.00     0.017 A 
ATOM     27  C   UNL     1     -18.002 -42.431  25.008  1.00  0.00     0.010 A 
ATOM     28  C   UNL     1     -18.511 -41.517  22.827  1.00  0.00     0.010 A 
ATOM     29  C   UNL     1     -19.273 -42.065  25.454  1.00  0.00     0.001 A 
ATOM     30  C   UNL     1     -19.780 -41.155  23.278  1.00  0.00     0.001 A 
ATOM     31  C   UNL     1     -20.160 -41.427  24.590  1.00  0.00     0.000 A 
ENDBRANCH  25  26
ENDBRANCH  24  25
ENDBRANCH  18  19
ENDBRANCH   1  18
TORSDOF 9
ENDMDL
MODEL 3
REMARK VINA RESULT:   -10.377      1.475      2.253
REMARK INTER + INTRA:         -16.300
REMARK INTER:                 -15.979
REMARK INTRA:                  -0.321
REMARK UNBOUND:                -0.767
REMARK SMILES COc1cc2c(cc1OC)S[C@@H](C(O)=CCc1cc[n+](Cc3ccccc3)cc1)C2
REMARK SMILES IDX 15 1 13 2 14 3 12 5 30 6 11 7 5 8 6 9 4 10 7 11 3 12 8 13
REMARK SMILES IDX 2 14 1 15 9 16 10 17 16 18 17 19 18 20 29 21 19 22 28 23
REMARK SMILES IDX 20 24 21 25 22 26 23 27 27 28 24 29 26 30 25 31
REMARK H PARENT 14 4
ROOT
ATOM      1  C   UNL     1     -13.374 -44.833  28.083  1.00  0.00     0.020 C 
ENDROOT
BRANCH   1   2
ATOM      2  C   UNL     1     -12.572 -45.767  28.617  1.00  0.00     0.102 C 
BRANCH   2   3
ATOM      3  O   UNL     1     -11.689 -46.396  27.745  1.00  0.00    -0.511 OA
ATOM      4  H   UNL     1     -11.830 -47.362  27.816  1.00  0.00     0.293 HD
ENDBRANCH   2   3
BRANCH   2   5
ATOM      5  C   UNL     1     -12.512 -46.185  30.079  1.00  0.00     0.121 C 
ATOM      6  C   UNL     1     -11.072 -46.240  30.634  1.00  0.00     0.059 C 
ATOM      7  S   UNL     1     -13.439 -44.983  31.103  1.00  0.00    -0.114 SA
ATOM      8  C   UNL     1     -10.821 -44.987  31.426  1.00  0.00    -0.029 A 
ATOM      9  C   UNL     1     -11.966 -44.277  31.774  1.00  0.00     0.015 A 
ATOM     10  C   UNL     1      -9.566 -44.553  31.854  1.00  0.00     0.055 A 
ATOM     11  C   UNL     1     -11.887 -43.129  32.543  1.00  0.00     0.065 A 
ATOM     12  C   UNL     1      -9.459 -43.386  32.626  1.00  0.00     0.161 A 
ATOM     13  C   UNL     1     -10.634 -42.692  32.989  1.00  0.00     0.161 A 
BRANCH  12  14
ATOM     14  O   UNL     1      -8.266 -42.859  33.044  1.00  0.00    -0.493 OA
ATOM     15  C   UNL     1      -7.072 -43.554  32.713  1.00  0.00     0.278 C 
ENDBRANCH  12  14
BRANCH  13  16
ATOM     16  O   UNL     1     -10.682 -41.532  33.721  1.00  0.00    -0.493 OA
ATOM     17  C   UNL     1     -10.440 -41.688  35.117  1.00  0.00     0.278 C 
ENDBRANCH  13  16
ENDBRANCH   2   5
ENDBRANCH   1   2
BRANCH   1  18
ATOM     18  C   UNL     1     -13.089 -43.916  26.930  1.00  0.00     0.067 C 
BRANCH  18  19
ATOM     19  C   UNL     1     -14.360 -43.516  26.209  1.00  0.00    -0.032 A 
ATOM     20  C   UNL     1     -15.474 -43.069  26.920  1.00  0.00     0.075 A 
ATOM     21  C   UNL     1     -14.459 -43.628  24.822  1.00  0.00     0.075 A 
ATOM     22  C   UNL     1     -16.643 -42.740  26.241  1.00  0.00     0.308 A 
ATOM     23  C   UNL     1     -15.647 -43.288  24.183  1.00  0.00     0.308 A 
ATOM     24  N   UNL     1     -16.712 -42.849  24.894  1.00  0.00    -0.201 N 
BRANCH  24  25
ATOM     25  C   UNL     1     -17.973 -42.507  24.187  1.00  0.00     0.393 C 
BRANCH  25  26
ATOM     26  C   UNL     1     -19.156 -42.583  25.117  1.00  0.00     0.017 A 
ATOM     27  C   UNL     1     -20.011 -43.697  25.103  1.00  0.00     0.010 A 
ATOM     28  C   UNL     1     -19.425 -41.532  26.008  1.00  0.00     0.010 A 
ATOM     29  C   UNL     1     -21.100 -43.762  25.974  1.00  0.00     0.001 A 
ATOM     30  C   UNL     1     -20.515 -41.603  26.876  1.00  0.00     0.001 A 
ATOM     31  C   UNL     1     -21.350 -42.717  26.860  1.00  0.00     0.000 A 
ENDBRANCH  25  26
ENDBRANCH  24  25
ENDBRANCH  18  19
ENDBRANCH   1  18
TORSDOF 9
ENDMDL
MODEL 4
REMARK VINA RESULT:   -10.262      3.776      9.728
REMARK INTER + INTRA:         -16.128
REMARK INTER:                 -15.601
REMARK INTRA:                  -0.526
REMARK UNBOUND:                -0.767
REMARK SMILES COc1cc2c(cc1OC)S[C@@H](C(O)=CCc1cc[n+](Cc3ccccc3)cc1)C2
REMARK SMILES IDX 15 1 13 2 14 3 12 5 30 6 11 7 5 8 6 9 4 10 7 11 3 12 8 13
REMARK SMILES IDX 2 14 1 15 9 16 10 17 16 18 17 19 18 20 29 21 19 22 28 23
REMARK SMILES IDX 20 24 21 25 22 26 23 27 27 28 24 29 26 30 25 31
REMARK H PARENT 14 4
ROOT
ATOM      1  C   UNL     1     -13.739 -44.967  27.329  1.00  0.00     0.020 C 
ENDROOT
BRANCH   1   2
ATOM      2  C   UNL     1     -14.187 -44.319  26.244  1.00  0.00     0.102 C 
BRANCH   2   3
ATOM      3  O   UNL     1     -14.284 -45.064  25.073  1.00  0.00    -0.511 OA
ATOM      4  H   UNL     1     -15.226 -45.093  24.809  1.00  0.00     0.293 HD
ENDBRANCH   2   3
BRANCH   2   5
ATOM      5  C   UNL     1     -14.623 -42.862  26.171  1.00  0.00     0.121 C 
ATOM      6  C   UNL     1     -15.010 -42.417  24.744  1.00  0.00     0.059 C 
ATOM      7  S   UNL     1     -16.092 -42.605  27.233  1.00  0.00    -0.114 SA
ATOM      8  C   UNL     1     -16.509 -42.426  24.634  1.00  0.00    -0.029 A 
ATOM      9  C   UNL     1     -17.183 -42.469  25.851  1.00  0.00     0.015 A 
ATOM     10  C   UNL     1     -17.220 -42.342  23.437  1.00  0.00     0.055 A 
ATOM     11  C   UNL     1     -18.565 -42.435  25.900  1.00  0.00     0.065 A 
ATOM     12  C   UNL     1     -18.623 -42.317  23.461  1.00  0.00     0.161 A 
ATOM     13  C   UNL     1     -19.290 -42.338  24.706  1.00  0.00     0.161 A 
BRANCH  12  14
ATOM     14  O   UNL     1     -19.402 -42.289  22.335  1.00  0.00    -0.493 OA
ATOM     15  C   UNL     1     -19.701 -41.026  21.757  1.00  0.00     0.278 C 
ENDBRANCH  12  14
BRANCH  13  16
ATOM     16  O   UNL     1     -20.651 -42.337  24.884  1.00  0.00    -0.493 OA
ATOM     17  C   UNL     1     -21.212 -41.077  25.243  1.00  0.00     0.278 C 
ENDBRANCH  13  16
ENDBRANCH   2   5
ENDBRANCH   1   2
BRANCH   1  18
ATOM     18  C   UNL     1     -12.658 -46.005  27.408  1.00  0.00     0.067 C 
BRANCH  18  19
ATOM     19  C   UNL     1     -11.561 -45.596  28.369  1.00  0.00    -0.032 A 
ATOM     20  C   UNL     1     -11.058 -46.499  29.306  1.00  0.00     0.075 A 
ATOM     21  C   UNL     1     -11.061 -44.293  28.367  1.00  0.00     0.075 A 
ATOM     22  C   UNL     1     -10.076 -46.091  30.203  1.00  0.00     0.308 A 
ATOM     23  C   UNL     1     -10.078 -43.928  29.282  1.00  0.00     0.308 A 
ATOM     24  N   UNL     1      -9.601 -44.825  30.177  1.00  0.00    -0.201 N 
BRANCH  24  25
ATOM     25  C   UNL     1      -8.562 -44.403  31.151  1.00  0.00     0.393 C 
BRANCH  25  26
ATOM     26  C   UNL     1      -9.165 -43.602  32.276  1.00  0.00     0.017 A 
ATOM     27  C   UNL     1     -10.555 -43.427  32.371  1.00  0.00     0.010 A 
ATOM     28  C   UNL     1      -8.338 -43.010  33.244  1.00  0.00     0.010 A 
ATOM     29  C   UNL     1     -11.103 -42.691  33.422  1.00  0.00     0.001 A 
ATOM     30  C   UNL     1      -8.893 -42.274  34.292  1.00  0.00     0.001 A 
ATOM     31  C   UNL     1     -10.273 -42.117  34.382  1.00  0.00     0.000 A 
ENDBRANCH  25  26
ENDBRANCH  24  25
ENDBRANCH  18  19
ENDBRANCH   1  18
TORSDOF 9
ENDMDL
MODEL 5
REMARK VINA RESULT:   -10.192      1.596      2.716
REMARK INTER + INTRA:         -16.023
REMARK INTER:                 -15.187
REMARK INTRA:                  -0.836
REMARK UNBOUND:                -0.767
REMARK SMILES COc1cc2c(cc1OC)S[C@@H](C(O)=CCc1cc[n+](Cc3ccccc3)cc1)C2
REMARK SMILES IDX 15 1 13 2 14 3 12 5 30 6 11 7 5 8 6 9 4 10 7 11 3 12 8 13
REMARK SMILES IDX 2 14 1 15 9 16 10 17 16 18 17 19 18 20 29 21 19 22 28 23
REMARK SMILES IDX 20 24 21 25 22 26 23 27 27 28 24 29 26 30 25 31
REMARK H PARENT 14 4
ROOT
ATOM      1  C   UNL     1     -11.157 -46.228  28.004  1.00  0.00     0.020 C 
ENDROOT
BRANCH   1   2
ATOM      2  C   UNL     1     -10.271 -45.764  28.899  1.00  0.00     0.102 C 
BRANCH   2   3
ATOM      3  O   UNL     1      -9.677 -46.710  29.729  1.00  0.00    -0.511 OA
ATOM      4  H   UNL     1      -9.284 -46.240  30.492  1.00  0.00     0.293 HD
ENDBRANCH   2   3
BRANCH   2   5
ATOM      5  C   UNL     1      -9.833 -44.318  29.078  1.00  0.00     0.121 C 
ATOM      6  C   UNL     1     -10.988 -43.384  29.502  1.00  0.00     0.059 C 
ATOM      7  S   UNL     1      -8.552 -44.218  30.383  1.00  0.00    -0.114 SA
ATOM      8  C   UNL     1     -10.888 -43.149  30.984  1.00  0.00    -0.029 A 
ATOM      9  C   UNL     1      -9.663 -43.491  31.547  1.00  0.00     0.015 A 
ATOM     10  C   UNL     1     -11.893 -42.583  31.769  1.00  0.00     0.055 A 
ATOM     11  C   UNL     1      -9.416 -43.283  32.893  1.00  0.00     0.065 A 
ATOM     12  C   UNL     1     -11.669 -42.373  33.139  1.00  0.00     0.161 A 
ATOM     13  C   UNL     1     -10.411 -42.704  33.689  1.00  0.00     0.161 A 
BRANCH  12  14
ATOM     14  O   UNL     1     -12.615 -41.873  33.994  1.00  0.00    -0.493 OA
ATOM     15  C   UNL     1     -13.949 -42.346  33.871  1.00  0.00     0.278 C 
ENDBRANCH  12  14
BRANCH  13  16
ATOM     16  O   UNL     1     -10.057 -42.572  35.008  1.00  0.00    -0.493 OA
ATOM     17  C   UNL     1      -9.001 -41.648  35.260  1.00  0.00     0.278 C 
ENDBRANCH  13  16
ENDBRANCH   2   5
ENDBRANCH   1   2
BRANCH   1  18
ATOM     18  C   UNL     1     -12.654 -46.232  28.100  1.00  0.00     0.067 C 
BRANCH  18  19
ATOM     19  C   UNL     1     -13.277 -45.240  27.139  1.00  0.00    -0.032 A 
ATOM     20  C   UNL     1     -13.803 -45.662  25.918  1.00  0.00     0.075 A 
ATOM     21  C   UNL     1     -13.296 -43.876  27.435  1.00  0.00     0.075 A 
ATOM     22  C   UNL     1     -14.338 -44.729  25.035  1.00  0.00     0.308 A 
ATOM     23  C   UNL     1     -13.841 -42.978  26.522  1.00  0.00     0.308 A 
ATOM     24  N   UNL     1     -14.353 -43.413  25.347  1.00  0.00    -0.201 N 
BRANCH  24  25
ATOM     25  C   UNL     1     -14.915 -42.430  24.386  1.00  0.00     0.393 C 
BRANCH  25  26
ATOM     26  C   UNL     1     -16.421 -42.459  24.396  1.00  0.00     0.017 A 
ATOM     27  C   UNL     1     -17.150 -42.422  23.197  1.00  0.00     0.010 A 
ATOM     28  C   UNL     1     -17.120 -42.516  25.613  1.00  0.00     0.010 A 
ATOM     29  C   UNL     1     -18.545 -42.458  23.216  1.00  0.00     0.001 A 
ATOM     30  C   UNL     1     -18.514 -42.551  25.626  1.00  0.00     0.001 A 
ATOM     31  C   UNL     1     -19.226 -42.524  24.430  1.00  0.00     0.000 A 
ENDBRANCH  25  26
ENDBRANCH  24  25
ENDBRANCH  18  19
ENDBRANCH   1  18
TORSDOF 9
ENDMDL
MODEL 6
REMARK VINA RESULT:   -10.076      1.854      2.576
REMARK INTER + INTRA:         -15.850
REMARK INTER:                 -14.911
REMARK INTRA:                  -0.939
REMARK UNBOUND:                -0.767
REMARK SMILES COc1cc2c(cc1OC)S[C@@H](C(O)=CCc1cc[n+](Cc3ccccc3)cc1)C2
REMARK SMILES IDX 15 1 13 2 14 3 12 5 30 6 11 7 5 8 6 9 4 10 7 11 3 12 8 13
REMARK SMILES IDX 2 14 1 15 9 16 10 17 16 18 17 19 18 20 29 21 19 22 28 23
REMARK SMILES IDX 20 24 21 25 22 26 23 27 27 28 24 29 26 30 25 31
REMARK H PARENT 14 4
ROOT
ATOM      1  C   UNL     1     -13.249 -44.561  27.276  1.00  0.00     0.020 C 
ENDROOT
BRANCH   1   2
ATOM      2  C   UNL     1     -12.265 -44.534  28.188  1.00  0.00     0.102 C 
BRANCH   2   3
ATOM      3  O   UNL     1     -11.194 -43.687  27.919  1.00  0.00    -0.511 OA
ATOM      4  H   UNL     1     -10.651 -43.618  28.729  1.00  0.00     0.293 HD
ENDBRANCH   2   3
BRANCH   2   5
ATOM      5  C   UNL     1     -12.216 -45.313  29.494  1.00  0.00     0.121 C 
ATOM      6  C   UNL     1     -11.043 -44.890  30.406  1.00  0.00     0.059 C 
ATOM      7  S   UNL     1     -13.760 -45.035  30.437  1.00  0.00    -0.114 SA
ATOM      8  C   UNL     1     -11.578 -43.973  31.471  1.00  0.00    -0.029 A 
ATOM      9  C   UNL     1     -12.961 -43.995  31.619  1.00  0.00     0.015 A 
ATOM     10  C   UNL     1     -10.791 -43.183  32.310  1.00  0.00     0.055 A 
ATOM     11  C   UNL     1     -13.585 -43.235  32.593  1.00  0.00     0.065 A 
ATOM     12  C   UNL     1     -11.402 -42.395  33.297  1.00  0.00     0.161 A 
ATOM     13  C   UNL     1     -12.805 -42.448  33.449  1.00  0.00     0.161 A 
BRANCH  12  14
ATOM     14  O   UNL     1     -10.714 -41.551  34.129  1.00  0.00    -0.493 OA
ATOM     15  C   UNL     1      -9.555 -42.050  34.782  1.00  0.00     0.278 C 
ENDBRANCH  12  14
BRANCH  13  16
ATOM     16  O   UNL     1     -13.539 -41.723  34.355  1.00  0.00    -0.493 OA
ATOM     17  C   UNL     1     -14.917 -41.566  34.028  1.00  0.00     0.278 C 
ENDBRANCH  13  16
ENDBRANCH   2   5
ENDBRANCH   1   2
BRANCH   1  18
ATOM     18  C   UNL     1     -13.567 -43.537  26.226  1.00  0.00     0.067 C 
BRANCH  18  19
ATOM     19  C   UNL     1     -15.037 -43.172  26.231  1.00  0.00    -0.032 A 
ATOM     20  C   UNL     1     -15.745 -43.044  25.035  1.00  0.00     0.075 A 
ATOM     21  C   UNL     1     -15.704 -42.912  27.429  1.00  0.00     0.075 A 
ATOM     22  C   UNL     1     -17.086 -42.673  25.061  1.00  0.00     0.308 A 
ATOM     23  C   UNL     1     -17.045 -42.543  27.408  1.00  0.00     0.308 A 
ATOM     24  N   UNL     1     -17.713 -42.433  26.235  1.00  0.00    -0.201 N 
BRANCH  24  25
ATOM     25  C   UNL     1     -19.141 -42.025  26.243  1.00  0.00     0.393 C 
BRANCH  25  26
ATOM     26  C   UNL     1     -20.048 -43.218  26.395  1.00  0.00     0.017 A 
ATOM     27  C   UNL     1     -20.502 -43.925  25.269  1.00  0.00     0.010 A 
ATOM     28  C   UNL     1     -20.460 -43.636  27.670  1.00  0.00     0.010 A 
ATOM     29  C   UNL     1     -21.335 -45.035  25.421  1.00  0.00     0.001 A 
ATOM     30  C   UNL     1     -21.293 -44.745  27.815  1.00  0.00     0.001 A 
ATOM     31  C   UNL     1     -21.729 -45.444  26.692  1.00  0.00     0.000 A 
ENDBRANCH  25  26
ENDBRANCH  24  25
ENDBRANCH  18  19
ENDBRANCH   1  18
TORSDOF 9
ENDMDL
MODEL 7
REMARK VINA RESULT:   -10.042      2.481      3.720
REMARK INTER + INTRA:         -15.799
REMARK INTER:                 -15.016
REMARK INTRA:                  -0.783
REMARK UNBOUND:                -0.767
REMARK SMILES COc1cc2c(cc1OC)S[C@@H](C(O)=CCc1cc[n+](Cc3ccccc3)cc1)C2
REMARK SMILES IDX 15 1 13 2 14 3 12 5 30 6 11 7 5 8 6 9 4 10 7 11 3 12 8 13
REMARK SMILES IDX 2 14 1 15 9 16 10 17 16 18 17 19 18 20 29 21 19 22 28 23
REMARK SMILES IDX 20 24 21 25 22 26 23 27 27 28 24 29 26 30 25 31
REMARK H PARENT 14 4
ROOT
ATOM      1  C   UNL     1     -14.168 -44.557  26.326  1.00  0.00     0.020 C 
ENDROOT
BRANCH   1   2
ATOM      2  C   UNL     1     -13.278 -44.503  27.328  1.00  0.00     0.102 C 
BRANCH   2   3
ATOM      3  O   UNL     1     -12.587 -43.305  27.478  1.00  0.00    -0.511 OA
ATOM      4  H   UNL     1     -13.087 -42.742  28.103  1.00  0.00     0.293 HD
ENDBRANCH   2   3
BRANCH   2   5
ATOM      5  C   UNL     1     -12.969 -45.607  28.329  1.00  0.00     0.121 C 
ATOM      6  C   UNL     1     -11.463 -45.934  28.423  1.00  0.00     0.059 C 
ATOM      7  S   UNL     1     -13.515 -45.096  30.000  1.00  0.00    -0.114 SA
ATOM      8  C   UNL     1     -10.906 -45.258  29.646  1.00  0.00    -0.029 A 
ATOM      9  C   UNL     1     -11.862 -44.826  30.560  1.00  0.00     0.015 A 
ATOM     10  C   UNL     1      -9.547 -45.101  29.919  1.00  0.00     0.055 A 
ATOM     11  C   UNL     1     -11.490 -44.229  31.751  1.00  0.00     0.065 A 
ATOM     12  C   UNL     1      -9.145 -44.488  31.116  1.00  0.00     0.161 A 
ATOM     13  C   UNL     1     -10.129 -44.077  32.043  1.00  0.00     0.161 A 
BRANCH  12  14
ATOM     14  O   UNL     1      -7.837 -44.245  31.443  1.00  0.00    -0.493 OA
ATOM     15  C   UNL     1      -7.001 -45.356  31.735  1.00  0.00     0.278 C 
ENDBRANCH  12  14
BRANCH  13  16
ATOM     16  O   UNL     1      -9.887 -43.452  33.240  1.00  0.00    -0.493 OA
ATOM     17  C   UNL     1     -10.777 -42.384  33.554  1.00  0.00     0.278 C 
ENDBRANCH  13  16
ENDBRANCH   2   5
ENDBRANCH   1   2
BRANCH   1  18
ATOM     18  C   UNL     1     -14.645 -43.436  25.449  1.00  0.00     0.067 C 
BRANCH  18  19
ATOM     19  C   UNL     1     -16.021 -42.954  25.860  1.00  0.00    -0.032 A 
ATOM     20  C   UNL     1     -16.337 -42.754  27.204  1.00  0.00     0.075 A 
ATOM     21  C   UNL     1     -17.017 -42.743  24.905  1.00  0.00     0.075 A 
ATOM     22  C   UNL     1     -17.618 -42.345  27.561  1.00  0.00     0.308 A 
ATOM     23  C   UNL     1     -18.285 -42.334  25.307  1.00  0.00     0.308 A 
ATOM     24  N   UNL     1     -18.564 -42.139  26.617  1.00  0.00    -0.201 N 
BRANCH  24  25
ATOM     25  C   UNL     1     -19.930 -41.717  27.018  1.00  0.00     0.393 C 
BRANCH  25  26
ATOM     26  C   UNL     1     -20.882 -42.885  27.021  1.00  0.00     0.017 A 
ATOM     27  C   UNL     1     -20.665 -43.988  27.861  1.00  0.00     0.010 A 
ATOM     28  C   UNL     1     -22.000 -42.888  26.172  1.00  0.00     0.010 A 
ATOM     29  C   UNL     1     -21.557 -45.062  27.862  1.00  0.00     0.001 A 
ATOM     30  C   UNL     1     -22.888 -43.964  26.177  1.00  0.00     0.001 A 
ATOM     31  C   UNL     1     -22.668 -45.048  27.022  1.00  0.00     0.000 A 
ENDBRANCH  25  26
ENDBRANCH  24  25
ENDBRANCH  18  19
ENDBRANCH   1  18
TORSDOF 9
ENDMDL
MODEL 8
REMARK VINA RESULT:    -9.892      2.086      3.677
REMARK INTER + INTRA:         -15.575
REMARK INTER:                 -14.910
REMARK INTRA:                  -0.664
REMARK UNBOUND:                -0.767
REMARK SMILES COc1cc2c(cc1OC)S[C@@H](C(O)=CCc1cc[n+](Cc3ccccc3)cc1)C2
REMARK SMILES IDX 15 1 13 2 14 3 12 5 30 6 11 7 5 8 6 9 4 10 7 11 3 12 8 13
REMARK SMILES IDX 2 14 1 15 9 16 10 17 16 18 17 19 18 20 29 21 19 22 28 23
REMARK SMILES IDX 20 24 21 25 22 26 23 27 27 28 24 29 26 30 25 31
REMARK H PARENT 14 4
ROOT
ATOM      1  C   UNL     1     -14.403 -44.262  26.038  1.00  0.00     0.020 C 
ENDROOT
BRANCH   1   2
ATOM      2  C   UNL     1     -13.553 -44.281  27.075  1.00  0.00     0.102 C 
BRANCH   2   3
ATOM      3  O   UNL     1     -12.852 -43.106  27.324  1.00  0.00    -0.511 OA
ATOM      4  H   UNL     1     -12.792 -42.605  26.485  1.00  0.00     0.293 HD
ENDBRANCH   2   3
BRANCH   2   5
ATOM      5  C   UNL     1     -13.299 -45.448  28.020  1.00  0.00     0.121 C 
ATOM      6  C   UNL     1     -11.815 -45.872  28.072  1.00  0.00     0.059 C 
ATOM      7  S   UNL     1     -13.786 -44.980  29.722  1.00  0.00    -0.114 SA
ATOM      8  C   UNL     1     -11.198 -45.289  29.313  1.00  0.00    -0.029 A 
ATOM      9  C   UNL     1     -12.111 -44.841  30.263  1.00  0.00     0.015 A 
ATOM     10  C   UNL     1      -9.828 -45.229  29.568  1.00  0.00     0.055 A 
ATOM     11  C   UNL     1     -11.683 -44.324  31.473  1.00  0.00     0.065 A 
ATOM     12  C   UNL     1      -9.370 -44.699  30.784  1.00  0.00     0.161 A 
ATOM     13  C   UNL     1     -10.311 -44.271  31.746  1.00  0.00     0.161 A 
BRANCH  12  14
ATOM     14  O   UNL     1      -8.044 -44.554  31.097  1.00  0.00    -0.493 OA
ATOM     15  C   UNL     1      -7.320 -45.706  31.506  1.00  0.00     0.278 C 
ENDBRANCH  12  14
BRANCH  13  16
ATOM     16  O   UNL     1     -10.011 -43.717  32.966  1.00  0.00    -0.493 OA
ATOM     17  C   UNL     1     -10.827 -42.612  33.344  1.00  0.00     0.278 C 
ENDBRANCH  13  16
ENDBRANCH   2   5
ENDBRANCH   1   2
BRANCH   1  18
ATOM     18  C   UNL     1     -14.537 -43.217  24.970  1.00  0.00     0.067 C 
BRANCH  18  19
ATOM     19  C   UNL     1     -15.989 -42.944  24.634  1.00  0.00    -0.032 A 
ATOM     20  C   UNL     1     -16.936 -42.776  25.645  1.00  0.00     0.075 A 
ATOM     21  C   UNL     1     -16.418 -42.900  23.307  1.00  0.00     0.075 A 
ATOM     22  C   UNL     1     -18.270 -42.562  25.315  1.00  0.00     0.308 A 
ATOM     23  C   UNL     1     -17.763 -42.684  23.023  1.00  0.00     0.308 A 
ATOM     24  N   UNL     1     -18.662 -42.515  24.021  1.00  0.00    -0.201 N 
BRANCH  24  25
ATOM     25  C   UNL     1     -20.093 -42.300  23.687  1.00  0.00     0.393 C 
BRANCH  25  26
ATOM     26  C   UNL     1     -20.245 -41.339  22.537  1.00  0.00     0.017 A 
ATOM     27  C   UNL     1     -20.583 -41.799  21.254  1.00  0.00     0.010 A 
ATOM     28  C   UNL     1     -20.040 -39.964  22.732  1.00  0.00     0.010 A 
ATOM     29  C   UNL     1     -20.730 -40.899  20.197  1.00  0.00     0.001 A 
ATOM     30  C   UNL     1     -20.187 -39.069  21.672  1.00  0.00     0.001 A 
ATOM     31  C   UNL     1     -20.533 -39.537  20.407  1.00  0.00     0.000 A 
ENDBRANCH  25  26
ENDBRANCH  24  25
ENDBRANCH  18  19
ENDBRANCH   1  18
TORSDOF 9
ENDMDL
MODEL 9
REMARK VINA RESULT:    -9.808      3.899      9.886
REMARK INTER + INTRA:         -15.448
REMARK INTER:                 -14.662
REMARK INTRA:                  -0.786
REMARK UNBOUND:                -0.767
REMARK SMILES COc1cc2c(cc1OC)S[C@@H](C(O)=CCc1cc[n+](Cc3ccccc3)cc1)C2
REMARK SMILES IDX 15 1 13 2 14 3 12 5 30 6 11 7 5 8 6 9 4 10 7 11 3 12 8 13
REMARK SMILES IDX 2 14 1 15 9 16 10 17 16 18 17 19 18 20 29 21 19 22 28 23
REMARK SMILES IDX 20 24 21 25 22 26 23 27 27 28 24 29 26 30 25 31
REMARK H PARENT 14 4
ROOT
ATOM      1  C   UNL     1     -14.202 -45.084  26.520  1.00  0.00     0.020 C 
ENDROOT
BRANCH   1   2
ATOM      2  C   UNL     1     -14.515 -44.286  25.487  1.00  0.00     0.102 C 
BRANCH   2   3
ATOM      3  O   UNL     1     -14.467 -44.863  24.222  1.00  0.00    -0.511 OA
ATOM      4  H   UNL     1     -13.532 -45.068  24.017  1.00  0.00     0.293 HD
ENDBRANCH   2   3
BRANCH   2   5
ATOM      5  C   UNL     1     -14.941 -42.827  25.563  1.00  0.00     0.121 C 
ATOM      6  C   UNL     1     -15.756 -42.370  24.333  1.00  0.00     0.059 C 
ATOM      7  S   UNL     1     -15.996 -42.568  27.036  1.00  0.00    -0.114 SA
ATOM      8  C   UNL     1     -17.213 -42.370  24.704  1.00  0.00    -0.029 A 
ATOM      9  C   UNL     1     -17.467 -42.417  26.071  1.00  0.00     0.015 A 
ATOM     10  C   UNL     1     -18.266 -42.274  23.793  1.00  0.00     0.055 A 
ATOM     11  C   UNL     1     -18.763 -42.376  26.556  1.00  0.00     0.065 A 
ATOM     12  C   UNL     1     -19.589 -42.242  24.261  1.00  0.00     0.161 A 
ATOM     13  C   UNL     1     -19.827 -42.267  25.652  1.00  0.00     0.161 A 
BRANCH  12  14
ATOM     14  O   UNL     1     -20.684 -42.202  23.439  1.00  0.00    -0.493 OA
ATOM     15  C   UNL     1     -20.529 -42.631  22.093  1.00  0.00     0.278 C 
ENDBRANCH  12  14
BRANCH  13  16
ATOM     16  O   UNL     1     -21.062 -42.260  26.252  1.00  0.00    -0.493 OA
ATOM     17  C   UNL     1     -21.499 -40.986  26.719  1.00  0.00     0.278 C 
ENDBRANCH  13  16
ENDBRANCH   2   5
ENDBRANCH   1   2
BRANCH   1  18
ATOM     18  C   UNL     1     -12.868 -45.682  26.857  1.00  0.00     0.067 C 
BRANCH  18  19
ATOM     19  C   UNL     1     -12.407 -45.271  28.240  1.00  0.00    -0.032 A 
ATOM     20  C   UNL     1     -11.589 -44.154  28.418  1.00  0.00     0.075 A 
ATOM     21  C   UNL     1     -12.752 -46.026  29.362  1.00  0.00     0.075 A 
ATOM     22  C   UNL     1     -11.147 -43.815  29.693  1.00  0.00     0.308 A 
ATOM     23  C   UNL     1     -12.288 -45.651  30.618  1.00  0.00     0.308 A 
ATOM     24  N   UNL     1     -11.502 -44.558  30.766  1.00  0.00    -0.201 N 
BRANCH  24  25
ATOM     25  C   UNL     1     -11.009 -44.189  32.117  1.00  0.00     0.393 C 
BRANCH  25  26
ATOM     26  C   UNL     1      -9.505 -44.265  32.188  1.00  0.00     0.017 A 
ATOM     27  C   UNL     1      -8.760 -43.232  32.778  1.00  0.00     0.010 A 
ATOM     28  C   UNL     1      -8.827 -45.372  31.653  1.00  0.00     0.010 A 
ATOM     29  C   UNL     1      -7.368 -43.316  32.846  1.00  0.00     0.001 A 
ATOM     30  C   UNL     1      -7.436 -45.449  31.723  1.00  0.00     0.001 A 
ATOM     31  C   UNL     1      -6.708 -44.423  32.320  1.00  0.00     0.000 A 
ENDBRANCH  25  26
ENDBRANCH  24  25
ENDBRANCH  18  19
ENDBRANCH   1  18
TORSDOF 9
ENDMDL
