MODEL 1
REMARK VINA RESULT:    -9.004      0.000      0.000
REMARK INTER + INTRA:          -9.267
REMARK INTER:                  -9.267
REMARK INTRA:                   0.000
REMARK UNBOUND:                 0.000
REMARK SMILES N=c1c2c([nH]c3cc(Cl)ccc13)CCCC2
REMARK SMILES IDX 5 1 4 2 3 3 2 4 12 5 11 6 10 7 8 8 9 9 7 10 6 11 16 12 15 13
REMARK SMILES IDX 14 14 13 15 1 17
REMARK H PARENT 5 16 1 18
ROOT
ATOM      1  N   UNL     1     -17.686 -42.406  26.815  1.00  0.00    -0.358 N 
ATOM      2  C   UNL     1     -16.595 -42.846  26.100  1.00  0.00     0.020 A 
ATOM      3  C   UNL     1     -16.580 -42.932  24.751  1.00  0.00    -0.003 A 
ATOM      4  C   UNL     1     -17.826 -42.543  23.998  1.00  0.00     0.068 A 
ATOM      5  C   UNL     1     -18.963 -41.996  24.793  1.00  0.00     0.023 A 
ATOM      6  C   UNL     1     -20.131 -41.557  24.157  1.00  0.00     0.014 A 
ATOM      7  C   UNL     1     -21.190 -41.057  24.916  1.00  0.00     0.021 A 
ATOM      8  C   UNL     1     -21.079 -41.005  26.304  1.00  0.00     0.043 A 
ATOM      9  Cl  UNL     1     -22.387 -40.398  27.242  1.00  0.00    -0.084 Cl
ATOM     10  C   UNL     1     -19.916 -41.444  26.943  1.00  0.00     0.047 A 
ATOM     11  C   UNL     1     -18.845 -41.934  26.189  1.00  0.00     0.049 A 
ATOM     12  C   UNL     1     -15.377 -43.380  23.966  1.00  0.00     0.039 C 
ATOM     13  C   UNL     1     -14.092 -43.452  24.791  1.00  0.00     0.005 C 
ATOM     14  C   UNL     1     -14.356 -44.068  26.155  1.00  0.00     0.007 C 
ATOM     15  C   UNL     1     -15.388 -43.247  26.926  1.00  0.00     0.054 C 
ATOM     16  H   UNL     1     -17.578 -42.255  27.811  1.00  0.00     0.166 HD
ENDROOT
BRANCH   4  17
ATOM     17  N   UNL     1     -17.959 -42.663  22.713  1.00  0.00    -0.300 NA
ATOM     18  H   UNL     1     -18.480 -41.884  22.307  1.00  0.00     0.188 HD
ENDBRANCH   4  17
TORSDOF 1
ENDMDL
MODEL 2
REMARK VINA RESULT:    -8.884      7.016      9.619
REMARK INTER + INTRA:          -9.143
REMARK INTER:                  -9.143
REMARK INTRA:                   0.000
REMARK UNBOUND:                 0.000
REMARK SMILES N=c1c2c([nH]c3cc(Cl)ccc13)CCCC2
REMARK SMILES IDX 5 1 4 2 3 3 2 4 12 5 11 6 10 7 8 8 9 9 7 10 6 11 16 12 15 13
REMARK SMILES IDX 14 14 13 15 1 17
REMARK H PARENT 5 16 1 18
ROOT
ATOM      1  N   UNL     1     -12.520 -43.803  30.224  1.00  0.00    -0.358 N 
ATOM      2  C   UNL     1     -12.462 -44.707  29.186  1.00  0.00     0.020 A 
ATOM      3  C   UNL     1     -11.407 -45.525  28.977  1.00  0.00    -0.003 A 
ATOM      4  C   UNL     1     -10.231 -45.429  29.914  1.00  0.00     0.068 A 
ATOM      5  C   UNL     1     -10.357 -44.498  31.073  1.00  0.00     0.023 A 
ATOM      6  C   UNL     1      -9.330 -44.399  32.022  1.00  0.00     0.014 A 
ATOM      7  C   UNL     1      -9.457 -43.517  33.095  1.00  0.00     0.021 A 
ATOM      8  C   UNL     1     -10.605 -42.734  33.211  1.00  0.00     0.043 A 
ATOM      9  Cl  UNL     1     -10.759 -41.638  34.528  1.00  0.00    -0.084 Cl
ATOM     10  C   UNL     1     -11.630 -42.828  32.266  1.00  0.00     0.047 A 
ATOM     11  C   UNL     1     -11.516 -43.720  31.194  1.00  0.00     0.049 A 
ATOM     12  C   UNL     1     -11.356 -46.537  27.864  1.00  0.00     0.039 C 
ATOM     13  C   UNL     1     -12.700 -46.765  27.173  1.00  0.00     0.005 C 
ATOM     14  C   UNL     1     -13.422 -45.446  26.941  1.00  0.00     0.007 C 
ATOM     15  C   UNL     1     -13.667 -44.727  28.266  1.00  0.00     0.054 C 
ATOM     16  H   UNL     1     -13.392 -43.313  30.385  1.00  0.00     0.166 HD
ENDROOT
BRANCH   4  17
ATOM     17  N   UNL     1      -9.132 -46.100  29.764  1.00  0.00    -0.300 NA
ATOM     18  H   UNL     1      -8.509 -45.670  29.079  1.00  0.00     0.188 HD
ENDBRANCH   4  17
TORSDOF 1
ENDMDL
MODEL 3
REMARK VINA RESULT:    -8.689      6.754      9.304
REMARK INTER + INTRA:          -8.943
REMARK INTER:                  -8.943
REMARK INTRA:                   0.000
REMARK UNBOUND:                 0.000
REMARK SMILES N=c1c2c([nH]c3cc(Cl)ccc13)CCCC2
REMARK SMILES IDX 5 1 4 2 3 3 2 4 12 5 11 6 10 7 8 8 9 9 7 10 6 11 16 12 15 13
REMARK SMILES IDX 14 14 13 15 1 17
REMARK H PARENT 5 16 1 18
ROOT
ATOM      1  N   UNL     1     -10.627 -45.479  29.711  1.00  0.00    -0.358 N 
ATOM      2  C   UNL     1      -9.451 -45.196  30.370  1.00  0.00     0.020 A 
ATOM      3  C   UNL     1      -8.733 -44.071  30.152  1.00  0.00    -0.003 A 
ATOM      4  C   UNL     1      -9.238 -43.090  29.126  1.00  0.00     0.068 A 
ATOM      5  C   UNL     1     -10.553 -43.385  28.488  1.00  0.00     0.023 A 
ATOM      6  C   UNL     1     -11.116 -42.489  27.569  1.00  0.00     0.014 A 
ATOM      7  C   UNL     1     -12.342 -42.784  26.972  1.00  0.00     0.021 A 
ATOM      8  C   UNL     1     -12.995 -43.973  27.290  1.00  0.00     0.043 A 
ATOM      9  Cl  UNL     1     -14.502 -44.343  26.548  1.00  0.00    -0.084 Cl
ATOM     10  C   UNL     1     -12.436 -44.871  28.204  1.00  0.00     0.047 A 
ATOM     11  C   UNL     1     -11.214 -44.577  28.817  1.00  0.00     0.049 A 
ATOM     12  C   UNL     1      -7.466 -43.745  30.896  1.00  0.00     0.039 C 
ATOM     13  C   UNL     1      -7.214 -44.638  32.111  1.00  0.00     0.005 C 
ATOM     14  C   UNL     1      -7.530 -46.091  31.792  1.00  0.00     0.007 C 
ATOM     15  C   UNL     1      -8.989 -46.242  31.365  1.00  0.00     0.054 C 
ATOM     16  H   UNL     1     -11.167 -46.280  30.016  1.00  0.00     0.166 HD
ENDROOT
BRANCH   4  17
ATOM     17  N   UNL     1      -8.594 -42.021  28.773  1.00  0.00    -0.300 NA
ATOM     18  H   UNL     1      -8.125 -41.576  29.564  1.00  0.00     0.188 HD
ENDBRANCH   4  17
TORSDOF 1
ENDMDL
MODEL 4
REMARK VINA RESULT:    -8.670      6.196      8.712
REMARK INTER + INTRA:          -8.924
REMARK INTER:                  -8.924
REMARK INTRA:                   0.000
REMARK UNBOUND:                 0.000
REMARK SMILES N=c1c2c([nH]c3cc(Cl)ccc13)CCCC2
REMARK SMILES IDX 5 1 4 2 3 3 2 4 12 5 11 6 10 7 8 8 9 9 7 10 6 11 16 12 15 13
REMARK SMILES IDX 14 14 13 15 1 17
REMARK H PARENT 5 16 1 18
ROOT
ATOM      1  N   UNL     1     -10.252 -43.409  28.768  1.00  0.00    -0.358 N 
ATOM      2  C   UNL     1      -9.596 -44.043  29.799  1.00  0.00     0.020 A 
ATOM      3  C   UNL     1     -10.141 -45.053  30.512  1.00  0.00    -0.003 A 
ATOM      4  C   UNL     1     -11.541 -45.494  30.170  1.00  0.00     0.068 A 
ATOM      5  C   UNL     1     -12.194 -44.843  28.998  1.00  0.00     0.023 A 
ATOM      6  C   UNL     1     -13.472 -45.243  28.582  1.00  0.00     0.014 A 
ATOM      7  C   UNL     1     -14.074 -44.618  27.490  1.00  0.00     0.021 A 
ATOM      8  C   UNL     1     -13.402 -43.594  26.825  1.00  0.00     0.043 A 
ATOM      9  Cl  UNL     1     -14.148 -42.815  25.484  1.00  0.00    -0.084 Cl
ATOM     10  C   UNL     1     -12.130 -43.191  27.238  1.00  0.00     0.047 A 
ATOM     11  C   UNL     1     -11.512 -43.821  28.323  1.00  0.00     0.049 A 
ATOM     12  C   UNL     1      -9.413 -45.770  31.617  1.00  0.00     0.039 C 
ATOM     13  C   UNL     1      -7.917 -45.460  31.675  1.00  0.00     0.005 C 
ATOM     14  C   UNL     1      -7.661 -43.976  31.462  1.00  0.00     0.007 C 
ATOM     15  C   UNL     1      -8.204 -43.527  30.106  1.00  0.00     0.054 C 
ATOM     16  H   UNL     1      -9.733 -42.745  28.205  1.00  0.00     0.166 HD
ENDROOT
BRANCH   4  17
ATOM     17  N   UNL     1     -12.197 -46.393  30.836  1.00  0.00    -0.300 NA
ATOM     18  H   UNL     1     -11.887 -47.340  30.611  1.00  0.00     0.188 HD
ENDBRANCH   4  17
TORSDOF 1
ENDMDL
MODEL 5
REMARK VINA RESULT:    -8.625      1.043      2.597
REMARK INTER + INTRA:          -8.877
REMARK INTER:                  -8.877
REMARK INTRA:                   0.000
REMARK UNBOUND:                 0.000
REMARK SMILES N=c1c2c([nH]c3cc(Cl)ccc13)CCCC2
REMARK SMILES IDX 5 1 4 2 3 3 2 4 12 5 11 6 10 7 8 8 9 9 7 10 6 11 16 12 15 13
REMARK SMILES IDX 14 14 13 15 1 17
REMARK H PARENT 5 16 1 18
ROOT
ATOM      1  N   UNL     1     -17.632 -42.337  24.361  1.00  0.00    -0.358 N 
ATOM      2  C   UNL     1     -16.505 -42.856  24.960  1.00  0.00     0.020 A 
ATOM      3  C   UNL     1     -16.360 -42.959  26.300  1.00  0.00    -0.003 A 
ATOM      4  C   UNL     1     -17.479 -42.464  27.179  1.00  0.00     0.068 A 
ATOM      5  C   UNL     1     -18.717 -41.982  26.501  1.00  0.00     0.023 A 
ATOM      6  C   UNL     1     -19.824 -41.563  27.253  1.00  0.00     0.014 A 
ATOM      7  C   UNL     1     -20.971 -41.104  26.605  1.00  0.00     0.021 A 
ATOM      8  C   UNL     1     -21.004 -41.060  25.212  1.00  0.00     0.043 A 
ATOM      9  Cl  UNL     1     -22.415 -40.485  24.412  1.00  0.00    -0.084 Cl
ATOM     10  C   UNL     1     -19.903 -41.474  24.459  1.00  0.00     0.047 A 
ATOM     11  C   UNL     1     -18.754 -41.948  25.100  1.00  0.00     0.049 A 
ATOM     12  C   UNL     1     -15.144 -43.557  26.954  1.00  0.00     0.039 C 
ATOM     13  C   UNL     1     -14.221 -44.297  25.986  1.00  0.00     0.005 C 
ATOM     14  C   UNL     1     -14.055 -43.518  24.691  1.00  0.00     0.007 C 
ATOM     15  C   UNL     1     -15.409 -43.306  24.014  1.00  0.00     0.054 C 
ATOM     16  H   UNL     1     -17.714 -42.406  23.354  1.00  0.00     0.166 HD
ENDROOT
BRANCH   4  17
ATOM     17  N   UNL     1     -17.420 -42.434  28.474  1.00  0.00    -0.300 NA
ATOM     18  H   UNL     1     -16.594 -42.916  28.832  1.00  0.00     0.188 HD
ENDBRANCH   4  17
TORSDOF 1
ENDMDL
MODEL 6
REMARK VINA RESULT:    -8.503      2.549      5.298
REMARK INTER + INTRA:          -8.752
REMARK INTER:                  -8.752
REMARK INTRA:                   0.000
REMARK UNBOUND:                 0.000
REMARK SMILES N=c1c2c([nH]c3cc(Cl)ccc13)CCCC2
REMARK SMILES IDX 5 1 4 2 3 3 2 4 12 5 11 6 10 7 8 8 9 9 7 10 6 11 16 12 15 13
REMARK SMILES IDX 14 14 13 15 1 17
REMARK H PARENT 5 16 1 18
ROOT
ATOM      1  N   UNL     1     -17.752 -42.339  26.800  1.00  0.00    -0.358 N 
ATOM      2  C   UNL     1     -18.881 -41.993  26.090  1.00  0.00     0.020 A 
ATOM      3  C   UNL     1     -18.933 -41.988  24.740  1.00  0.00    -0.003 A 
ATOM      4  C   UNL     1     -17.689 -42.363  23.976  1.00  0.00     0.068 A 
ATOM      5  C   UNL     1     -16.508 -42.810  24.771  1.00  0.00     0.023 A 
ATOM      6  C   UNL     1     -15.336 -43.232  24.129  1.00  0.00     0.014 A 
ATOM      7  C   UNL     1     -14.236 -43.637  24.887  1.00  0.00     0.021 A 
ATOM      8  C   UNL     1     -14.311 -43.611  26.278  1.00  0.00     0.043 A 
ATOM      9  Cl  UNL     1     -12.953 -44.101  27.214  1.00  0.00    -0.084 Cl
ATOM     10  C   UNL     1     -15.477 -43.189  26.922  1.00  0.00     0.047 A 
ATOM     11  C   UNL     1     -16.589 -42.794  26.171  1.00  0.00     0.049 A 
ATOM     12  C   UNL     1     -20.175 -41.643  23.964  1.00  0.00     0.039 C 
ATOM     13  C   UNL     1     -21.441 -41.581  24.817  1.00  0.00     0.005 C 
ATOM     14  C   UNL     1     -21.173 -40.873  26.136  1.00  0.00     0.007 C 
ATOM     15  C   UNL     1     -20.084 -41.599  26.924  1.00  0.00     0.054 C 
ATOM     16  H   UNL     1     -17.829 -42.435  27.806  1.00  0.00     0.166 HD
ENDROOT
BRANCH   4  17
ATOM     17  N   UNL     1     -17.594 -42.314  22.684  1.00  0.00    -0.300 NA
ATOM     18  H   UNL     1     -16.964 -41.573  22.373  1.00  0.00     0.188 HD
ENDBRANCH   4  17
TORSDOF 1
ENDMDL
MODEL 7
REMARK VINA RESULT:    -8.502      7.828     10.474
REMARK INTER + INTRA:          -8.751
REMARK INTER:                  -8.751
REMARK INTRA:                   0.000
REMARK UNBOUND:                 0.000
REMARK SMILES N=c1c2c([nH]c3cc(Cl)ccc13)CCCC2
REMARK SMILES IDX 5 1 4 2 3 3 2 4 12 5 11 6 10 7 8 8 9 9 7 10 6 11 16 12 15 13
REMARK SMILES IDX 14 14 13 15 1 17
REMARK H PARENT 5 16 1 18
ROOT
ATOM      1  N   UNL     1      -9.735 -45.227  29.848  1.00  0.00    -0.358 N 
ATOM      2  C   UNL     1     -10.969 -45.354  29.248  1.00  0.00     0.020 A 
ATOM      3  C   UNL     1     -12.094 -44.794  29.746  1.00  0.00    -0.003 A 
ATOM      4  C   UNL     1     -11.993 -44.008  31.027  1.00  0.00     0.068 A 
ATOM      5  C   UNL     1     -10.633 -43.822  31.610  1.00  0.00     0.023 A 
ATOM      6  C   UNL     1     -10.453 -43.053  32.767  1.00  0.00     0.014 A 
ATOM      7  C   UNL     1      -9.175 -42.896  33.306  1.00  0.00     0.021 A 
ATOM      8  C   UNL     1      -8.088 -43.514  32.691  1.00  0.00     0.043 A 
ATOM      9  Cl  UNL     1      -6.513 -43.329  33.359  1.00  0.00    -0.084 Cl
ATOM     10  C   UNL     1      -8.263 -44.284  31.538  1.00  0.00     0.047 A 
ATOM     11  C   UNL     1      -9.539 -44.435  30.983  1.00  0.00     0.049 A 
ATOM     12  C   UNL     1     -13.436 -44.903  29.073  1.00  0.00     0.039 C 
ATOM     13  C   UNL     1     -13.371 -45.446  27.646  1.00  0.00     0.005 C 
ATOM     14  C   UNL     1     -12.401 -46.614  27.553  1.00  0.00     0.007 C 
ATOM     15  C   UNL     1     -10.999 -46.182  27.979  1.00  0.00     0.054 C 
ATOM     16  H   UNL     1      -8.923 -45.572  29.351  1.00  0.00     0.166 HD
ENDROOT
BRANCH   4  17
ATOM     17  N   UNL     1     -13.015 -43.498  31.642  1.00  0.00    -0.300 NA
ATOM     18  H   UNL     1     -13.222 -42.551  31.321  1.00  0.00     0.188 HD
ENDBRANCH   4  17
TORSDOF 1
ENDMDL
MODEL 8
REMARK VINA RESULT:    -8.426      7.545      9.922
REMARK INTER + INTRA:          -8.672
REMARK INTER:                  -8.672
REMARK INTRA:                   0.000
REMARK UNBOUND:                 0.000
REMARK SMILES N=c1c2c([nH]c3cc(Cl)ccc13)CCCC2
REMARK SMILES IDX 5 1 4 2 3 3 2 4 12 5 11 6 10 7 8 8 9 9 7 10 6 11 16 12 15 13
REMARK SMILES IDX 14 14 13 15 1 17
REMARK H PARENT 5 16 1 18
ROOT
ATOM      1  N   UNL     1      -9.475 -45.063  30.064  1.00  0.00    -0.358 N 
ATOM      2  C   UNL     1      -9.197 -44.317  31.188  1.00  0.00     0.020 A 
ATOM      3  C   UNL     1     -10.140 -43.633  31.873  1.00  0.00    -0.003 A 
ATOM      4  C   UNL     1     -11.560 -43.676  31.370  1.00  0.00     0.068 A 
ATOM      5  C   UNL     1     -11.843 -44.554  30.198  1.00  0.00     0.023 A 
ATOM      6  C   UNL     1     -13.150 -44.693  29.711  1.00  0.00     0.014 A 
ATOM      7  C   UNL     1     -13.397 -45.511  28.608  1.00  0.00     0.021 A 
ATOM      8  C   UNL     1     -12.339 -46.179  27.995  1.00  0.00     0.043 A 
ATOM      9  Cl  UNL     1     -12.642 -47.180  26.628  1.00  0.00    -0.084 Cl
ATOM     10  C   UNL     1     -11.035 -46.042  28.475  1.00  0.00     0.047 A 
ATOM     11  C   UNL     1     -10.779 -45.235  29.589  1.00  0.00     0.049 A 
ATOM     12  C   UNL     1      -9.844 -42.846  33.121  1.00  0.00     0.039 C 
ATOM     13  C   UNL     1      -8.460 -43.116  33.710  1.00  0.00     0.005 C 
ATOM     14  C   UNL     1      -7.408 -43.188  32.614  1.00  0.00     0.007 C 
ATOM     15  C   UNL     1      -7.744 -44.297  31.618  1.00  0.00     0.054 C 
ATOM     16  H   UNL     1      -8.738 -45.643  29.679  1.00  0.00     0.166 HD
ENDROOT
BRANCH   4  17
ATOM     17  N   UNL     1     -12.531 -42.994  31.893  1.00  0.00    -0.300 NA
ATOM     18  H   UNL     1     -13.445 -43.380  31.650  1.00  0.00     0.188 HD
ENDBRANCH   4  17
TORSDOF 1
ENDMDL
MODEL 9
REMARK VINA RESULT:    -8.277      2.916      5.474
REMARK INTER + INTRA:          -8.518
REMARK INTER:                  -8.518
REMARK INTRA:                   0.000
REMARK UNBOUND:                 0.000
REMARK SMILES N=c1c2c([nH]c3cc(Cl)ccc13)CCCC2
REMARK SMILES IDX 5 1 4 2 3 3 2 4 12 5 11 6 10 7 8 8 9 9 7 10 6 11 16 12 15 13
REMARK SMILES IDX 14 14 13 15 1 17
REMARK H PARENT 5 16 1 18
ROOT
ATOM      1  N   UNL     1     -18.512 -42.069  24.511  1.00  0.00    -0.358 N 
ATOM      2  C   UNL     1     -19.068 -41.433  23.422  1.00  0.00     0.020 A 
ATOM      3  C   UNL     1     -18.337 -40.965  22.387  1.00  0.00    -0.003 A 
ATOM      4  C   UNL     1     -16.840 -41.132  22.436  1.00  0.00     0.068 A 
ATOM      5  C   UNL     1     -16.276 -41.894  23.587  1.00  0.00     0.023 A 
ATOM      6  C   UNL     1     -14.899 -42.143  23.671  1.00  0.00     0.014 A 
ATOM      7  C   UNL     1     -14.385 -42.848  24.759  1.00  0.00     0.021 A 
ATOM      8  C   UNL     1     -15.246 -43.294  25.760  1.00  0.00     0.043 A 
ATOM      9  Cl  UNL     1     -14.612 -44.156  27.108  1.00  0.00    -0.084 Cl
ATOM     10  C   UNL     1     -16.619 -43.046  25.683  1.00  0.00     0.047 A 
ATOM     11  C   UNL     1     -17.145 -42.352  24.588  1.00  0.00     0.049 A 
ATOM     12  C   UNL     1     -18.945 -40.301  21.181  1.00  0.00     0.039 C 
ATOM     13  C   UNL     1     -20.463 -40.456  21.089  1.00  0.00     0.005 C 
ATOM     14  C   UNL     1     -21.113 -40.258  22.449  1.00  0.00     0.007 C 
ATOM     15  C   UNL     1     -20.575 -41.274  23.455  1.00  0.00     0.054 C 
ATOM     16  H   UNL     1     -19.135 -42.497  25.185  1.00  0.00     0.166 HD
ENDROOT
BRANCH   4  17
ATOM     17  N   UNL     1     -16.030 -40.651  21.544  1.00  0.00    -0.300 NA
ATOM     18  H   UNL     1     -15.560 -41.387  21.015  1.00  0.00     0.188 HD
ENDBRANCH   4  17
TORSDOF 1
ENDMDL
