MODEL 1
REMARK VINA RESULT:   -12.220      0.000      0.000
REMARK INTER + INTRA:         -16.359
REMARK INTER:                 -15.792
REMARK INTRA:                  -0.567
REMARK UNBOUND:                -0.567
REMARK SMILES Cn1c(=O)cc2cc3o[nH]c(CC[C@H]4CC[N@@H+](Cc5ccccc5)CC4)c3cc21
REMARK SMILES IDX 13 1 12 2 11 3 10 4 9 5 8 6 27 7 7 8 28 9 6 10 29 11 5 12
REMARK SMILES IDX 2 13 3 14 1 16 4 17 14 18 26 19 15 20 25 21 16 22 17 23
REMARK SMILES IDX 18 25 19 26 20 27 24 28 21 29 23 30 22 31
REMARK H PARENT 10 15 17 24
ROOT
ATOM      1  C   UNL     1     -14.174 -44.662  27.642  1.00  0.00     0.010 C 
ENDROOT
BRANCH   1   2
ATOM      2  C   UNL     1     -14.718 -43.283  27.235  1.00  0.00     0.058 C 
BRANCH   2   3
ATOM      3  C   UNL     1     -15.168 -43.201  25.813  1.00  0.00     0.060 A 
ATOM      4  N   UNL     1     -14.313 -43.485  24.752  1.00  0.00    -0.226 N 
ATOM      5  O   UNL     1     -15.006 -43.425  23.517  1.00  0.00    -0.382 OA
ATOM      6  C   UNL     1     -16.255 -42.958  23.881  1.00  0.00     0.164 A 
ATOM      7  C   UNL     1     -16.357 -42.818  25.331  1.00  0.00     0.044 A 
ATOM      8  C   UNL     1     -17.289 -42.675  23.072  1.00  0.00     0.061 A 
ATOM      9  C   UNL     1     -17.574 -42.374  25.985  1.00  0.00     0.041 A 
ATOM     10  C   UNL     1     -18.508 -42.223  23.723  1.00  0.00     0.008 A 
ATOM     11  C   UNL     1     -18.605 -42.088  25.174  1.00  0.00     0.052 A 
ATOM     12  C   UNL     1     -19.671 -41.876  23.158  1.00  0.00     0.082 A 
ATOM     13  N   UNL     1     -19.867 -41.651  25.447  1.00  0.00    -0.311 N 
ATOM     14  C   UNL     1     -20.584 -41.496  24.267  1.00  0.00     0.251 A 
ATOM     15  H   UNL     1     -13.758 -44.328  24.848  1.00  0.00     0.208 HD
ATOM     16  C   UNL     1     -20.402 -41.363  26.750  1.00  0.00     0.153 C 
ATOM     17  O   UNL     1     -21.733 -41.129  24.112  1.00  0.00    -0.269 OA
ENDBRANCH   2   3
ENDBRANCH   1   2
BRANCH   1  18
ATOM     18  C   UNL     1     -12.662 -44.886  27.412  1.00  0.00     0.000 C 
ATOM     19  C   UNL     1     -11.774 -43.806  28.053  1.00  0.00     0.065 C 
ATOM     20  C   UNL     1     -12.229 -46.274  27.924  1.00  0.00     0.065 C 
ATOM     21  C   UNL     1     -11.719 -43.902  29.574  1.00  0.00     0.262 C 
ATOM     22  C   UNL     1     -12.169 -46.360  29.445  1.00  0.00     0.262 C 
ATOM     23  N   UNL     1     -11.254 -45.282  29.966  1.00  0.00    -0.331 N 
ATOM     24  H   UNL     1     -10.346 -45.425  29.508  1.00  0.00     0.348 HD
BRANCH  23  25
ATOM     25  C   UNL     1     -10.947 -45.416  31.447  1.00  0.00     0.299 C 
BRANCH  25  26
ATOM     26  C   UNL     1      -9.628 -44.849  31.900  1.00  0.00     0.006 A 
ATOM     27  C   UNL     1      -8.425 -45.504  31.592  1.00  0.00     0.009 A 
ATOM     28  C   UNL     1      -9.578 -43.654  32.635  1.00  0.00     0.009 A 
ATOM     29  C   UNL     1      -7.202 -44.966  31.995  1.00  0.00     0.001 A 
ATOM     30  C   UNL     1      -8.352 -43.120  33.036  1.00  0.00     0.001 A 
ATOM     31  C   UNL     1      -7.166 -43.773  32.712  1.00  0.00     0.000 A 
ENDBRANCH  25  26
ENDBRANCH  23  25
ENDBRANCH   1  18
TORSDOF 5
ENDMDL
MODEL 2
REMARK VINA RESULT:   -11.889      4.036     10.043
REMARK INTER + INTRA:         -15.932
REMARK INTER:                 -15.321
REMARK INTRA:                  -0.610
REMARK UNBOUND:                -0.567
REMARK SMILES Cn1c(=O)cc2cc3o[nH]c(CC[C@H]4CC[N@@H+](Cc5ccccc5)CC4)c3cc21
REMARK SMILES IDX 13 1 12 2 11 3 10 4 9 5 8 6 27 7 7 8 28 9 6 10 29 11 5 12
REMARK SMILES IDX 2 13 3 14 1 16 4 17 14 18 26 19 15 20 25 21 16 22 17 23
REMARK SMILES IDX 18 25 19 26 20 27 24 28 21 29 23 30 22 31
REMARK H PARENT 10 15 17 24
ROOT
ATOM      1  C   UNL     1     -10.708 -45.728  28.594  1.00  0.00     0.010 C 
ENDROOT
BRANCH   1   2
ATOM      2  C   UNL     1     -10.026 -46.626  29.638  1.00  0.00     0.058 C 
BRANCH   2   3
ATOM      3  C   UNL     1      -9.055 -45.908  30.518  1.00  0.00     0.060 A 
ATOM      4  N   UNL     1      -7.698 -46.216  30.522  1.00  0.00    -0.226 N 
ATOM      5  O   UNL     1      -6.984 -45.332  31.371  1.00  0.00    -0.382 OA
ATOM      6  C   UNL     1      -7.988 -44.594  31.970  1.00  0.00     0.164 A 
ATOM      7  C   UNL     1      -9.294 -44.958  31.431  1.00  0.00     0.044 A 
ATOM      8  C   UNL     1      -7.853 -43.641  32.907  1.00  0.00     0.061 A 
ATOM      9  C   UNL     1     -10.521 -44.313  31.864  1.00  0.00     0.041 A 
ATOM     10  C   UNL     1      -9.079 -42.998  33.348  1.00  0.00     0.008 A 
ATOM     11  C   UNL     1     -10.384 -43.363  32.802  1.00  0.00     0.052 A 
ATOM     12  C   UNL     1      -9.226 -42.031  34.263  1.00  0.00     0.082 A 
ATOM     13  N   UNL     1     -11.307 -42.577  33.425  1.00  0.00    -0.311 N 
ATOM     14  C   UNL     1     -10.681 -41.733  34.333  1.00  0.00     0.251 A 
ATOM     15  H   UNL     1      -7.266 -46.313  29.609  1.00  0.00     0.208 HD
ATOM     16  C   UNL     1     -12.729 -42.605  33.210  1.00  0.00     0.153 C 
ATOM     17  O   UNL     1     -11.173 -40.895  35.065  1.00  0.00    -0.269 OA
ENDBRANCH   2   3
ENDBRANCH   1   2
BRANCH   1  18
ATOM     18  C   UNL     1     -11.988 -44.998  29.063  1.00  0.00     0.000 C 
ATOM     19  C   UNL     1     -12.002 -43.498  28.723  1.00  0.00     0.065 C 
ATOM     20  C   UNL     1     -13.246 -45.667  28.478  1.00  0.00     0.065 C 
ATOM     21  C   UNL     1     -12.199 -43.224  27.235  1.00  0.00     0.262 C 
ATOM     22  C   UNL     1     -13.442 -45.383  26.993  1.00  0.00     0.262 C 
ATOM     23  N   UNL     1     -13.471 -43.892  26.774  1.00  0.00    -0.331 N 
ATOM     24  H   UNL     1     -14.225 -43.526  27.367  1.00  0.00     0.348 HD
BRANCH  23  25
ATOM     25  C   UNL     1     -13.882 -43.497  25.366  1.00  0.00     0.299 C 
BRANCH  25  26
ATOM     26  C   UNL     1     -15.340 -43.180  25.171  1.00  0.00     0.006 A 
ATOM     27  C   UNL     1     -16.155 -42.860  26.268  1.00  0.00     0.009 A 
ATOM     28  C   UNL     1     -15.909 -43.196  23.888  1.00  0.00     0.009 A 
ATOM     29  C   UNL     1     -17.503 -42.547  26.082  1.00  0.00     0.001 A 
ATOM     30  C   UNL     1     -17.257 -42.882  23.707  1.00  0.00     0.001 A 
ATOM     31  C   UNL     1     -18.051 -42.554  24.803  1.00  0.00     0.000 A 
ENDBRANCH  25  26
ENDBRANCH  23  25
ENDBRANCH   1  18
TORSDOF 5
ENDMDL
MODEL 3
REMARK VINA RESULT:   -11.755      1.684      2.466
REMARK INTER + INTRA:         -15.758
REMARK INTER:                 -15.329
REMARK INTRA:                  -0.429
REMARK UNBOUND:                -0.567
REMARK SMILES Cn1c(=O)cc2cc3o[nH]c(CC[C@H]4CC[N@@H+](Cc5ccccc5)CC4)c3cc21
REMARK SMILES IDX 13 1 12 2 11 3 10 4 9 5 8 6 27 7 7 8 28 9 6 10 29 11 5 12
REMARK SMILES IDX 2 13 3 14 1 16 4 17 14 18 26 19 15 20 25 21 16 22 17 23
REMARK SMILES IDX 18 25 19 26 20 27 24 28 21 29 23 30 22 31
REMARK H PARENT 10 15 17 24
ROOT
ATOM      1  C   UNL     1     -14.366 -44.426  27.450  1.00  0.00     0.010 C 
ENDROOT
BRANCH   1   2
ATOM      2  C   UNL     1     -15.009 -43.279  26.655  1.00  0.00     0.058 C 
BRANCH   2   3
ATOM      3  C   UNL     1     -16.324 -42.823  27.198  1.00  0.00     0.060 A 
ATOM      4  N   UNL     1     -16.577 -42.769  28.566  1.00  0.00    -0.226 N 
ATOM      5  O   UNL     1     -17.857 -42.216  28.820  1.00  0.00    -0.382 OA
ATOM      6  C   UNL     1     -18.398 -42.084  27.555  1.00  0.00     0.164 A 
ATOM      7  C   UNL     1     -17.429 -42.466  26.532  1.00  0.00     0.044 A 
ATOM      8  C   UNL     1     -19.627 -41.647  27.233  1.00  0.00     0.061 A 
ATOM      9  C   UNL     1     -17.727 -42.393  25.113  1.00  0.00     0.041 A 
ATOM     10  C   UNL     1     -19.931 -41.579  25.813  1.00  0.00     0.008 A 
ATOM     11  C   UNL     1     -18.956 -41.959  24.794  1.00  0.00     0.052 A 
ATOM     12  C   UNL     1     -21.069 -41.186  25.227  1.00  0.00     0.082 A 
ATOM     13  N   UNL     1     -19.558 -41.776  23.584  1.00  0.00    -0.311 N 
ATOM     14  C   UNL     1     -20.852 -41.304  23.761  1.00  0.00     0.251 A 
ATOM     15  H   UNL     1     -15.850 -42.344  29.131  1.00  0.00     0.208 HD
ATOM     16  C   UNL     1     -18.973 -42.041  22.297  1.00  0.00     0.153 C 
ATOM     17  O   UNL     1     -21.686 -41.023  22.921  1.00  0.00    -0.269 OA
ENDBRANCH   2   3
ENDBRANCH   1   2
BRANCH   1  18
ATOM     18  C   UNL     1     -12.890 -44.738  27.113  1.00  0.00     0.000 C 
ATOM     19  C   UNL     1     -11.888 -43.808  27.819  1.00  0.00     0.065 C 
ATOM     20  C   UNL     1     -12.549 -46.203  27.445  1.00  0.00     0.065 C 
ATOM     21  C   UNL     1     -11.771 -44.080  29.315  1.00  0.00     0.262 C 
ATOM     22  C   UNL     1     -12.425 -46.467  28.942  1.00  0.00     0.262 C 
ATOM     23  N   UNL     1     -11.401 -45.527  29.527  1.00  0.00    -0.331 N 
ATOM     24  H   UNL     1     -10.531 -45.686  29.006  1.00  0.00     0.348 HD
BRANCH  23  25
ATOM     25  C   UNL     1     -11.038 -45.852  30.965  1.00  0.00     0.299 C 
BRANCH  25  26
ATOM     26  C   UNL     1      -9.757 -45.246  31.472  1.00  0.00     0.006 A 
ATOM     27  C   UNL     1      -9.765 -44.011  32.139  1.00  0.00     0.009 A 
ATOM     28  C   UNL     1      -8.532 -45.908  31.290  1.00  0.00     0.009 A 
ATOM     29  C   UNL     1      -8.578 -43.461  32.627  1.00  0.00     0.001 A 
ATOM     30  C   UNL     1      -7.348 -45.354  31.779  1.00  0.00     0.001 A 
ATOM     31  C   UNL     1      -7.372 -44.134  32.450  1.00  0.00     0.000 A 
ENDBRANCH  25  26
ENDBRANCH  23  25
ENDBRANCH   1  18
TORSDOF 5
ENDMDL
MODEL 4
REMARK VINA RESULT:   -11.501      3.130     10.711
REMARK INTER + INTRA:         -15.429
REMARK INTER:                 -14.773
REMARK INTRA:                  -0.657
REMARK UNBOUND:                -0.567
REMARK SMILES Cn1c(=O)cc2cc3o[nH]c(CC[C@H]4CC[N@@H+](Cc5ccccc5)CC4)c3cc21
REMARK SMILES IDX 13 1 12 2 11 3 10 4 9 5 8 6 27 7 7 8 28 9 6 10 29 11 5 12
REMARK SMILES IDX 2 13 3 14 1 16 4 17 14 18 26 19 15 20 25 21 16 22 17 23
REMARK SMILES IDX 18 25 19 26 20 27 24 28 21 29 23 30 22 31
REMARK H PARENT 10 15 17 24
ROOT
ATOM      1  C   UNL     1     -14.171 -44.683  26.650  1.00  0.00     0.010 C 
ENDROOT
BRANCH   1   2
ATOM      2  C   UNL     1     -12.964 -45.001  27.547  1.00  0.00     0.058 C 
BRANCH   2   3
ATOM      3  C   UNL     1     -13.152 -44.621  28.980  1.00  0.00     0.060 A 
ATOM      4  N   UNL     1     -14.415 -44.538  29.559  1.00  0.00    -0.226 N 
ATOM      5  O   UNL     1     -14.315 -44.252  30.944  1.00  0.00    -0.382 OA
ATOM      6  C   UNL     1     -12.962 -44.031  31.122  1.00  0.00     0.164 A 
ATOM      7  C   UNL     1     -12.229 -44.265  29.881  1.00  0.00     0.044 A 
ATOM      8  C   UNL     1     -12.335 -43.674  32.255  1.00  0.00     0.061 A 
ATOM      9  C   UNL     1     -10.786 -44.134  29.795  1.00  0.00     0.041 A 
ATOM     10  C   UNL     1     -10.890 -43.534  32.170  1.00  0.00     0.008 A 
ATOM     11  C   UNL     1     -10.161 -43.773  30.927  1.00  0.00     0.052 A 
ATOM     12  C   UNL     1     -10.032 -43.190  33.138  1.00  0.00     0.082 A 
ATOM     13  N   UNL     1      -8.842 -43.559  31.195  1.00  0.00    -0.311 N 
ATOM     14  C   UNL     1      -8.678 -43.199  32.527  1.00  0.00     0.251 A 
ATOM     15  H   UNL     1     -15.041 -45.312  29.365  1.00  0.00     0.208 HD
ATOM     16  C   UNL     1      -7.758 -43.663  30.256  1.00  0.00     0.153 C 
ATOM     17  O   UNL     1      -7.653 -42.935  33.127  1.00  0.00    -0.269 OA
ENDBRANCH   2   3
ENDBRANCH   1   2
BRANCH   1  18
ATOM     18  C   UNL     1     -14.223 -43.250  26.071  1.00  0.00     0.000 C 
ATOM     19  C   UNL     1     -14.456 -43.208  24.551  1.00  0.00     0.065 C 
ATOM     20  C   UNL     1     -15.307 -42.413  26.777  1.00  0.00     0.065 C 
ATOM     21  C   UNL     1     -15.877 -43.593  24.152  1.00  0.00     0.262 C 
ATOM     22  C   UNL     1     -16.724 -42.797  26.369  1.00  0.00     0.262 C 
ATOM     23  N   UNL     1     -16.852 -42.694  24.870  1.00  0.00    -0.331 N 
ATOM     24  H   UNL     1     -16.598 -41.731  24.623  1.00  0.00     0.348 HD
BRANCH  23  25
ATOM     25  C   UNL     1     -18.281 -42.840  24.376  1.00  0.00     0.299 C 
BRANCH  25  26
ATOM     26  C   UNL     1     -18.789 -41.729  23.497  1.00  0.00     0.006 A 
ATOM     27  C   UNL     1     -18.002 -41.230  22.447  1.00  0.00     0.009 A 
ATOM     28  C   UNL     1     -20.061 -41.174  23.710  1.00  0.00     0.009 A 
ATOM     29  C   UNL     1     -18.484 -40.213  21.621  1.00  0.00     0.001 A 
ATOM     30  C   UNL     1     -20.539 -40.157  22.882  1.00  0.00     0.001 A 
ATOM     31  C   UNL     1     -19.752 -39.681  21.836  1.00  0.00     0.000 A 
ENDBRANCH  25  26
ENDBRANCH  23  25
ENDBRANCH   1  18
TORSDOF 5
ENDMDL
MODEL 5
REMARK VINA RESULT:   -11.219      2.990     10.662
REMARK INTER + INTRA:         -15.066
REMARK INTER:                 -14.499
REMARK INTRA:                  -0.567
REMARK UNBOUND:                -0.567
REMARK SMILES Cn1c(=O)cc2cc3o[nH]c(CC[C@H]4CC[N@@H+](Cc5ccccc5)CC4)c3cc21
REMARK SMILES IDX 13 1 12 2 11 3 10 4 9 5 8 6 27 7 7 8 28 9 6 10 29 11 5 12
REMARK SMILES IDX 2 13 3 14 1 16 4 17 14 18 26 19 15 20 25 21 16 22 17 23
REMARK SMILES IDX 18 25 19 26 20 27 24 28 21 29 23 30 22 31
REMARK H PARENT 10 15 17 24
ROOT
ATOM      1  C   UNL     1     -14.322 -44.255  25.912  1.00  0.00     0.010 C 
ENDROOT
BRANCH   1   2
ATOM      2  C   UNL     1     -14.189 -44.689  27.380  1.00  0.00     0.058 C 
BRANCH   2   3
ATOM      3  C   UNL     1     -12.944 -45.460  27.677  1.00  0.00     0.060 A 
ATOM      4  N   UNL     1     -12.575 -46.576  26.932  1.00  0.00    -0.226 N 
ATOM      5  O   UNL     1     -11.313 -47.067  27.354  1.00  0.00    -0.382 OA
ATOM      6  C   UNL     1     -11.028 -46.289  28.460  1.00  0.00     0.164 A 
ATOM      7  C   UNL     1     -12.058 -45.274  28.663  1.00  0.00     0.044 A 
ATOM      8  C   UNL     1      -9.960 -46.380  29.270  1.00  0.00     0.061 A 
ATOM      9  C   UNL     1     -11.990 -44.302  29.738  1.00  0.00     0.041 A 
ATOM     10  C   UNL     1      -9.892 -45.412  30.352  1.00  0.00     0.008 A 
ATOM     11  C   UNL     1     -10.923 -44.396  30.547  1.00  0.00     0.052 A 
ATOM     12  C   UNL     1      -8.947 -45.284  31.292  1.00  0.00     0.082 A 
ATOM     13  N   UNL     1     -10.554 -43.662  31.635  1.00  0.00    -0.311 N 
ATOM     14  C   UNL     1      -9.356 -44.141  32.150  1.00  0.00     0.251 A 
ATOM     15  H   UNL     1     -12.636 -46.473  25.925  1.00  0.00     0.208 HD
ATOM     16  C   UNL     1     -11.285 -42.562  32.204  1.00  0.00     0.153 C 
ATOM     17  O   UNL     1      -8.720 -43.741  33.107  1.00  0.00    -0.269 OA
ENDBRANCH   2   3
ENDBRANCH   1   2
BRANCH   1  18
ATOM     18  C   UNL     1     -14.609 -42.754  25.674  1.00  0.00     0.000 C 
ATOM     19  C   UNL     1     -14.858 -42.400  24.198  1.00  0.00     0.065 C 
ATOM     20  C   UNL     1     -15.807 -42.284  26.521  1.00  0.00     0.065 C 
ATOM     21  C   UNL     1     -16.202 -42.903  23.681  1.00  0.00     0.262 C 
ATOM     22  C   UNL     1     -17.148 -42.783  25.994  1.00  0.00     0.262 C 
ATOM     23  N   UNL     1     -17.303 -42.359  24.556  1.00  0.00    -0.331 N 
ATOM     24  H   UNL     1     -17.209 -41.337  24.543  1.00  0.00     0.348 HD
BRANCH  23  25
ATOM     25  C   UNL     1     -18.694 -42.611  24.000  1.00  0.00     0.299 C 
BRANCH  25  26
ATOM     26  C   UNL     1     -19.346 -41.445  23.307  1.00  0.00     0.006 A 
ATOM     27  C   UNL     1     -20.549 -40.908  23.789  1.00  0.00     0.009 A 
ATOM     28  C   UNL     1     -18.759 -40.874  22.166  1.00  0.00     0.009 A 
ATOM     29  C   UNL     1     -21.141 -39.813  23.156  1.00  0.00     0.001 A 
ATOM     30  C   UNL     1     -19.354 -39.780  21.536  1.00  0.00     0.001 A 
ATOM     31  C   UNL     1     -20.541 -39.248  22.034  1.00  0.00     0.000 A 
ENDBRANCH  25  26
ENDBRANCH  23  25
ENDBRANCH   1  18
TORSDOF 5
ENDMDL
MODEL 6
REMARK VINA RESULT:   -10.973      2.542      4.191
REMARK INTER + INTRA:         -14.747
REMARK INTER:                 -14.221
REMARK INTRA:                  -0.526
REMARK UNBOUND:                -0.567
REMARK SMILES Cn1c(=O)cc2cc3o[nH]c(CC[C@H]4CC[N@@H+](Cc5ccccc5)CC4)c3cc21
REMARK SMILES IDX 13 1 12 2 11 3 10 4 9 5 8 6 27 7 7 8 28 9 6 10 29 11 5 12
REMARK SMILES IDX 2 13 3 14 1 16 4 17 14 18 26 19 15 20 25 21 16 22 17 23
REMARK SMILES IDX 18 25 19 26 20 27 24 28 21 29 23 30 22 31
REMARK H PARENT 10 15 17 24
ROOT
ATOM      1  C   UNL     1     -16.750 -42.795  25.103  1.00  0.00     0.010 C 
ENDROOT
BRANCH   1   2
ATOM      2  C   UNL     1     -17.062 -43.121  23.634  1.00  0.00     0.058 C 
BRANCH   2   3
ATOM      3  C   UNL     1     -17.555 -41.953  22.842  1.00  0.00     0.060 A 
ATOM      4  N   UNL     1     -16.735 -41.272  21.947  1.00  0.00    -0.226 N 
ATOM      5  O   UNL     1     -17.465 -40.270  21.258  1.00  0.00    -0.382 OA
ATOM      6  C   UNL     1     -18.697 -40.296  21.883  1.00  0.00     0.164 A 
ATOM      7  C   UNL     1     -18.753 -41.359  22.882  1.00  0.00     0.044 A 
ATOM      8  C   UNL     1     -19.752 -39.500  21.641  1.00  0.00     0.061 A 
ATOM      9  C   UNL     1     -19.945 -41.627  23.666  1.00  0.00     0.041 A 
ATOM     10  C   UNL     1     -20.946 -39.761  22.429  1.00  0.00     0.008 A 
ATOM     11  C   UNL     1     -20.998 -40.829  23.424  1.00  0.00     0.052 A 
ATOM     12  C   UNL     1     -22.122 -39.122  22.389  1.00  0.00     0.082 A 
ATOM     13  N   UNL     1     -22.246 -40.800  23.970  1.00  0.00    -0.311 N 
ATOM     14  C   UNL     1     -22.997 -39.784  23.392  1.00  0.00     0.251 A 
ATOM     15  H   UNL     1     -16.186 -41.853  21.323  1.00  0.00     0.208 HD
ATOM     16  C   UNL     1     -22.738 -41.665  25.008  1.00  0.00     0.153 C 
ATOM     17  O   UNL     1     -24.147 -39.458  23.618  1.00  0.00    -0.269 OA
ENDBRANCH   2   3
ENDBRANCH   1   2
BRANCH   1  18
ATOM     18  C   UNL     1     -15.287 -42.402  25.412  1.00  0.00     0.000 C 
ATOM     19  C   UNL     1     -14.915 -42.534  26.899  1.00  0.00     0.065 C 
ATOM     20  C   UNL     1     -14.305 -43.232  24.564  1.00  0.00     0.065 C 
ATOM     21  C   UNL     1     -14.791 -43.983  27.358  1.00  0.00     0.262 C 
ATOM     22  C   UNL     1     -14.180 -44.677  25.033  1.00  0.00     0.262 C 
ATOM     23  N   UNL     1     -13.785 -44.693  26.488  1.00  0.00    -0.331 N 
ATOM     24  H   UNL     1     -12.911 -44.158  26.556  1.00  0.00     0.348 HD
BRANCH  23  25
ATOM     25  C   UNL     1     -13.416 -46.075  26.998  1.00  0.00     0.299 C 
BRANCH  25  26
ATOM     26  C   UNL     1     -12.511 -46.113  28.199  1.00  0.00     0.006 A 
ATOM     27  C   UNL     1     -11.128 -46.296  28.047  1.00  0.00     0.009 A 
ATOM     28  C   UNL     1     -13.034 -45.963  29.493  1.00  0.00     0.009 A 
ATOM     29  C   UNL     1     -10.287 -46.310  29.162  1.00  0.00     0.001 A 
ATOM     30  C   UNL     1     -12.190 -45.978  30.605  1.00  0.00     0.001 A 
ATOM     31  C   UNL     1     -10.818 -46.147  30.438  1.00  0.00     0.000 A 
ENDBRANCH  25  26
ENDBRANCH  23  25
ENDBRANCH   1  18
TORSDOF 5
ENDMDL
MODEL 7
REMARK VINA RESULT:   -10.426      2.509      4.798
REMARK INTER + INTRA:         -14.041
REMARK INTER:                 -13.701
REMARK INTRA:                  -0.340
REMARK UNBOUND:                -0.567
REMARK SMILES Cn1c(=O)cc2cc3o[nH]c(CC[C@H]4CC[N@@H+](Cc5ccccc5)CC4)c3cc21
REMARK SMILES IDX 13 1 12 2 11 3 10 4 9 5 8 6 27 7 7 8 28 9 6 10 29 11 5 12
REMARK SMILES IDX 2 13 3 14 1 16 4 17 14 18 26 19 15 20 25 21 16 22 17 23
REMARK SMILES IDX 18 25 19 26 20 27 24 28 21 29 23 30 22 31
REMARK H PARENT 10 15 17 24
ROOT
ATOM      1  C   UNL     1     -16.666 -42.995  25.397  1.00  0.00     0.010 C 
ENDROOT
BRANCH   1   2
ATOM      2  C   UNL     1     -17.452 -42.420  24.209  1.00  0.00     0.058 C 
BRANCH   2   3
ATOM      3  C   UNL     1     -18.832 -41.963  24.555  1.00  0.00     0.060 A 
ATOM      4  N   UNL     1     -19.443 -42.312  25.756  1.00  0.00    -0.226 N 
ATOM      5  O   UNL     1     -20.705 -41.678  25.881  1.00  0.00    -0.382 OA
ATOM      6  C   UNL     1     -20.871 -41.065  24.653  1.00  0.00     0.164 A 
ATOM      7  C   UNL     1     -19.688 -41.245  23.817  1.00  0.00     0.044 A 
ATOM      8  C   UNL     1     -21.935 -40.364  24.227  1.00  0.00     0.061 A 
ATOM      9  C   UNL     1     -19.583 -40.677  22.485  1.00  0.00     0.041 A 
ATOM     10  C   UNL     1     -21.836 -39.798  22.891  1.00  0.00     0.008 A 
ATOM     11  C   UNL     1     -20.648 -39.979  22.060  1.00  0.00     0.052 A 
ATOM     12  C   UNL     1     -22.743 -39.068  22.231  1.00  0.00     0.082 A 
ATOM     13  N   UNL     1     -20.884 -39.327  20.887  1.00  0.00    -0.311 N 
ATOM     14  C   UNL     1     -22.144 -38.743  20.910  1.00  0.00     0.251 A 
ATOM     15  H   UNL     1     -18.871 -42.208  26.587  1.00  0.00     0.208 HD
ATOM     16  C   UNL     1     -19.990 -39.254  19.763  1.00  0.00     0.153 C 
ATOM     17  O   UNL     1     -22.698 -38.082  20.051  1.00  0.00    -0.269 OA
ENDBRANCH   2   3
ENDBRANCH   1   2
BRANCH   1  18
ATOM     18  C   UNL     1     -15.161 -42.642  25.445  1.00  0.00     0.000 C 
ATOM     19  C   UNL     1     -14.571 -42.655  26.866  1.00  0.00     0.065 C 
ATOM     20  C   UNL     1     -14.346 -43.590  24.545  1.00  0.00     0.065 C 
ATOM     21  C   UNL     1     -14.423 -44.060  27.440  1.00  0.00     0.262 C 
ATOM     22  C   UNL     1     -14.196 -44.990  25.128  1.00  0.00     0.262 C 
ATOM     23  N   UNL     1     -13.584 -44.891  26.502  1.00  0.00    -0.331 N 
ATOM     24  H   UNL     1     -12.694 -44.393  26.387  1.00  0.00     0.348 HD
BRANCH  23  25
ATOM     25  C   UNL     1     -13.186 -46.237  27.083  1.00  0.00     0.299 C 
BRANCH  25  26
ATOM     26  C   UNL     1     -12.347 -46.192  28.332  1.00  0.00     0.006 A 
ATOM     27  C   UNL     1     -12.951 -46.146  29.598  1.00  0.00     0.009 A 
ATOM     28  C   UNL     1     -10.945 -46.197  28.251  1.00  0.00     0.009 A 
ATOM     29  C   UNL     1     -12.171 -46.125  30.755  1.00  0.00     0.001 A 
ATOM     30  C   UNL     1     -10.169 -46.176  29.412  1.00  0.00     0.001 A 
ATOM     31  C   UNL     1     -10.782 -46.144  30.661  1.00  0.00     0.000 A 
ENDBRANCH  25  26
ENDBRANCH  23  25
ENDBRANCH   1  18
TORSDOF 5
ENDMDL
MODEL 8
REMARK VINA RESULT:   -10.360      2.091      3.240
REMARK INTER + INTRA:         -13.956
REMARK INTER:                 -13.539
REMARK INTRA:                  -0.416
REMARK UNBOUND:                -0.567
REMARK SMILES Cn1c(=O)cc2cc3o[nH]c(CC[C@H]4CC[N@@H+](Cc5ccccc5)CC4)c3cc21
REMARK SMILES IDX 13 1 12 2 11 3 10 4 9 5 8 6 27 7 7 8 28 9 6 10 29 11 5 12
REMARK SMILES IDX 2 13 3 14 1 16 4 17 14 18 26 19 15 20 25 21 16 22 17 23
REMARK SMILES IDX 18 25 19 26 20 27 24 28 21 29 23 30 22 31
REMARK H PARENT 10 15 17 24
ROOT
ATOM      1  C   UNL     1     -15.365 -43.135  26.731  1.00  0.00     0.010 C 
ENDROOT
BRANCH   1   2
ATOM      2  C   UNL     1     -16.408 -42.834  25.643  1.00  0.00     0.058 C 
BRANCH   2   3
ATOM      3  C   UNL     1     -17.734 -42.396  26.175  1.00  0.00     0.060 A 
ATOM      4  N   UNL     1     -18.054 -42.493  27.526  1.00  0.00    -0.226 N 
ATOM      5  O   UNL     1     -19.328 -41.927  27.783  1.00  0.00    -0.382 OA
ATOM      6  C   UNL     1     -19.799 -41.628  26.519  1.00  0.00     0.164 A 
ATOM      7  C   UNL     1     -18.792 -41.924  25.504  1.00  0.00     0.044 A 
ATOM      8  C   UNL     1     -20.997 -41.112  26.194  1.00  0.00     0.061 A 
ATOM      9  C   UNL     1     -19.016 -41.675  24.092  1.00  0.00     0.041 A 
ATOM     10  C   UNL     1     -21.226 -40.868  24.779  1.00  0.00     0.008 A 
ATOM     11  C   UNL     1     -20.213 -41.162  23.769  1.00  0.00     0.052 A 
ATOM     12  C   UNL     1     -22.320 -40.368  24.191  1.00  0.00     0.082 A 
ATOM     13  N   UNL     1     -20.747 -40.817  22.563  1.00  0.00    -0.311 N 
ATOM     14  C   UNL     1     -22.034 -40.323  22.733  1.00  0.00     0.251 A 
ATOM     15  H   UNL     1     -17.344 -42.163  28.171  1.00  0.00     0.208 HD
ATOM     16  C   UNL     1     -20.106 -40.952  21.282  1.00  0.00     0.153 C 
ATOM     17  O   UNL     1     -22.815 -39.916  21.894  1.00  0.00    -0.269 OA
ENDBRANCH   2   3
ENDBRANCH   1   2
BRANCH   1  18
ATOM     18  C   UNL     1     -14.164 -44.005  26.293  1.00  0.00     0.000 C 
ATOM     19  C   UNL     1     -12.885 -43.195  26.020  1.00  0.00     0.065 C 
ATOM     20  C   UNL     1     -13.865 -45.095  27.340  1.00  0.00     0.065 C 
ATOM     21  C   UNL     1     -12.236 -42.655  27.290  1.00  0.00     0.262 C 
ATOM     22  C   UNL     1     -13.210 -44.550  28.604  1.00  0.00     0.262 C 
ATOM     23  N   UNL     1     -11.955 -43.803  28.228  1.00  0.00    -0.331 N 
ATOM     24  H   UNL     1     -11.367 -44.466  27.710  1.00  0.00     0.348 HD
BRANCH  23  25
ATOM     25  C   UNL     1     -11.107 -43.409  29.424  1.00  0.00     0.299 C 
BRANCH  25  26
ATOM     26  C   UNL     1     -10.276 -44.508  30.030  1.00  0.00     0.006 A 
ATOM     27  C   UNL     1     -10.078 -45.717  29.345  1.00  0.00     0.009 A 
ATOM     28  C   UNL     1      -9.681 -44.340  31.291  1.00  0.00     0.009 A 
ATOM     29  C   UNL     1      -9.290 -46.726  29.901  1.00  0.00     0.001 A 
ATOM     30  C   UNL     1      -8.894 -45.352  31.843  1.00  0.00     0.001 A 
ATOM     31  C   UNL     1      -8.696 -46.541  31.146  1.00  0.00     0.000 A 
ENDBRANCH  25  26
ENDBRANCH  23  25
ENDBRANCH   1  18
TORSDOF 5
ENDMDL
MODEL 9
REMARK VINA RESULT:   -10.293      2.794      4.932
REMARK INTER + INTRA:         -13.868
REMARK INTER:                 -13.599
REMARK INTRA:                  -0.269
REMARK UNBOUND:                -0.567
REMARK SMILES Cn1c(=O)cc2cc3o[nH]c(CC[C@H]4CC[N@@H+](Cc5ccccc5)CC4)c3cc21
REMARK SMILES IDX 13 1 12 2 11 3 10 4 9 5 8 6 27 7 7 8 28 9 6 10 29 11 5 12
REMARK SMILES IDX 2 13 3 14 1 16 4 17 14 18 26 19 15 20 25 21 16 22 17 23
REMARK SMILES IDX 18 25 19 26 20 27 24 28 21 29 23 30 22 31
REMARK H PARENT 10 15 17 24
ROOT
ATOM      1  C   UNL     1     -16.306 -41.663  23.552  1.00  0.00     0.010 C 
ENDROOT
BRANCH   1   2
ATOM      2  C   UNL     1     -16.891 -41.573  22.133  1.00  0.00     0.058 C 
BRANCH   2   3
ATOM      3  C   UNL     1     -18.243 -40.942  22.070  1.00  0.00     0.060 A 
ATOM      4  N   UNL     1     -18.663 -40.212  20.962  1.00  0.00    -0.226 N 
ATOM      5  O   UNL     1     -20.012 -39.801  21.112  1.00  0.00    -0.382 OA
ATOM      6  C   UNL     1     -20.316 -40.191  22.403  1.00  0.00     0.164 A 
ATOM      7  C   UNL     1     -19.199 -40.912  23.006  1.00  0.00     0.044 A 
ATOM      8  C   UNL     1     -21.467 -39.991  23.067  1.00  0.00     0.061 A 
ATOM      9  C   UNL     1     -19.263 -41.461  24.349  1.00  0.00     0.041 A 
ATOM     10  C   UNL     1     -21.532 -40.534  24.414  1.00  0.00     0.008 A 
ATOM     11  C   UNL     1     -20.412 -41.258  25.011  1.00  0.00     0.052 A 
ATOM     12  C   UNL     1     -22.548 -40.474  25.284  1.00  0.00     0.082 A 
ATOM     13  N   UNL     1     -20.803 -41.625  26.264  1.00  0.00    -0.311 N 
ATOM     14  C   UNL     1     -22.098 -41.185  26.509  1.00  0.00     0.251 A 
ATOM     15  H   UNL     1     -18.485 -40.640  20.060  1.00  0.00     0.208 HD
ATOM     16  C   UNL     1     -20.010 -42.346  27.223  1.00  0.00     0.153 C 
ATOM     17  O   UNL     1     -22.778 -41.326  27.508  1.00  0.00    -0.269 OA
ENDBRANCH   2   3
ENDBRANCH   1   2
BRANCH   1  18
ATOM     18  C   UNL     1     -16.273 -43.075  24.181  1.00  0.00     0.000 C 
ATOM     19  C   UNL     1     -14.956 -43.830  23.931  1.00  0.00     0.065 C 
ATOM     20  C   UNL     1     -16.544 -43.008  25.696  1.00  0.00     0.065 C 
ATOM     21  C   UNL     1     -13.785 -43.271  24.733  1.00  0.00     0.262 C 
ATOM     22  C   UNL     1     -15.367 -42.456  26.492  1.00  0.00     0.262 C 
ATOM     23  N   UNL     1     -14.140 -43.281  26.198  1.00  0.00    -0.331 N 
ATOM     24  H   UNL     1     -14.380 -44.251  26.434  1.00  0.00     0.348 HD
BRANCH  23  25
ATOM     25  C   UNL     1     -12.965 -42.958  27.105  1.00  0.00     0.299 C 
BRANCH  25  26
ATOM     26  C   UNL     1     -12.203 -44.141  27.640  1.00  0.00     0.006 A 
ATOM     27  C   UNL     1     -10.961 -43.965  28.271  1.00  0.00     0.009 A 
ATOM     28  C   UNL     1     -12.722 -45.440  27.518  1.00  0.00     0.009 A 
ATOM     29  C   UNL     1     -10.266 -45.061  28.784  1.00  0.00     0.001 A 
ATOM     30  C   UNL     1     -12.023 -46.533  28.033  1.00  0.00     0.001 A 
ATOM     31  C   UNL     1     -10.799 -46.342  28.668  1.00  0.00     0.000 A 
ENDBRANCH  25  26
ENDBRANCH  23  25
ENDBRANCH   1  18
TORSDOF 5
ENDMDL
