MODEL 1
REMARK VINA RESULT:   -13.550      0.000      0.000
REMARK INTER + INTRA:         -17.619
REMARK INTER:                 -16.718
REMARK INTRA:                  -0.901
REMARK UNBOUND:                -0.901
REMARK SMILES Cc1cccc(C(=O)N2Cc3cc(NC(=O)c4ccccc4)ccc3CC2=O)c1
REMARK SMILES IDX 9 1 10 2 11 3 12 4 13 5 23 6 24 7 25 8 26 9 27 10 28 11 7 12
REMARK SMILES IDX 8 13 6 14 2 15 3 16 29 17 4 18 5 19 1 20 14 21 15 22 16 24
REMARK SMILES IDX 17 25 18 26 22 27 19 28 21 29 20 30
REMARK H PARENT 14 23
ROOT
ATOM      1  N   UNL     1      -9.655 -44.370  30.044  1.00  0.00    -0.274 N 
ATOM      2  C   UNL     1     -10.183 -43.691  28.871  1.00  0.00     0.164 C 
ATOM      3  C   UNL     1     -11.320 -44.454  28.253  1.00  0.00    -0.022 A 
ATOM      4  C   UNL     1     -12.411 -43.802  27.662  1.00  0.00     0.032 A 
ATOM      5  C   UNL     1     -13.437 -44.535  27.063  1.00  0.00     0.041 A 
ATOM      6  C   UNL     1     -13.347 -45.933  27.044  1.00  0.00     0.026 A 
ATOM      7  C   UNL     1     -12.254 -46.588  27.619  1.00  0.00     0.007 A 
ATOM      8  C   UNL     1     -11.242 -45.850  28.234  1.00  0.00    -0.033 A 
ATOM      9  C   UNL     1     -10.029 -46.512  28.824  1.00  0.00     0.136 C 
ATOM     10  C   UNL     1      -9.338 -45.723  29.931  1.00  0.00     0.234 C 
ATOM     11  O   UNL     1      -8.543 -46.309  30.669  1.00  0.00    -0.274 OA
ENDROOT
BRANCH   1  12
ATOM     12  C   UNL     1      -8.938 -43.553  30.920  1.00  0.00     0.260 C 
ATOM     13  O   UNL     1      -7.794 -43.165  30.678  1.00  0.00    -0.269 OA
BRANCH  12  14
ATOM     14  C   UNL     1      -9.592 -43.111  32.184  1.00  0.00     0.040 A 
ATOM     15  C   UNL     1     -11.572 -42.506  33.463  1.00  0.00    -0.050 A 
ATOM     16  C   UNL     1     -10.752 -42.198  34.556  1.00  0.00     0.003 A 
ATOM     17  C   UNL     1     -10.985 -42.969  32.277  1.00  0.00     0.017 A 
ATOM     18  C   UNL     1      -9.365 -42.319  34.460  1.00  0.00     0.001 A 
ATOM     19  C   UNL     1      -8.785 -42.767  33.274  1.00  0.00     0.014 A 
ATOM     20  C   UNL     1     -13.064 -42.399  33.579  1.00  0.00     0.044 C 
ENDBRANCH  12  14
ENDBRANCH   1  12
BRANCH   5  21
ATOM     21  N   UNL     1     -14.567 -43.954  26.450  1.00  0.00    -0.322 N 
ATOM     22  C   UNL     1     -14.628 -43.343  25.210  1.00  0.00     0.255 C 
ATOM     23  H   UNL     1     -15.404 -43.921  27.017  1.00  0.00     0.170 HD
ATOM     24  O   UNL     1     -13.693 -43.136  24.447  1.00  0.00    -0.269 OA
BRANCH  22  25
ATOM     25  C   UNL     1     -15.983 -42.863  24.817  1.00  0.00     0.040 A 
ATOM     26  C   UNL     1     -16.293 -42.535  23.489  1.00  0.00     0.014 A 
ATOM     27  C   UNL     1     -16.954 -42.712  25.814  1.00  0.00     0.014 A 
ATOM     28  C   UNL     1     -17.575 -42.088  23.163  1.00  0.00     0.001 A 
ATOM     29  C   UNL     1     -18.234 -42.266  25.484  1.00  0.00     0.001 A 
ATOM     30  C   UNL     1     -18.544 -41.959  24.158  1.00  0.00     0.000 A 
ENDBRANCH  22  25
ENDBRANCH   5  21
TORSDOF 4
ENDMDL
MODEL 2
REMARK VINA RESULT:   -11.771      1.769      2.494
REMARK INTER + INTRA:         -15.424
REMARK INTER:                 -15.682
REMARK INTRA:                   0.258
REMARK UNBOUND:                -0.901
REMARK SMILES Cc1cccc(C(=O)N2Cc3cc(NC(=O)c4ccccc4)ccc3CC2=O)c1
REMARK SMILES IDX 9 1 10 2 11 3 12 4 13 5 23 6 24 7 25 8 26 9 27 10 28 11 7 12
REMARK SMILES IDX 8 13 6 14 2 15 3 16 29 17 4 18 5 19 1 20 14 21 15 22 16 24
REMARK SMILES IDX 17 25 18 26 22 27 19 28 21 29 20 30
REMARK H PARENT 14 23
ROOT
ATOM      1  N   UNL     1     -11.968 -44.819  30.761  1.00  0.00    -0.274 N 
ATOM      2  C   UNL     1     -12.046 -43.890  29.645  1.00  0.00     0.164 C 
ATOM      3  C   UNL     1     -12.625 -44.541  28.421  1.00  0.00    -0.022 A 
ATOM      4  C   UNL     1     -13.448 -43.838  27.530  1.00  0.00     0.032 A 
ATOM      5  C   UNL     1     -13.943 -44.458  26.381  1.00  0.00     0.041 A 
ATOM      6  C   UNL     1     -13.585 -45.788  26.123  1.00  0.00     0.026 A 
ATOM      7  C   UNL     1     -12.753 -46.489  26.999  1.00  0.00     0.007 A 
ATOM      8  C   UNL     1     -12.278 -45.869  28.156  1.00  0.00    -0.033 A 
ATOM      9  C   UNL     1     -11.345 -46.572  29.102  1.00  0.00     0.136 C 
ATOM     10  C   UNL     1     -11.378 -46.062  30.539  1.00  0.00     0.234 C 
ATOM     11  O   UNL     1     -10.891 -46.763  31.428  1.00  0.00    -0.274 OA
ENDROOT
BRANCH   1  12
ATOM     12  C   UNL     1     -11.881 -44.217  32.018  1.00  0.00     0.260 C 
ATOM     13  O   UNL     1     -12.857 -44.078  32.756  1.00  0.00    -0.269 OA
BRANCH  12  14
ATOM     14  C   UNL     1     -10.549 -43.748  32.495  1.00  0.00     0.040 A 
ATOM     15  C   UNL     1      -8.120 -43.895  32.524  1.00  0.00    -0.050 A 
ATOM     16  C   UNL     1      -8.086 -42.882  33.492  1.00  0.00     0.003 A 
ATOM     17  C   UNL     1      -9.358 -44.321  32.024  1.00  0.00     0.017 A 
ATOM     18  C   UNL     1      -9.270 -42.325  33.977  1.00  0.00     0.001 A 
ATOM     19  C   UNL     1     -10.500 -42.762  33.487  1.00  0.00     0.014 A 
ATOM     20  C   UNL     1      -6.845 -44.473  31.986  1.00  0.00     0.044 C 
ENDBRANCH  12  14
ENDBRANCH   1  12
BRANCH   5  21
ATOM     21  N   UNL     1     -14.777 -43.821  25.439  1.00  0.00    -0.322 N 
ATOM     22  C   UNL     1     -15.873 -43.017  25.697  1.00  0.00     0.255 C 
ATOM     23  H   UNL     1     -14.590 -44.039  24.470  1.00  0.00     0.170 HD
ATOM     24  O   UNL     1     -16.359 -42.767  26.794  1.00  0.00    -0.269 OA
BRANCH  22  25
ATOM     25  C   UNL     1     -16.530 -42.447  24.486  1.00  0.00     0.040 A 
ATOM     26  C   UNL     1     -15.787 -41.865  23.449  1.00  0.00     0.014 A 
ATOM     27  C   UNL     1     -17.927 -42.476  24.408  1.00  0.00     0.014 A 
ATOM     28  C   UNL     1     -16.442 -41.342  22.332  1.00  0.00     0.001 A 
ATOM     29  C   UNL     1     -18.577 -41.953  23.290  1.00  0.00     0.001 A 
ATOM     30  C   UNL     1     -17.833 -41.392  22.251  1.00  0.00     0.000 A 
ENDBRANCH  22  25
ENDBRANCH   5  21
TORSDOF 4
ENDMDL
MODEL 3
REMARK VINA RESULT:   -11.102      4.149     10.834
REMARK INTER + INTRA:         -14.599
REMARK INTER:                 -13.961
REMARK INTRA:                  -0.638
REMARK UNBOUND:                -0.901
REMARK SMILES Cc1cccc(C(=O)N2Cc3cc(NC(=O)c4ccccc4)ccc3CC2=O)c1
REMARK SMILES IDX 9 1 10 2 11 3 12 4 13 5 23 6 24 7 25 8 26 9 27 10 28 11 7 12
REMARK SMILES IDX 8 13 6 14 2 15 3 16 29 17 4 18 5 19 1 20 14 21 15 22 16 24
REMARK SMILES IDX 17 25 18 26 22 27 19 28 21 29 20 30
REMARK H PARENT 14 23
ROOT
ATOM      1  N   UNL     1     -19.866 -41.253  23.000  1.00  0.00    -0.274 N 
ATOM      2  C   UNL     1     -19.216 -42.523  23.281  1.00  0.00     0.164 C 
ATOM      3  C   UNL     1     -17.746 -42.350  23.536  1.00  0.00    -0.022 A 
ATOM      4  C   UNL     1     -17.060 -43.141  24.469  1.00  0.00     0.032 A 
ATOM      5  C   UNL     1     -15.686 -42.983  24.661  1.00  0.00     0.041 A 
ATOM      6  C   UNL     1     -15.001 -42.035  23.890  1.00  0.00     0.026 A 
ATOM      7  C   UNL     1     -15.676 -41.254  22.948  1.00  0.00     0.007 A 
ATOM      8  C   UNL     1     -17.053 -41.403  22.776  1.00  0.00    -0.033 A 
ATOM      9  C   UNL     1     -17.809 -40.615  21.744  1.00  0.00     0.136 C 
ATOM     10  C   UNL     1     -19.293 -40.421  22.040  1.00  0.00     0.234 C 
ATOM     11  O   UNL     1     -19.911 -39.548  21.426  1.00  0.00    -0.274 OA
ENDROOT
BRANCH   1  12
ATOM     12  C   UNL     1     -21.248 -41.247  23.198  1.00  0.00     0.260 C 
ATOM     13  O   UNL     1     -22.046 -41.557  22.313  1.00  0.00    -0.269 OA
BRANCH  12  14
ATOM     14  C   UNL     1     -21.777 -40.876  24.541  1.00  0.00     0.040 A 
ATOM     15  C   UNL     1     -23.408 -39.754  25.957  1.00  0.00    -0.050 A 
ATOM     16  C   UNL     1     -22.671 -40.140  27.084  1.00  0.00     0.003 A 
ATOM     17  C   UNL     1     -22.957 -40.131  24.684  1.00  0.00     0.017 A 
ATOM     18  C   UNL     1     -21.486 -40.863  26.944  1.00  0.00     0.001 A 
ATOM     19  C   UNL     1     -21.034 -41.224  25.675  1.00  0.00     0.014 A 
ATOM     20  C   UNL     1     -24.695 -38.999  26.113  1.00  0.00     0.044 C 
ENDBRANCH  12  14
ENDBRANCH   1  12
BRANCH   5  21
ATOM     21  N   UNL     1     -14.927 -43.737  25.579  1.00  0.00    -0.322 N 
ATOM     22  C   UNL     1     -14.946 -43.644  26.960  1.00  0.00     0.255 C 
ATOM     23  H   UNL     1     -14.244 -44.363  25.174  1.00  0.00     0.170 HD
ATOM     24  O   UNL     1     -15.578 -42.839  27.633  1.00  0.00    -0.269 OA
BRANCH  22  25
ATOM     25  C   UNL     1     -14.058 -44.613  27.664  1.00  0.00     0.040 A 
ATOM     26  C   UNL     1     -13.962 -44.643  29.062  1.00  0.00     0.014 A 
ATOM     27  C   UNL     1     -13.285 -45.491  26.894  1.00  0.00     0.014 A 
ATOM     28  C   UNL     1     -13.117 -45.567  29.681  1.00  0.00     0.001 A 
ATOM     29  C   UNL     1     -12.444 -46.412  27.518  1.00  0.00     0.001 A 
ATOM     30  C   UNL     1     -12.364 -46.453  28.911  1.00  0.00     0.000 A 
ENDBRANCH  22  25
ENDBRANCH   5  21
TORSDOF 4
ENDMDL
MODEL 4
REMARK VINA RESULT:   -10.761      3.838     11.192
REMARK INTER + INTRA:         -14.178
REMARK INTER:                 -13.903
REMARK INTRA:                  -0.276
REMARK UNBOUND:                -0.901
REMARK SMILES Cc1cccc(C(=O)N2Cc3cc(NC(=O)c4ccccc4)ccc3CC2=O)c1
REMARK SMILES IDX 9 1 10 2 11 3 12 4 13 5 23 6 24 7 25 8 26 9 27 10 28 11 7 12
REMARK SMILES IDX 8 13 6 14 2 15 3 16 29 17 4 18 5 19 1 20 14 21 15 22 16 24
REMARK SMILES IDX 17 25 18 26 22 27 19 28 21 29 20 30
REMARK H PARENT 14 23
ROOT
ATOM      1  N   UNL     1     -20.097 -42.159  24.549  1.00  0.00    -0.274 N 
ATOM      2  C   UNL     1     -18.669 -41.903  24.652  1.00  0.00     0.164 C 
ATOM      3  C   UNL     1     -18.141 -42.244  26.016  1.00  0.00    -0.022 A 
ATOM      4  C   UNL     1     -16.858 -42.782  26.198  1.00  0.00     0.032 A 
ATOM      5  C   UNL     1     -16.379 -43.057  27.481  1.00  0.00     0.041 A 
ATOM      6  C   UNL     1     -17.193 -42.767  28.583  1.00  0.00     0.026 A 
ATOM      7  C   UNL     1     -18.467 -42.218  28.409  1.00  0.00     0.007 A 
ATOM      8  C   UNL     1     -18.947 -41.964  27.123  1.00  0.00    -0.033 A 
ATOM      9  C   UNL     1     -20.292 -41.334  26.894  1.00  0.00     0.136 C 
ATOM     10  C   UNL     1     -20.928 -41.645  25.543  1.00  0.00     0.234 C 
ATOM     11  O   UNL     1     -22.134 -41.434  25.393  1.00  0.00    -0.274 OA
ENDROOT
BRANCH   1  12
ATOM     12  C   UNL     1     -20.572 -42.306  23.245  1.00  0.00     0.260 C 
ATOM     13  O   UNL     1     -21.005 -43.374  22.813  1.00  0.00    -0.269 OA
BRANCH  12  14
ATOM     14  C   UNL     1     -20.581 -41.114  22.349  1.00  0.00     0.040 A 
ATOM     15  C   UNL     1     -21.711 -39.204  21.350  1.00  0.00    -0.050 A 
ATOM     16  C   UNL     1     -20.565 -38.945  20.589  1.00  0.00     0.003 A 
ATOM     17  C   UNL     1     -21.711 -40.291  22.236  1.00  0.00     0.017 A 
ATOM     18  C   UNL     1     -19.446 -39.774  20.684  1.00  0.00     0.001 A 
ATOM     19  C   UNL     1     -19.457 -40.862  21.556  1.00  0.00     0.014 A 
ATOM     20  C   UNL     1     -22.901 -38.295  21.265  1.00  0.00     0.044 C 
ENDBRANCH  12  14
ENDBRANCH   1  12
BRANCH   5  21
ATOM     21  N   UNL     1     -15.105 -43.598  27.745  1.00  0.00    -0.322 N 
ATOM     22  C   UNL     1     -14.283 -44.280  26.865  1.00  0.00     0.255 C 
ATOM     23  H   UNL     1     -14.795 -43.540  28.707  1.00  0.00     0.170 HD
ATOM     24  O   UNL     1     -14.545 -44.596  25.711  1.00  0.00    -0.269 OA
BRANCH  22  25
ATOM     25  C   UNL     1     -12.967 -44.693  27.431  1.00  0.00     0.040 A 
ATOM     26  C   UNL     1     -12.020 -43.752  27.859  1.00  0.00     0.014 A 
ATOM     27  C   UNL     1     -12.671 -46.060  27.505  1.00  0.00     0.014 A 
ATOM     28  C   UNL     1     -10.799 -44.181  28.383  1.00  0.00     0.001 A 
ATOM     29  C   UNL     1     -11.450 -46.484  28.030  1.00  0.00     0.001 A 
ATOM     30  C   UNL     1     -10.517 -45.544  28.473  1.00  0.00     0.000 A 
ENDBRANCH  22  25
ENDBRANCH   5  21
TORSDOF 4
ENDMDL
MODEL 5
REMARK VINA RESULT:   -10.582      3.632     10.149
REMARK INTER + INTRA:         -13.957
REMARK INTER:                 -13.518
REMARK INTRA:                  -0.439
REMARK UNBOUND:                -0.901
REMARK SMILES Cc1cccc(C(=O)N2Cc3cc(NC(=O)c4ccccc4)ccc3CC2=O)c1
REMARK SMILES IDX 9 1 10 2 11 3 12 4 13 5 23 6 24 7 25 8 26 9 27 10 28 11 7 12
REMARK SMILES IDX 8 13 6 14 2 15 3 16 29 17 4 18 5 19 1 20 14 21 15 22 16 24
REMARK SMILES IDX 17 25 18 26 22 27 19 28 21 29 20 30
REMARK H PARENT 14 23
ROOT
ATOM      1  N   UNL     1     -19.396 -41.960  25.996  1.00  0.00    -0.274 N 
ATOM      2  C   UNL     1     -18.403 -42.856  26.567  1.00  0.00     0.164 C 
ATOM      3  C   UNL     1     -17.049 -42.648  25.952  1.00  0.00    -0.022 A 
ATOM      4  C   UNL     1     -15.870 -42.775  26.701  1.00  0.00     0.032 A 
ATOM      5  C   UNL     1     -14.623 -42.611  26.095  1.00  0.00     0.041 A 
ATOM      6  C   UNL     1     -14.569 -42.338  24.722  1.00  0.00     0.026 A 
ATOM      7  C   UNL     1     -15.740 -42.224  23.967  1.00  0.00     0.007 A 
ATOM      8  C   UNL     1     -16.984 -42.370  24.583  1.00  0.00    -0.033 A 
ATOM      9  C   UNL     1     -18.265 -42.299  23.801  1.00  0.00     0.136 C 
ATOM     10  C   UNL     1     -19.491 -41.887  24.607  1.00  0.00     0.234 C 
ATOM     11  O   UNL     1     -20.498 -41.509  24.004  1.00  0.00    -0.274 OA
ENDROOT
BRANCH   1  12
ATOM     12  C   UNL     1     -20.529 -41.763  26.787  1.00  0.00     0.260 C 
ATOM     13  O   UNL     1     -20.789 -40.682  27.317  1.00  0.00    -0.269 OA
BRANCH  12  14
ATOM     14  C   UNL     1     -21.476 -42.899  26.976  1.00  0.00     0.040 A 
ATOM     15  C   UNL     1     -23.692 -43.885  26.776  1.00  0.00    -0.050 A 
ATOM     16  C   UNL     1     -23.225 -45.029  27.434  1.00  0.00     0.003 A 
ATOM     17  C   UNL     1     -22.809 -42.821  26.543  1.00  0.00     0.017 A 
ATOM     18  C   UNL     1     -21.906 -45.101  27.884  1.00  0.00     0.001 A 
ATOM     19  C   UNL     1     -21.035 -44.035  27.663  1.00  0.00     0.014 A 
ATOM     20  C   UNL     1     -25.104 -43.822  26.271  1.00  0.00     0.044 C 
ENDBRANCH  12  14
ENDBRANCH   1  12
BRANCH   5  21
ATOM     21  N   UNL     1     -13.395 -42.721  26.779  1.00  0.00    -0.322 N 
ATOM     22  C   UNL     1     -12.833 -43.865  27.317  1.00  0.00     0.255 C 
ATOM     23  H   UNL     1     -12.911 -41.849  26.954  1.00  0.00     0.170 HD
ATOM     24  O   UNL     1     -13.336 -44.981  27.355  1.00  0.00    -0.269 OA
BRANCH  22  25
ATOM     25  C   UNL     1     -11.495 -43.669  27.944  1.00  0.00     0.040 A 
ATOM     26  C   UNL     1     -10.953 -44.607  28.834  1.00  0.00     0.014 A 
ATOM     27  C   UNL     1     -10.784 -42.499  27.649  1.00  0.00     0.014 A 
ATOM     28  C   UNL     1      -9.695 -44.384  29.400  1.00  0.00     0.001 A 
ATOM     29  C   UNL     1      -9.528 -42.281  28.216  1.00  0.00     0.001 A 
ATOM     30  C   UNL     1      -8.983 -43.226  29.087  1.00  0.00     0.000 A 
ENDBRANCH  22  25
ENDBRANCH   5  21
TORSDOF 4
ENDMDL
