MODEL 1
REMARK VINA RESULT:   -13.136      0.000      0.000
REMARK INTER + INTRA:         -17.543
REMARK INTER:                 -16.976
REMARK INTRA:                  -0.567
REMARK UNBOUND:                -0.567
REMARK SMILES O=C1C=C(NCCNc2c3c(nc4cc(Cl)ccc24)CCCC3)C(=O)c2ccccc21
REMARK SMILES IDX 6 1 5 2 4 4 2 5 3 6 31 7 30 8 26 9 24 10 29 11 27 12 28 13
REMARK SMILES IDX 1 14 25 15 7 16 8 17 9 19 10 20 19 21 11 22 23 23 18 24
REMARK SMILES IDX 13 25 12 26 20 27 22 28 17 29 14 30 21 31 15 32 16 33
REMARK H PARENT 5 3 8 18
ROOT
ATOM      1  C   UNL     1     -12.958 -45.873  28.639  1.00  0.00     0.134 C 
ENDROOT
BRANCH   1   2
ATOM      2  N   UNL     1     -13.246 -44.486  28.275  1.00  0.00    -0.380 N 
ATOM      3  H   UNL     1     -13.360 -43.857  29.080  1.00  0.00     0.160 HD
BRANCH   2   4
ATOM      4  C   UNL     1     -14.119 -44.094  27.262  1.00  0.00     0.087 C 
ATOM      5  C   UNL     1     -14.852 -43.740  24.923  1.00  0.00     0.188 C 
ATOM      6  C   UNL     1     -13.890 -44.186  25.946  1.00  0.00     0.082 C 
ATOM      7  C   UNL     1     -16.118 -43.141  25.377  1.00  0.00     0.033 A 
ATOM      8  C   UNL     1     -17.046 -42.682  24.434  1.00  0.00     0.013 A 
ATOM      9  C   UNL     1     -16.393 -43.031  26.737  1.00  0.00     0.035 A 
ATOM     10  C   UNL     1     -15.426 -43.515  27.739  1.00  0.00     0.209 C 
ATOM     11  C   UNL     1     -18.249 -42.115  24.858  1.00  0.00     0.001 A 
ATOM     12  C   UNL     1     -17.602 -42.461  27.160  1.00  0.00     0.013 A 
ATOM     13  C   UNL     1     -18.526 -42.004  26.220  1.00  0.00     0.001 A 
ATOM     14  O   UNL     1     -14.592 -43.869  23.734  1.00  0.00    -0.289 OA
ATOM     15  O   UNL     1     -15.677 -43.467  28.941  1.00  0.00    -0.287 OA
ENDBRANCH   2   4
ENDBRANCH   1   2
BRANCH   1  16
ATOM     16  C   UNL     1     -11.556 -45.993  29.264  1.00  0.00     0.134 C 
BRANCH  16  17
ATOM     17  N   UNL     1     -11.583 -46.226  30.725  1.00  0.00    -0.382 N 
ATOM     18  H   UNL     1     -10.902 -46.951  30.955  1.00  0.00     0.160 HD
BRANCH  17  19
ATOM     19  C   UNL     1     -11.262 -45.068  31.494  1.00  0.00     0.049 A 
ATOM     20  C   UNL     1      -9.906 -44.805  31.773  1.00  0.00    -0.003 A 
ATOM     21  C   UNL     1     -12.269 -44.194  31.999  1.00  0.00     0.024 A 
ATOM     22  C   UNL     1      -9.609 -43.701  32.572  1.00  0.00     0.046 A 
ATOM     23  C   UNL     1      -8.800 -45.613  31.132  1.00  0.00     0.039 C 
ATOM     24  C   UNL     1     -13.656 -44.322  31.729  1.00  0.00     0.014 A 
ATOM     25  C   UNL     1     -11.844 -43.120  32.810  1.00  0.00     0.074 A 
ATOM     26  N   UNL     1     -10.558 -42.893  33.099  1.00  0.00    -0.252 NA
ATOM     27  C   UNL     1      -8.191 -43.356  32.955  1.00  0.00     0.056 C 
ATOM     28  C   UNL     1      -7.435 -45.425  31.792  1.00  0.00     0.005 C 
ATOM     29  C   UNL     1     -14.585 -43.431  32.265  1.00  0.00     0.021 A 
ATOM     30  C   UNL     1     -12.782 -42.246  33.337  1.00  0.00     0.049 A 
ATOM     31  C   UNL     1      -7.151 -43.947  32.013  1.00  0.00     0.007 C 
ATOM     32  C   UNL     1     -14.141 -42.395  33.073  1.00  0.00     0.043 A 
ATOM     33  Cl  UNL     1     -15.273 -41.288  33.744  1.00  0.00    -0.084 Cl
ENDBRANCH  17  19
ENDBRANCH  16  17
ENDBRANCH   1  16
TORSDOF 5
ENDMDL
MODEL 2
REMARK VINA RESULT:   -12.456      1.803      3.744
REMARK INTER + INTRA:         -16.663
REMARK INTER:                 -15.984
REMARK INTRA:                  -0.679
REMARK UNBOUND:                -0.567
REMARK SMILES O=C1C=C(NCCNc2c3c(nc4cc(Cl)ccc24)CCCC3)C(=O)c2ccccc21
REMARK SMILES IDX 6 1 5 2 4 4 2 5 3 6 31 7 30 8 26 9 24 10 29 11 27 12 28 13
REMARK SMILES IDX 1 14 25 15 7 16 8 17 9 19 10 20 19 21 11 22 23 23 18 24
REMARK SMILES IDX 13 25 12 26 20 27 22 28 17 29 14 30 21 31 15 32 16 33
REMARK H PARENT 5 3 8 18
ROOT
ATOM      1  C   UNL     1     -13.080 -45.339  28.450  1.00  0.00     0.134 C 
ENDROOT
BRANCH   1   2
ATOM      2  N   UNL     1     -13.446 -43.978  28.059  1.00  0.00    -0.380 N 
ATOM      3  H   UNL     1     -13.545 -43.328  28.848  1.00  0.00     0.160 HD
BRANCH   2   4
ATOM      4  C   UNL     1     -14.384 -43.656  27.080  1.00  0.00     0.087 C 
ATOM      5  C   UNL     1     -15.228 -43.353  24.772  1.00  0.00     0.188 C 
ATOM      6  C   UNL     1     -14.195 -43.721  25.757  1.00  0.00     0.082 C 
ATOM      7  C   UNL     1     -16.522 -42.866  25.275  1.00  0.00     0.033 A 
ATOM      8  C   UNL     1     -17.519 -42.482  24.368  1.00  0.00     0.013 A 
ATOM      9  C   UNL     1     -16.757 -42.787  26.644  1.00  0.00     0.035 A 
ATOM     10  C   UNL     1     -15.718 -43.193  27.608  1.00  0.00     0.209 C 
ATOM     11  C   UNL     1     -18.750 -42.021  24.839  1.00  0.00     0.001 A 
ATOM     12  C   UNL     1     -17.994 -42.324  27.115  1.00  0.00     0.013 A 
ATOM     13  C   UNL     1     -18.987 -41.942  26.211  1.00  0.00     0.001 A 
ATOM     14  O   UNL     1     -15.000 -43.452  23.573  1.00  0.00    -0.289 OA
ATOM     15  O   UNL     1     -15.928 -43.172  28.818  1.00  0.00    -0.287 OA
ENDBRANCH   2   4
ENDBRANCH   1   2
BRANCH   1  16
ATOM     16  C   UNL     1     -11.716 -45.354  29.165  1.00  0.00     0.134 C 
BRANCH  16  17
ATOM     17  N   UNL     1     -11.798 -45.791  30.576  1.00  0.00    -0.382 N 
ATOM     18  H   UNL     1     -11.158 -46.573  30.716  1.00  0.00     0.160 HD
BRANCH  17  19
ATOM     19  C   UNL     1     -11.450 -44.771  31.511  1.00  0.00     0.049 A 
ATOM     20  C   UNL     1     -12.485 -43.998  32.074  1.00  0.00    -0.003 A 
ATOM     21  C   UNL     1     -10.095 -44.503  31.865  1.00  0.00     0.024 A 
ATOM     22  C   UNL     1     -12.126 -42.968  32.944  1.00  0.00     0.046 A 
ATOM     23  C   UNL     1     -13.939 -44.345  31.848  1.00  0.00     0.039 C 
ATOM     24  C   UNL     1      -8.980 -45.254  31.413  1.00  0.00     0.014 A 
ATOM     25  C   UNL     1      -9.859 -43.423  32.742  1.00  0.00     0.074 A 
ATOM     26  N   UNL     1     -10.843 -42.671  33.249  1.00  0.00    -0.252 NA
ATOM     27  C   UNL     1     -13.158 -42.064  33.571  1.00  0.00     0.056 C 
ATOM     28  C   UNL     1     -14.909 -43.232  32.238  1.00  0.00     0.005 C 
ATOM     29  C   UNL     1      -7.680 -44.928  31.798  1.00  0.00     0.021 A 
ATOM     30  C   UNL     1      -8.560 -43.110  33.111  1.00  0.00     0.049 A 
ATOM     31  C   UNL     1     -14.554 -42.674  33.607  1.00  0.00     0.007 C 
ATOM     32  C   UNL     1      -7.476 -43.850  32.646  1.00  0.00     0.043 A 
ATOM     33  Cl  UNL     1      -5.879 -43.432  33.130  1.00  0.00    -0.084 Cl
ENDBRANCH  17  19
ENDBRANCH  16  17
ENDBRANCH   1  16
TORSDOF 5
ENDMDL
MODEL 3
REMARK VINA RESULT:   -11.828      2.063      4.238
REMARK INTER + INTRA:         -15.852
REMARK INTER:                 -15.636
REMARK INTRA:                  -0.216
REMARK UNBOUND:                -0.567
REMARK SMILES O=C1C=C(NCCNc2c3c(nc4cc(Cl)ccc24)CCCC3)C(=O)c2ccccc21
REMARK SMILES IDX 6 1 5 2 4 4 2 5 3 6 31 7 30 8 26 9 24 10 29 11 27 12 28 13
REMARK SMILES IDX 1 14 25 15 7 16 8 17 9 19 10 20 19 21 11 22 23 23 18 24
REMARK SMILES IDX 13 25 12 26 20 27 22 28 17 29 14 30 21 31 15 32 16 33
REMARK H PARENT 5 3 8 18
ROOT
ATOM      1  C   UNL     1     -12.757 -44.344  28.459  1.00  0.00     0.134 C 
ENDROOT
BRANCH   1   2
ATOM      2  N   UNL     1     -13.282 -44.165  27.106  1.00  0.00    -0.380 N 
ATOM      3  H   UNL     1     -12.593 -43.805  26.433  1.00  0.00     0.160 HD
BRANCH   2   4
ATOM      4  C   UNL     1     -14.536 -43.639  26.801  1.00  0.00     0.087 C 
ATOM      5  C   UNL     1     -16.789 -42.737  27.296  1.00  0.00     0.188 C 
ATOM      6  C   UNL     1     -15.474 -43.277  27.685  1.00  0.00     0.082 C 
ATOM      7  C   UNL     1     -17.089 -42.614  25.860  1.00  0.00     0.033 A 
ATOM      8  C   UNL     1     -18.339 -42.129  25.453  1.00  0.00     0.013 A 
ATOM      9  C   UNL     1     -16.139 -42.977  24.911  1.00  0.00     0.035 A 
ATOM     10  C   UNL     1     -14.819 -43.484  25.329  1.00  0.00     0.209 C 
ATOM     11  C   UNL     1     -18.630 -42.008  24.093  1.00  0.00     0.001 A 
ATOM     12  C   UNL     1     -16.433 -42.855  23.547  1.00  0.00     0.013 A 
ATOM     13  C   UNL     1     -17.678 -42.371  23.140  1.00  0.00     0.001 A 
ATOM     14  O   UNL     1     -17.598 -42.406  28.153  1.00  0.00    -0.289 OA
ATOM     15  O   UNL     1     -13.954 -43.764  24.502  1.00  0.00    -0.287 OA
ENDBRANCH   2   4
ENDBRANCH   1   2
BRANCH   1  16
ATOM     16  C   UNL     1     -13.045 -45.767  28.972  1.00  0.00     0.134 C 
BRANCH  16  17
ATOM     17  N   UNL     1     -13.407 -45.810  30.407  1.00  0.00    -0.382 N 
ATOM     18  H   UNL     1     -13.362 -46.778  30.728  1.00  0.00     0.160 HD
BRANCH  17  19
ATOM     19  C   UNL     1     -12.544 -45.035  31.237  1.00  0.00     0.049 A 
ATOM     20  C   UNL     1     -13.106 -43.985  31.991  1.00  0.00    -0.003 A 
ATOM     21  C   UNL     1     -11.141 -45.280  31.303  1.00  0.00     0.024 A 
ATOM     22  C   UNL     1     -12.243 -43.201  32.756  1.00  0.00     0.046 A 
ATOM     23  C   UNL     1     -14.603 -43.789  32.072  1.00  0.00     0.039 C 
ATOM     24  C   UNL     1     -10.476 -46.343  30.640  1.00  0.00     0.014 A 
ATOM     25  C   UNL     1     -10.370 -44.405  32.099  1.00  0.00     0.074 A 
ATOM     26  N   UNL     1     -10.904 -43.390  32.788  1.00  0.00    -0.252 NA
ATOM     27  C   UNL     1     -12.743 -42.034  33.570  1.00  0.00     0.056 C 
ATOM     28  C   UNL     1     -15.019 -42.433  32.639  1.00  0.00     0.005 C 
ATOM     29  C   UNL     1      -9.096 -46.515  30.746  1.00  0.00     0.021 A 
ATOM     30  C   UNL     1      -8.999 -44.589  32.189  1.00  0.00     0.049 A 
ATOM     31  C   UNL     1     -14.228 -42.119  33.899  1.00  0.00     0.007 C 
ATOM     32  C   UNL     1      -8.362 -45.630  31.521  1.00  0.00     0.043 A 
ATOM     33  Cl  UNL     1      -6.659 -45.826  31.662  1.00  0.00    -0.084 Cl
ENDBRANCH  17  19
ENDBRANCH  16  17
ENDBRANCH   1  16
TORSDOF 5
ENDMDL
MODEL 4
REMARK VINA RESULT:   -11.530      0.890      2.003
REMARK INTER + INTRA:         -15.467
REMARK INTER:                 -15.507
REMARK INTRA:                   0.040
REMARK UNBOUND:                -0.567
REMARK SMILES O=C1C=C(NCCNc2c3c(nc4cc(Cl)ccc24)CCCC3)C(=O)c2ccccc21
REMARK SMILES IDX 6 1 5 2 4 4 2 5 3 6 31 7 30 8 26 9 24 10 29 11 27 12 28 13
REMARK SMILES IDX 1 14 25 15 7 16 8 17 9 19 10 20 19 21 11 22 23 23 18 24
REMARK SMILES IDX 13 25 12 26 20 27 22 28 17 29 14 30 21 31 15 32 16 33
REMARK H PARENT 5 3 8 18
ROOT
ATOM      1  C   UNL     1     -12.467 -44.314  28.248  1.00  0.00     0.134 C 
ENDROOT
BRANCH   1   2
ATOM      2  N   UNL     1     -13.114 -44.218  26.940  1.00  0.00    -0.380 N 
ATOM      3  H   UNL     1     -12.487 -43.918  26.183  1.00  0.00     0.160 HD
BRANCH   2   4
ATOM      4  C   UNL     1     -14.384 -43.690  26.717  1.00  0.00     0.087 C 
ATOM      5  C   UNL     1     -16.588 -42.759  27.358  1.00  0.00     0.188 C 
ATOM      6  C   UNL     1     -15.251 -43.300  27.660  1.00  0.00     0.082 C 
ATOM      7  C   UNL     1     -16.995 -42.669  25.946  1.00  0.00     0.033 A 
ATOM      8  C   UNL     1     -18.269 -42.184  25.621  1.00  0.00     0.013 A 
ATOM      9  C   UNL     1     -16.121 -43.061  24.937  1.00  0.00     0.035 A 
ATOM     10  C   UNL     1     -14.776 -43.568  25.267  1.00  0.00     0.209 C 
ATOM     11  C   UNL     1     -18.661 -42.094  24.284  1.00  0.00     0.001 A 
ATOM     12  C   UNL     1     -16.516 -42.969  23.596  1.00  0.00     0.013 A 
ATOM     13  C   UNL     1     -17.784 -42.486  23.272  1.00  0.00     0.001 A 
ATOM     14  O   UNL     1     -17.329 -42.402  28.265  1.00  0.00    -0.289 OA
ATOM     15  O   UNL     1     -13.977 -43.874  24.385  1.00  0.00    -0.287 OA
ENDBRANCH   2   4
ENDBRANCH   1   2
BRANCH   1  16
ATOM     16  C   UNL     1     -13.161 -45.372  29.125  1.00  0.00     0.134 C 
BRANCH  16  17
ATOM     17  N   UNL     1     -12.263 -45.981  30.131  1.00  0.00    -0.382 N 
ATOM     18  H   UNL     1     -11.496 -46.448  29.647  1.00  0.00     0.160 HD
BRANCH  17  19
ATOM     19  C   UNL     1     -11.696 -45.035  31.036  1.00  0.00     0.049 A 
ATOM     20  C   UNL     1     -10.294 -45.004  31.178  1.00  0.00    -0.003 A 
ATOM     21  C   UNL     1     -12.505 -44.150  31.808  1.00  0.00     0.024 A 
ATOM     22  C   UNL     1      -9.755 -44.113  32.107  1.00  0.00     0.046 A 
ATOM     23  C   UNL     1      -9.393 -45.812  30.272  1.00  0.00     0.039 C 
ATOM     24  C   UNL     1     -13.915 -44.049  31.702  1.00  0.00     0.014 A 
ATOM     25  C   UNL     1     -11.843 -43.308  32.726  1.00  0.00     0.074 A 
ATOM     26  N   UNL     1     -10.514 -43.303  32.881  1.00  0.00    -0.252 NA
ATOM     27  C   UNL     1      -8.270 -44.027  32.356  1.00  0.00     0.056 C 
ATOM     28  C   UNL     1      -7.954 -45.924  30.772  1.00  0.00     0.005 C 
ATOM     29  C   UNL     1     -14.641 -43.162  32.497  1.00  0.00     0.021 A 
ATOM     30  C   UNL     1     -12.581 -42.435  33.511  1.00  0.00     0.049 A 
ATOM     31  C   UNL     1      -7.433 -44.561  31.201  1.00  0.00     0.007 C 
ATOM     32  C   UNL     1     -13.966 -42.359  33.404  1.00  0.00     0.043 A 
ATOM     33  Cl  UNL     1     -14.846 -41.260  34.393  1.00  0.00    -0.084 Cl
ENDBRANCH  17  19
ENDBRANCH  16  17
ENDBRANCH   1  16
TORSDOF 5
ENDMDL
MODEL 5
REMARK VINA RESULT:   -11.247      5.449     11.193
REMARK INTER + INTRA:         -15.102
REMARK INTER:                 -14.563
REMARK INTRA:                  -0.538
REMARK UNBOUND:                -0.567
REMARK SMILES O=C1C=C(NCCNc2c3c(nc4cc(Cl)ccc24)CCCC3)C(=O)c2ccccc21
REMARK SMILES IDX 6 1 5 2 4 4 2 5 3 6 31 7 30 8 26 9 24 10 29 11 27 12 28 13
REMARK SMILES IDX 1 14 25 15 7 16 8 17 9 19 10 20 19 21 11 22 23 23 18 24
REMARK SMILES IDX 13 25 12 26 20 27 22 28 17 29 14 30 21 31 15 32 16 33
REMARK H PARENT 5 3 8 18
ROOT
ATOM      1  C   UNL     1     -15.981 -41.495  22.781  1.00  0.00     0.134 C 
ENDROOT
BRANCH   1   2
ATOM      2  N   UNL     1     -16.289 -42.761  23.445  1.00  0.00    -0.380 N 
ATOM      3  H   UNL     1     -17.251 -43.091  23.293  1.00  0.00     0.160 HD
BRANCH   2   4
ATOM      4  C   UNL     1     -15.888 -43.102  24.735  1.00  0.00     0.087 C 
ATOM      5  C   UNL     1     -15.856 -42.947  27.206  1.00  0.00     0.188 C 
ATOM      6  C   UNL     1     -16.331 -42.548  25.870  1.00  0.00     0.082 C 
ATOM      7  C   UNL     1     -14.822 -43.992  27.290  1.00  0.00     0.033 A 
ATOM      8  C   UNL     1     -14.327 -44.379  28.542  1.00  0.00     0.013 A 
ATOM      9  C   UNL     1     -14.338 -44.594  26.132  1.00  0.00     0.035 A 
ATOM     10  C   UNL     1     -14.856 -44.198  24.810  1.00  0.00     0.209 C 
ATOM     11  C   UNL     1     -13.348 -45.370  28.628  1.00  0.00     0.001 A 
ATOM     12  C   UNL     1     -13.356 -45.589  26.221  1.00  0.00     0.013 A 
ATOM     13  C   UNL     1     -12.863 -45.975  27.469  1.00  0.00     0.001 A 
ATOM     14  O   UNL     1     -16.314 -42.415  28.209  1.00  0.00    -0.289 OA
ATOM     15  O   UNL     1     -14.472 -44.754  23.783  1.00  0.00    -0.287 OA
ENDBRANCH   2   4
ENDBRANCH   1   2
BRANCH   1  16
ATOM     16  C   UNL     1     -17.252 -40.874  22.173  1.00  0.00     0.134 C 
BRANCH  16  17
ATOM     17  N   UNL     1     -18.446 -41.740  22.298  1.00  0.00    -0.382 N 
ATOM     18  H   UNL     1     -18.290 -42.408  23.054  1.00  0.00     0.160 HD
BRANCH  17  19
ATOM     19  C   UNL     1     -19.644 -41.023  22.591  1.00  0.00     0.049 A 
ATOM     20  C   UNL     1     -20.195 -41.141  23.882  1.00  0.00    -0.003 A 
ATOM     21  C   UNL     1     -20.299 -40.218  21.614  1.00  0.00     0.024 A 
ATOM     22  C   UNL     1     -21.396 -40.479  24.139  1.00  0.00     0.046 A 
ATOM     23  C   UNL     1     -19.456 -41.855  24.991  1.00  0.00     0.039 C 
ATOM     24  C   UNL     1     -19.805 -39.974  20.307  1.00  0.00     0.014 A 
ATOM     25  C   UNL     1     -21.517 -39.612  21.989  1.00  0.00     0.074 A 
ATOM     26  N   UNL     1     -22.054 -39.754  23.206  1.00  0.00    -0.252 NA
ATOM     27  C   UNL     1     -22.083 -40.572  25.479  1.00  0.00     0.056 C 
ATOM     28  C   UNL     1     -20.325 -42.182  26.204  1.00  0.00     0.005 C 
ATOM     29  C   UNL     1     -20.507 -39.179  19.401  1.00  0.00     0.021 A 
ATOM     30  C   UNL     1     -22.204 -38.828  21.074  1.00  0.00     0.049 A 
ATOM     31  C   UNL     1     -21.145 -40.967  26.612  1.00  0.00     0.007 C 
ATOM     32  C   UNL     1     -21.710 -38.611  19.791  1.00  0.00     0.043 A 
ATOM     33  Cl  UNL     1     -22.591 -37.629  18.687  1.00  0.00    -0.084 Cl
ENDBRANCH  17  19
ENDBRANCH  16  17
ENDBRANCH   1  16
TORSDOF 5
ENDMDL
MODEL 6
REMARK VINA RESULT:   -11.218      1.190      2.085
REMARK INTER + INTRA:         -15.064
REMARK INTER:                 -14.992
REMARK INTRA:                  -0.072
REMARK UNBOUND:                -0.567
REMARK SMILES O=C1C=C(NCCNc2c3c(nc4cc(Cl)ccc24)CCCC3)C(=O)c2ccccc21
REMARK SMILES IDX 6 1 5 2 4 4 2 5 3 6 31 7 30 8 26 9 24 10 29 11 27 12 28 13
REMARK SMILES IDX 1 14 25 15 7 16 8 17 9 19 10 20 19 21 11 22 23 23 18 24
REMARK SMILES IDX 13 25 12 26 20 27 22 28 17 29 14 30 21 31 15 32 16 33
REMARK H PARENT 5 3 8 18
ROOT
ATOM      1  C   UNL     1     -11.917 -46.276  28.597  1.00  0.00     0.134 C 
ENDROOT
BRANCH   1   2
ATOM      2  N   UNL     1     -13.311 -45.936  28.877  1.00  0.00    -0.380 N 
ATOM      3  H   UNL     1     -13.900 -46.745  29.113  1.00  0.00     0.160 HD
BRANCH   2   4
ATOM      4  C   UNL     1     -14.067 -45.016  28.154  1.00  0.00     0.087 C 
ATOM      5  C   UNL     1     -15.657 -43.142  27.847  1.00  0.00     0.188 C 
ATOM      6  C   UNL     1     -14.873 -44.080  28.671  1.00  0.00     0.082 C 
ATOM      7  C   UNL     1     -15.566 -43.262  26.383  1.00  0.00     0.033 A 
ATOM      8  C   UNL     1     -16.317 -42.405  25.569  1.00  0.00     0.013 A 
ATOM      9  C   UNL     1     -14.737 -44.221  25.809  1.00  0.00     0.035 A 
ATOM     10  C   UNL     1     -13.938 -45.125  26.656  1.00  0.00     0.209 C 
ATOM     11  C   UNL     1     -16.234 -42.513  24.179  1.00  0.00     0.001 A 
ATOM     12  C   UNL     1     -14.655 -44.327  24.414  1.00  0.00     0.013 A 
ATOM     13  C   UNL     1     -15.403 -43.473  23.602  1.00  0.00     0.001 A 
ATOM     14  O   UNL     1     -16.362 -42.294  28.380  1.00  0.00    -0.289 OA
ATOM     15  O   UNL     1     -13.168 -45.945  26.163  1.00  0.00    -0.287 OA
ENDBRANCH   2   4
ENDBRANCH   1   2
BRANCH   1  16
ATOM     16  C   UNL     1     -10.968 -45.494  29.523  1.00  0.00     0.134 C 
BRANCH  16  17
ATOM     17  N   UNL     1     -11.177 -45.786  30.959  1.00  0.00    -0.382 N 
ATOM     18  H   UNL     1     -10.512 -46.503  31.250  1.00  0.00     0.160 HD
BRANCH  17  19
ATOM     19  C   UNL     1     -10.992 -44.652  31.805  1.00  0.00     0.049 A 
ATOM     20  C   UNL     1      -9.680 -44.309  32.186  1.00  0.00    -0.003 A 
ATOM     21  C   UNL     1     -12.092 -43.882  32.286  1.00  0.00     0.024 A 
ATOM     22  C   UNL     1      -9.517 -43.232  33.057  1.00  0.00     0.046 A 
ATOM     23  C   UNL     1      -8.479 -44.998  31.578  1.00  0.00     0.039 C 
ATOM     24  C   UNL     1     -13.446 -44.094  31.921  1.00  0.00     0.014 A 
ATOM     25  C   UNL     1     -11.799 -42.827  33.177  1.00  0.00     0.074 A 
ATOM     26  N   UNL     1     -10.554 -42.525  33.561  1.00  0.00    -0.252 NA
ATOM     27  C   UNL     1      -8.155 -42.808  33.549  1.00  0.00     0.056 C 
ATOM     28  C   UNL     1      -7.175 -44.750  32.334  1.00  0.00     0.005 C 
ATOM     29  C   UNL     1     -14.471 -43.303  32.439  1.00  0.00     0.021 A 
ATOM     30  C   UNL     1     -12.831 -42.053  33.686  1.00  0.00     0.049 A 
ATOM     31  C   UNL     1      -7.017 -43.270  32.649  1.00  0.00     0.007 C 
ATOM     32  C   UNL     1     -14.156 -42.285  33.326  1.00  0.00     0.043 A 
ATOM     33  Cl  UNL     1     -15.407 -41.300  33.977  1.00  0.00    -0.084 Cl
ENDBRANCH  17  19
ENDBRANCH  16  17
ENDBRANCH   1  16
TORSDOF 5
ENDMDL
MODEL 7
REMARK VINA RESULT:   -10.936      2.794      7.378
REMARK INTER + INTRA:         -14.700
REMARK INTER:                 -14.181
REMARK INTRA:                  -0.519
REMARK UNBOUND:                -0.567
REMARK SMILES O=C1C=C(NCCNc2c3c(nc4cc(Cl)ccc24)CCCC3)C(=O)c2ccccc21
REMARK SMILES IDX 6 1 5 2 4 4 2 5 3 6 31 7 30 8 26 9 24 10 29 11 27 12 28 13
REMARK SMILES IDX 1 14 25 15 7 16 8 17 9 19 10 20 19 21 11 22 23 23 18 24
REMARK SMILES IDX 13 25 12 26 20 27 22 28 17 29 14 30 21 31 15 32 16 33
REMARK H PARENT 5 3 8 18
ROOT
ATOM      1  C   UNL     1     -14.384 -43.004  32.372  1.00  0.00     0.134 C 
ENDROOT
BRANCH   1   2
ATOM      2  N   UNL     1     -13.309 -42.014  32.439  1.00  0.00    -0.380 N 
ATOM      3  H   UNL     1     -13.315 -41.336  31.666  1.00  0.00     0.160 HD
BRANCH   2   4
ATOM      4  C   UNL     1     -11.991 -42.293  32.792  1.00  0.00     0.087 C 
ATOM      5  C   UNL     1     -10.070 -42.545  34.336  1.00  0.00     0.188 C 
ATOM      6  C   UNL     1     -11.481 -42.249  34.030  1.00  0.00     0.082 C 
ATOM      7  C   UNL     1      -9.174 -42.880  33.216  1.00  0.00     0.033 A 
ATOM      8  C   UNL     1      -7.821 -43.142  33.466  1.00  0.00     0.013 A 
ATOM      9  C   UNL     1      -9.668 -42.939  31.917  1.00  0.00     0.035 A 
ATOM     10  C   UNL     1     -11.092 -42.670  31.643  1.00  0.00     0.209 C 
ATOM     11  C   UNL     1      -6.967 -43.462  32.409  1.00  0.00     0.001 A 
ATOM     12  C   UNL     1      -8.809 -43.261  30.858  1.00  0.00     0.013 A 
ATOM     13  C   UNL     1      -7.460 -43.522  31.106  1.00  0.00     0.001 A 
ATOM     14  O   UNL     1      -9.668 -42.506  35.491  1.00  0.00    -0.289 OA
ATOM     15  O   UNL     1     -11.550 -42.764  30.507  1.00  0.00    -0.287 OA
ENDBRANCH   2   4
ENDBRANCH   1   2
BRANCH   1  16
ATOM     16  C   UNL     1     -13.809 -44.427  32.252  1.00  0.00     0.134 C 
BRANCH  16  17
ATOM     17  N   UNL     1     -14.343 -45.179  31.094  1.00  0.00    -0.382 N 
ATOM     18  H   UNL     1     -15.286 -44.844  30.891  1.00  0.00     0.160 HD
BRANCH  17  19
ATOM     19  C   UNL     1     -13.564 -45.033  29.909  1.00  0.00     0.049 A 
ATOM     20  C   UNL     1     -12.240 -45.515  29.915  1.00  0.00    -0.003 A 
ATOM     21  C   UNL     1     -14.078 -44.396  28.741  1.00  0.00     0.024 A 
ATOM     22  C   UNL     1     -11.470 -45.317  28.769  1.00  0.00     0.046 A 
ATOM     23  C   UNL     1     -11.705 -46.331  31.071  1.00  0.00     0.039 C 
ATOM     24  C   UNL     1     -15.410 -43.930  28.597  1.00  0.00     0.014 A 
ATOM     25  C   UNL     1     -13.196 -44.239  27.651  1.00  0.00     0.074 A 
ATOM     26  N   UNL     1     -11.929 -44.670  27.673  1.00  0.00    -0.252 NA
ATOM     27  C   UNL     1     -10.033 -45.767  28.690  1.00  0.00     0.056 C 
ATOM     28  C   UNL     1     -10.185 -46.480  31.072  1.00  0.00     0.005 C 
ATOM     29  C   UNL     1     -15.840 -43.310  27.425  1.00  0.00     0.021 A 
ATOM     30  C   UNL     1     -13.639 -43.616  26.494  1.00  0.00     0.049 A 
ATOM     31  C   UNL     1      -9.688 -46.865  29.687  1.00  0.00     0.007 C 
ATOM     32  C   UNL     1     -14.947 -43.153  26.376  1.00  0.00     0.043 A 
ATOM     33  Cl  UNL     1     -15.459 -42.389  24.923  1.00  0.00    -0.084 Cl
ENDBRANCH  17  19
ENDBRANCH  16  17
ENDBRANCH   1  16
TORSDOF 5
ENDMDL
MODEL 8
REMARK VINA RESULT:   -10.862      6.205     10.158
REMARK INTER + INTRA:         -14.604
REMARK INTER:                 -14.254
REMARK INTRA:                  -0.350
REMARK UNBOUND:                -0.567
REMARK SMILES O=C1C=C(NCCNc2c3c(nc4cc(Cl)ccc24)CCCC3)C(=O)c2ccccc21
REMARK SMILES IDX 6 1 5 2 4 4 2 5 3 6 31 7 30 8 26 9 24 10 29 11 27 12 28 13
REMARK SMILES IDX 1 14 25 15 7 16 8 17 9 19 10 20 19 21 11 22 23 23 18 24
REMARK SMILES IDX 13 25 12 26 20 27 22 28 17 29 14 30 21 31 15 32 16 33
REMARK H PARENT 5 3 8 18
ROOT
ATOM      1  C   UNL     1     -18.372 -40.144  21.684  1.00  0.00     0.134 C 
ENDROOT
BRANCH   1   2
ATOM      2  N   UNL     1     -19.002 -40.491  20.410  1.00  0.00    -0.380 N 
ATOM      3  H   UNL     1     -18.342 -40.571  19.625  1.00  0.00     0.160 HD
BRANCH   2   4
ATOM      4  C   UNL     1     -20.203 -39.962  19.945  1.00  0.00     0.087 C 
ATOM      5  C   UNL     1     -21.821 -38.167  19.400  1.00  0.00     0.188 C 
ATOM      6  C   UNL     1     -20.524 -38.663  19.893  1.00  0.00     0.082 C 
ATOM      7  C   UNL     1     -22.821 -39.157  18.968  1.00  0.00     0.033 A 
ATOM      8  C   UNL     1     -24.075 -38.724  18.518  1.00  0.00     0.013 A 
ATOM      9  C   UNL     1     -22.525 -40.516  19.005  1.00  0.00     0.035 A 
ATOM     10  C   UNL     1     -21.206 -40.982  19.472  1.00  0.00     0.209 C 
ATOM     11  C   UNL     1     -25.028 -39.658  18.105  1.00  0.00     0.001 A 
ATOM     12  C   UNL     1     -23.482 -41.451  18.590  1.00  0.00     0.013 A 
ATOM     13  C   UNL     1     -24.732 -41.020  18.141  1.00  0.00     0.001 A 
ATOM     14  O   UNL     1     -22.047 -36.964  19.360  1.00  0.00    -0.289 OA
ATOM     15  O   UNL     1     -20.914 -42.176  19.466  1.00  0.00    -0.287 OA
ENDBRANCH   2   4
ENDBRANCH   1   2
BRANCH   1  16
ATOM     16  C   UNL     1     -17.300 -41.182  22.064  1.00  0.00     0.134 C 
BRANCH  16  17
ATOM     17  N   UNL     1     -17.858 -42.392  22.707  1.00  0.00    -0.382 N 
ATOM     18  H   UNL     1     -17.287 -43.197  22.445  1.00  0.00     0.160 HD
BRANCH  17  19
ATOM     19  C   UNL     1     -17.882 -42.321  24.132  1.00  0.00     0.049 A 
ATOM     20  C   UNL     1     -16.743 -42.748  24.843  1.00  0.00    -0.003 A 
ATOM     21  C   UNL     1     -19.027 -41.857  24.845  1.00  0.00     0.024 A 
ATOM     22  C   UNL     1     -16.800 -42.726  26.236  1.00  0.00     0.046 A 
ATOM     23  C   UNL     1     -15.457 -43.100  24.129  1.00  0.00     0.039 C 
ATOM     24  C   UNL     1     -20.202 -41.345  24.238  1.00  0.00     0.014 A 
ATOM     25  C   UNL     1     -18.969 -41.899  26.254  1.00  0.00     0.074 A 
ATOM     26  N   UNL     1     -17.897 -42.335  26.925  1.00  0.00    -0.252 NA
ATOM     27  C   UNL     1     -15.645 -43.194  27.085  1.00  0.00     0.056 C 
ATOM     28  C   UNL     1     -14.453 -43.853  25.000  1.00  0.00     0.005 C 
ATOM     29  C   UNL     1     -21.286 -40.915  25.002  1.00  0.00     0.021 A 
ATOM     30  C   UNL     1     -20.058 -41.471  26.998  1.00  0.00     0.049 A 
ATOM     31  C   UNL     1     -14.309 -43.174  26.353  1.00  0.00     0.007 C 
ATOM     32  C   UNL     1     -21.208 -40.984  26.385  1.00  0.00     0.043 A 
ATOM     33  Cl  UNL     1     -22.537 -40.459  27.343  1.00  0.00    -0.084 Cl
ENDBRANCH  17  19
ENDBRANCH  16  17
ENDBRANCH   1  16
TORSDOF 5
ENDMDL
MODEL 9
REMARK VINA RESULT:   -10.859      5.951     10.396
REMARK INTER + INTRA:         -14.600
REMARK INTER:                 -13.999
REMARK INTRA:                  -0.601
REMARK UNBOUND:                -0.567
REMARK SMILES O=C1C=C(NCCNc2c3c(nc4cc(Cl)ccc24)CCCC3)C(=O)c2ccccc21
REMARK SMILES IDX 6 1 5 2 4 4 2 5 3 6 31 7 30 8 26 9 24 10 29 11 27 12 28 13
REMARK SMILES IDX 1 14 25 15 7 16 8 17 9 19 10 20 19 21 11 22 23 23 18 24
REMARK SMILES IDX 13 25 12 26 20 27 22 28 17 29 14 30 21 31 15 32 16 33
REMARK H PARENT 5 3 8 18
ROOT
ATOM      1  C   UNL     1     -18.110 -40.196  21.580  1.00  0.00     0.134 C 
ENDROOT
BRANCH   1   2
ATOM      2  N   UNL     1     -19.131 -40.972  20.877  1.00  0.00    -0.380 N 
ATOM      3  H   UNL     1     -18.762 -41.781  20.362  1.00  0.00     0.160 HD
BRANCH   2   4
ATOM      4  C   UNL     1     -20.198 -40.425  20.166  1.00  0.00     0.087 C 
ATOM      5  C   UNL     1     -21.478 -38.630  19.038  1.00  0.00     0.188 C 
ATOM      6  C   UNL     1     -20.315 -39.149  19.780  1.00  0.00     0.082 C 
ATOM      7  C   UNL     1     -22.575 -39.562  18.731  1.00  0.00     0.033 A 
ATOM      8  C   UNL     1     -23.708 -39.099  18.051  1.00  0.00     0.013 A 
ATOM      9  C   UNL     1     -22.488 -40.897  19.113  1.00  0.00     0.035 A 
ATOM     10  C   UNL     1     -21.298 -41.397  19.826  1.00  0.00     0.209 C 
ATOM     11  C   UNL     1     -24.752 -39.978  17.755  1.00  0.00     0.001 A 
ATOM     12  C   UNL     1     -23.537 -41.778  18.815  1.00  0.00     0.013 A 
ATOM     13  C   UNL     1     -24.666 -41.317  18.137  1.00  0.00     0.001 A 
ATOM     14  O   UNL     1     -21.517 -37.455  18.697  1.00  0.00    -0.289 OA
ATOM     15  O   UNL     1     -21.188 -42.583  20.128  1.00  0.00    -0.287 OA
ENDBRANCH   2   4
ENDBRANCH   1   2
BRANCH   1  16
ATOM     16  C   UNL     1     -17.054 -41.124  22.208  1.00  0.00     0.134 C 
BRANCH  16  17
ATOM     17  N   UNL     1     -17.625 -42.378  22.751  1.00  0.00    -0.382 N 
ATOM     18  H   UNL     1     -17.091 -43.167  22.386  1.00  0.00     0.160 HD
BRANCH  17  19
ATOM     19  C   UNL     1     -17.590 -42.450  24.175  1.00  0.00     0.049 A 
ATOM     20  C   UNL     1     -18.724 -42.021  24.894  1.00  0.00    -0.003 A 
ATOM     21  C   UNL     1     -16.442 -42.918  24.880  1.00  0.00     0.024 A 
ATOM     22  C   UNL     1     -18.657 -42.045  26.288  1.00  0.00     0.046 A 
ATOM     23  C   UNL     1     -20.014 -41.666  24.190  1.00  0.00     0.039 C 
ATOM     24  C   UNL     1     -15.272 -43.432  24.263  1.00  0.00     0.014 A 
ATOM     25  C   UNL     1     -16.490 -42.877  26.289  1.00  0.00     0.074 A 
ATOM     26  N   UNL     1     -17.556 -42.439  26.968  1.00  0.00    -0.252 NA
ATOM     27  C   UNL     1     -19.805 -41.576  27.145  1.00  0.00     0.056 C 
ATOM     28  C   UNL     1     -21.010 -40.912  25.069  1.00  0.00     0.005 C 
ATOM     29  C   UNL     1     -14.184 -43.865  25.020  1.00  0.00     0.021 A 
ATOM     30  C   UNL     1     -15.396 -43.308  27.025  1.00  0.00     0.049 A 
ATOM     31  C   UNL     1     -21.145 -41.592  26.423  1.00  0.00     0.007 C 
ATOM     32  C   UNL     1     -14.251 -43.797  26.403  1.00  0.00     0.043 A 
ATOM     33  Cl  UNL     1     -12.917 -44.326  27.351  1.00  0.00    -0.084 Cl
ENDBRANCH  17  19
ENDBRANCH  16  17
ENDBRANCH   1  16
TORSDOF 5
ENDMDL
