MODEL 1
REMARK VINA RESULT:   -11.785      0.000      0.000
REMARK INTER + INTRA:         -16.759
REMARK INTER:                 -15.919
REMARK INTRA:                  -0.840
REMARK UNBOUND:                -0.840
REMARK SMILES COc1cc2c(cc1OC)C(=O)[C@@H](C[C@H]1CC[N@@H+](Cc3ccccc3)CC1)C2
REMARK SMILES IDX 14 1 15 2 17 3 18 4 16 5 26 6 27 7 19 9 20 10 21 11 25 12
REMARK SMILES IDX 22 13 24 14 23 15 13 16 11 17 28 18 6 19 5 20 7 21 4 22 8 23
REMARK SMILES IDX 3 24 12 25 9 26 10 27 2 28 1 29
REMARK H PARENT 18 8
ROOT
ATOM      1  C   UNL     1     -13.809 -44.890  26.886  1.00  0.00     0.016 C 
ENDROOT
BRANCH   1   2
ATOM      2  C   UNL     1     -12.339 -45.072  27.321  1.00  0.00     0.001 C 
ATOM      3  C   UNL     1     -10.441 -44.050  28.646  1.00  0.00     0.262 C 
ATOM      4  N   UNL     1     -10.214 -45.370  29.330  1.00  0.00    -0.331 N 
ATOM      5  C   UNL     1     -11.896 -43.905  28.219  1.00  0.00     0.065 C 
ATOM      6  C   UNL     1     -10.616 -46.534  28.455  1.00  0.00     0.262 C 
ATOM      7  C   UNL     1     -12.072 -46.411  28.023  1.00  0.00     0.065 C 
ATOM      8  H   UNL     1      -9.195 -45.462  29.439  1.00  0.00     0.348 HD
BRANCH   4   9
ATOM      9  C   UNL     1     -10.749 -45.417  30.746  1.00  0.00     0.299 C 
BRANCH   9  10
ATOM     10  C   UNL     1      -9.988 -44.533  31.695  1.00  0.00     0.006 A 
ATOM     11  C   UNL     1      -8.587 -44.581  31.748  1.00  0.00     0.009 A 
ATOM     12  C   UNL     1     -10.669 -43.629  32.528  1.00  0.00     0.009 A 
ATOM     13  C   UNL     1      -7.882 -43.740  32.609  1.00  0.00     0.001 A 
ATOM     14  C   UNL     1      -9.959 -42.790  33.387  1.00  0.00     0.001 A 
ATOM     15  C   UNL     1      -8.568 -42.844  33.425  1.00  0.00     0.000 A 
ENDBRANCH   9  10
ENDBRANCH   4   9
ENDBRANCH   1   2
BRANCH   1  16
ATOM     16  C   UNL     1     -14.241 -43.450  26.565  1.00  0.00     0.066 C 
ATOM     17  C   UNL     1     -15.608 -43.109  27.132  1.00  0.00     0.166 C 
ATOM     18  C   UNL     1     -14.390 -43.220  25.038  1.00  0.00     0.048 C 
ATOM     19  C   UNL     1     -16.517 -42.757  26.051  1.00  0.00     0.025 A 
ATOM     20  C   UNL     1     -15.823 -42.833  24.854  1.00  0.00    -0.033 A 
ATOM     21  C   UNL     1     -17.852 -42.408  26.136  1.00  0.00     0.062 A 
ATOM     22  C   UNL     1     -16.475 -42.549  23.663  1.00  0.00     0.055 A 
ATOM     23  C   UNL     1     -18.522 -42.119  24.944  1.00  0.00     0.161 A 
ATOM     24  C   UNL     1     -17.831 -42.190  23.701  1.00  0.00     0.161 A 
ATOM     25  O   UNL     1     -15.918 -43.123  28.312  1.00  0.00    -0.294 OA
BRANCH  23  26
ATOM     26  O   UNL     1     -19.846 -41.763  24.870  1.00  0.00    -0.493 OA
ATOM     27  C   UNL     1     -20.464 -41.262  26.048  1.00  0.00     0.278 C 
ENDBRANCH  23  26
BRANCH  24  28
ATOM     28  O   UNL     1     -18.580 -41.892  22.589  1.00  0.00    -0.493 OA
ATOM     29  C   UNL     1     -18.381 -40.631  21.970  1.00  0.00     0.278 C 
ENDBRANCH  24  28
ENDBRANCH   1  16
TORSDOF 6
ENDMDL
MODEL 2
REMARK VINA RESULT:   -10.912      1.200      2.398
REMARK INTER + INTRA:         -15.579
REMARK INTER:                 -14.975
REMARK INTRA:                  -0.604
REMARK UNBOUND:                -0.840
REMARK SMILES COc1cc2c(cc1OC)C(=O)[C@@H](C[C@H]1CC[N@@H+](Cc3ccccc3)CC1)C2
REMARK SMILES IDX 14 1 15 2 17 3 18 4 16 5 26 6 27 7 19 9 20 10 21 11 25 12
REMARK SMILES IDX 22 13 24 14 23 15 13 16 11 17 28 18 6 19 5 20 7 21 4 22 8 23
REMARK SMILES IDX 3 24 12 25 9 26 10 27 2 28 1 29
REMARK H PARENT 18 8
ROOT
ATOM      1  C   UNL     1     -13.464 -42.896  26.545  1.00  0.00     0.016 C 
ENDROOT
BRANCH   1   2
ATOM      2  C   UNL     1     -12.317 -43.705  27.190  1.00  0.00     0.001 C 
ATOM      3  C   UNL     1     -10.276 -43.556  28.678  1.00  0.00     0.262 C 
ATOM      4  N   UNL     1     -10.789 -44.716  29.488  1.00  0.00    -0.331 N 
ATOM      5  C   UNL     1     -11.429 -42.787  28.046  1.00  0.00     0.065 C 
ATOM      6  C   UNL     1     -11.642 -45.647  28.660  1.00  0.00     0.262 C 
ATOM      7  C   UNL     1     -12.806 -44.896  28.025  1.00  0.00     0.065 C 
ATOM      8  H   UNL     1      -9.962 -45.272  29.742  1.00  0.00     0.348 HD
BRANCH   4   9
ATOM      9  C   UNL     1     -11.389 -44.306  30.817  1.00  0.00     0.299 C 
BRANCH   9  10
ATOM     10  C   UNL     1     -10.369 -43.780  31.789  1.00  0.00     0.006 A 
ATOM     11  C   UNL     1     -10.754 -42.932  32.838  1.00  0.00     0.009 A 
ATOM     12  C   UNL     1      -9.018 -44.148  31.673  1.00  0.00     0.009 A 
ATOM     13  C   UNL     1      -9.810 -42.467  33.755  1.00  0.00     0.001 A 
ATOM     14  C   UNL     1      -8.079 -43.681  32.593  1.00  0.00     0.001 A 
ATOM     15  C   UNL     1      -8.475 -42.843  33.632  1.00  0.00     0.000 A 
ENDBRANCH   9  10
ENDBRANCH   4   9
ENDBRANCH   1   2
BRANCH   1  16
ATOM     16  C   UNL     1     -14.739 -43.686  26.212  1.00  0.00     0.066 C 
ATOM     17  C   UNL     1     -15.154 -43.544  24.758  1.00  0.00     0.166 C 
ATOM     18  C   UNL     1     -15.964 -43.169  27.013  1.00  0.00     0.048 C 
ATOM     19  C   UNL     1     -16.479 -42.948  24.678  1.00  0.00     0.025 A 
ATOM     20  C   UNL     1     -16.936 -42.723  25.967  1.00  0.00    -0.033 A 
ATOM     21  C   UNL     1     -17.207 -42.629  23.547  1.00  0.00     0.062 A 
ATOM     22  C   UNL     1     -18.184 -42.151  26.164  1.00  0.00     0.055 A 
ATOM     23  C   UNL     1     -18.465 -42.051  23.730  1.00  0.00     0.161 A 
ATOM     24  C   UNL     1     -18.957 -41.810  25.044  1.00  0.00     0.161 A 
ATOM     25  O   UNL     1     -14.489 -43.871  23.788  1.00  0.00    -0.294 OA
BRANCH  23  26
ATOM     26  O   UNL     1     -19.299 -41.677  22.704  1.00  0.00    -0.493 OA
ATOM     27  C   UNL     1     -18.965 -40.505  21.973  1.00  0.00     0.278 C 
ENDBRANCH  23  26
BRANCH  24  28
ATOM     28  O   UNL     1     -20.202 -41.235  25.115  1.00  0.00    -0.493 OA
ATOM     29  C   UNL     1     -20.856 -41.214  26.374  1.00  0.00     0.278 C 
ENDBRANCH  24  28
ENDBRANCH   1  16
TORSDOF 6
ENDMDL
MODEL 3
REMARK VINA RESULT:   -10.283      1.490      2.021
REMARK INTER + INTRA:         -14.730
REMARK INTER:                 -14.207
REMARK INTRA:                  -0.523
REMARK UNBOUND:                -0.840
REMARK SMILES COc1cc2c(cc1OC)C(=O)[C@@H](C[C@H]1CC[N@@H+](Cc3ccccc3)CC1)C2
REMARK SMILES IDX 14 1 15 2 17 3 18 4 16 5 26 6 27 7 19 9 20 10 21 11 25 12
REMARK SMILES IDX 22 13 24 14 23 15 13 16 11 17 28 18 6 19 5 20 7 21 4 22 8 23
REMARK SMILES IDX 3 24 12 25 9 26 10 27 2 28 1 29
REMARK H PARENT 18 8
ROOT
ATOM      1  C   UNL     1     -14.158 -44.438  25.839  1.00  0.00     0.016 C 
ENDROOT
BRANCH   1   2
ATOM      2  C   UNL     1     -13.708 -44.794  27.273  1.00  0.00     0.001 C 
ATOM      3  C   UNL     1     -12.539 -46.533  28.692  1.00  0.00     0.262 C 
ATOM      4  N   UNL     1     -11.685 -45.454  29.301  1.00  0.00    -0.331 N 
ATOM      5  C   UNL     1     -12.976 -46.147  27.285  1.00  0.00     0.065 C 
ATOM      6  C   UNL     1     -12.395 -44.121  29.325  1.00  0.00     0.262 C 
ATOM      7  C   UNL     1     -12.834 -43.714  27.924  1.00  0.00     0.065 C 
ATOM      8  H   UNL     1     -11.569 -45.709  30.290  1.00  0.00     0.348 HD
BRANCH   4   9
ATOM      9  C   UNL     1     -10.273 -45.420  28.753  1.00  0.00     0.299 C 
BRANCH   9  10
ATOM     10  C   UNL     1      -9.228 -45.252  29.822  1.00  0.00     0.006 A 
ATOM     11  C   UNL     1      -8.685 -43.989  30.096  1.00  0.00     0.009 A 
ATOM     12  C   UNL     1      -8.798 -46.356  30.577  1.00  0.00     0.009 A 
ATOM     13  C   UNL     1      -7.736 -43.831  31.107  1.00  0.00     0.001 A 
ATOM     14  C   UNL     1      -7.849 -46.193  31.587  1.00  0.00     0.001 A 
ATOM     15  C   UNL     1      -7.321 -44.932  31.852  1.00  0.00     0.000 A 
ENDBRANCH   9  10
ENDBRANCH   4   9
ENDBRANCH   1   2
BRANCH   1  16
ATOM     16  C   UNL     1     -14.750 -43.032  25.651  1.00  0.00     0.066 C 
ATOM     17  C   UNL     1     -16.007 -42.811  26.475  1.00  0.00     0.166 C 
ATOM     18  C   UNL     1     -15.203 -42.789  24.187  1.00  0.00     0.048 C 
ATOM     19  C   UNL     1     -17.128 -42.515  25.596  1.00  0.00     0.025 A 
ATOM     20  C   UNL     1     -16.670 -42.515  24.288  1.00  0.00    -0.033 A 
ATOM     21  C   UNL     1     -18.445 -42.276  25.940  1.00  0.00     0.062 A 
ATOM     22  C   UNL     1     -17.555 -42.263  23.249  1.00  0.00     0.055 A 
ATOM     23  C   UNL     1     -19.349 -42.022  24.904  1.00  0.00     0.161 A 
ATOM     24  C   UNL     1     -18.902 -42.016  23.552  1.00  0.00     0.161 A 
ATOM     25  O   UNL     1     -16.086 -42.871  27.691  1.00  0.00    -0.294 OA
BRANCH  23  26
ATOM     26  O   UNL     1     -20.686 -41.772  25.091  1.00  0.00    -0.493 OA
ATOM     27  C   UNL     1     -21.475 -42.795  25.683  1.00  0.00     0.278 C 
ENDBRANCH  23  26
BRANCH  24  28
ATOM     28  O   UNL     1     -19.868 -41.760  22.611  1.00  0.00    -0.493 OA
ATOM     29  C   UNL     1     -19.578 -40.807  21.599  1.00  0.00     0.278 C 
ENDBRANCH  24  28
ENDBRANCH   1  16
TORSDOF 6
ENDMDL
MODEL 4
REMARK VINA RESULT:    -9.904      2.471      4.550
REMARK INTER + INTRA:         -14.217
REMARK INTER:                 -13.424
REMARK INTRA:                  -0.793
REMARK UNBOUND:                -0.840
REMARK SMILES COc1cc2c(cc1OC)C(=O)[C@@H](C[C@H]1CC[N@@H+](Cc3ccccc3)CC1)C2
REMARK SMILES IDX 14 1 15 2 17 3 18 4 16 5 26 6 27 7 19 9 20 10 21 11 25 12
REMARK SMILES IDX 22 13 24 14 23 15 13 16 11 17 28 18 6 19 5 20 7 21 4 22 8 23
REMARK SMILES IDX 3 24 12 25 9 26 10 27 2 28 1 29
REMARK H PARENT 18 8
ROOT
ATOM      1  C   UNL     1     -15.556 -42.236  24.423  1.00  0.00     0.016 C 
ENDROOT
BRANCH   1   2
ATOM      2  C   UNL     1     -15.365 -43.336  25.490  1.00  0.00     0.001 C 
ATOM      3  C   UNL     1     -13.954 -45.323  26.170  1.00  0.00     0.262 C 
ATOM      4  N   UNL     1     -13.823 -44.750  27.555  1.00  0.00    -0.331 N 
ATOM      5  C   UNL     1     -14.153 -44.216  25.143  1.00  0.00     0.065 C 
ATOM      6  C   UNL     1     -15.017 -43.903  27.928  1.00  0.00     0.262 C 
ATOM      7  C   UNL     1     -15.228 -42.784  26.916  1.00  0.00     0.065 C 
ATOM      8  H   UNL     1     -13.857 -45.551  28.198  1.00  0.00     0.348 HD
BRANCH   4   9
ATOM      9  C   UNL     1     -12.476 -44.111  27.820  1.00  0.00     0.299 C 
BRANCH   9  10
ATOM     10  C   UNL     1     -11.682 -44.824  28.880  1.00  0.00     0.006 A 
ATOM     11  C   UNL     1     -11.828 -44.481  30.233  1.00  0.00     0.009 A 
ATOM     12  C   UNL     1     -10.798 -45.859  28.534  1.00  0.00     0.009 A 
ATOM     13  C   UNL     1     -11.112 -45.162  31.217  1.00  0.00     0.001 A 
ATOM     14  C   UNL     1     -10.084 -46.537  29.521  1.00  0.00     0.001 A 
ATOM     15  C   UNL     1     -10.243 -46.190  30.861  1.00  0.00     0.000 A 
ENDBRANCH   9  10
ENDBRANCH   4   9
ENDBRANCH   1   2
BRANCH   1  16
ATOM     16  C   UNL     1     -16.566 -42.551  23.307  1.00  0.00     0.066 C 
ATOM     17  C   UNL     1     -16.726 -41.405  22.323  1.00  0.00     0.166 C 
ATOM     18  C   UNL     1     -17.994 -42.777  23.869  1.00  0.00     0.048 C 
ATOM     19  C   UNL     1     -18.106 -40.943  22.325  1.00  0.00     0.025 A 
ATOM     20  C   UNL     1     -18.827 -41.719  23.218  1.00  0.00    -0.033 A 
ATOM     21  C   UNL     1     -18.663 -39.909  21.595  1.00  0.00     0.062 A 
ATOM     22  C   UNL     1     -20.178 -41.472  23.409  1.00  0.00     0.055 A 
ATOM     23  C   UNL     1     -20.023 -39.648  21.777  1.00  0.00     0.161 A 
ATOM     24  C   UNL     1     -20.786 -40.432  22.689  1.00  0.00     0.161 A 
ATOM     25  O   UNL     1     -15.844 -40.928  21.628  1.00  0.00    -0.294 OA
BRANCH  23  26
ATOM     26  O   UNL     1     -20.712 -38.654  21.126  1.00  0.00    -0.493 OA
ATOM     27  C   UNL     1     -20.791 -38.721  19.709  1.00  0.00     0.278 C 
ENDBRANCH  23  26
BRANCH  24  28
ATOM     28  O   UNL     1     -22.111 -40.092  22.799  1.00  0.00    -0.493 OA
ATOM     29  C   UNL     1     -23.081 -41.062  22.432  1.00  0.00     0.278 C 
ENDBRANCH  24  28
ENDBRANCH   1  16
TORSDOF 6
ENDMDL
MODEL 5
REMARK VINA RESULT:    -9.391      2.949      5.889
REMARK INTER + INTRA:         -13.525
REMARK INTER:                 -12.781
REMARK INTRA:                  -0.744
REMARK UNBOUND:                -0.840
REMARK SMILES COc1cc2c(cc1OC)C(=O)[C@@H](C[C@H]1CC[N@@H+](Cc3ccccc3)CC1)C2
REMARK SMILES IDX 14 1 15 2 17 3 18 4 16 5 26 6 27 7 19 9 20 10 21 11 25 12
REMARK SMILES IDX 22 13 24 14 23 15 13 16 11 17 28 18 6 19 5 20 7 21 4 22 8 23
REMARK SMILES IDX 3 24 12 25 9 26 10 27 2 28 1 29
REMARK H PARENT 18 8
ROOT
ATOM      1  C   UNL     1     -18.019 -42.884  23.836  1.00  0.00     0.016 C 
ENDROOT
BRANCH   1   2
ATOM      2  C   UNL     1     -16.685 -42.519  24.524  1.00  0.00     0.001 C 
ATOM      3  C   UNL     1     -15.473 -42.419  26.743  1.00  0.00     0.262 C 
ATOM      4  N   UNL     1     -14.305 -43.144  26.132  1.00  0.00    -0.331 N 
ATOM      5  C   UNL     1     -16.770 -42.790  26.035  1.00  0.00     0.065 C 
ATOM      6  C   UNL     1     -14.185 -42.870  24.651  1.00  0.00     0.262 C 
ATOM      7  C   UNL     1     -15.472 -43.242  23.924  1.00  0.00     0.065 C 
ATOM      8  H   UNL     1     -13.463 -42.725  26.546  1.00  0.00     0.348 HD
BRANCH   4   9
ATOM      9  C   UNL     1     -14.229 -44.606  26.522  1.00  0.00     0.299 C 
BRANCH   9  10
ATOM     10  C   UNL     1     -12.976 -44.951  27.279  1.00  0.00     0.006 A 
ATOM     11  C   UNL     1     -12.574 -46.287  27.422  1.00  0.00     0.009 A 
ATOM     12  C   UNL     1     -12.178 -43.938  27.835  1.00  0.00     0.009 A 
ATOM     13  C   UNL     1     -11.396 -46.604  28.101  1.00  0.00     0.001 A 
ATOM     14  C   UNL     1     -11.001 -44.259  28.513  1.00  0.00     0.001 A 
ATOM     15  C   UNL     1     -10.611 -45.590  28.643  1.00  0.00     0.000 A 
ENDBRANCH   9  10
ENDBRANCH   4   9
ENDBRANCH   1   2
BRANCH   1  16
ATOM     16  C   UNL     1     -19.083 -41.775  23.802  1.00  0.00     0.066 C 
ATOM     17  C   UNL     1     -20.435 -42.275  23.326  1.00  0.00     0.166 C 
ATOM     18  C   UNL     1     -18.713 -40.651  22.798  1.00  0.00     0.048 C 
ATOM     19  C   UNL     1     -20.827 -41.564  22.118  1.00  0.00     0.025 A 
ATOM     20  C   UNL     1     -19.836 -40.645  21.810  1.00  0.00    -0.033 A 
ATOM     21  C   UNL     1     -21.969 -41.734  21.358  1.00  0.00     0.062 A 
ATOM     22  C   UNL     1     -19.970 -39.839  20.689  1.00  0.00     0.055 A 
ATOM     23  C   UNL     1     -22.117 -40.930  20.225  1.00  0.00     0.161 A 
ATOM     24  C   UNL     1     -21.113 -39.978  19.887  1.00  0.00     0.161 A 
ATOM     25  O   UNL     1     -21.107 -43.143  23.860  1.00  0.00    -0.294 OA
BRANCH  23  26
ATOM     26  O   UNL     1     -23.193 -40.987  19.373  1.00  0.00    -0.493 OA
ATOM     27  C   UNL     1     -23.681 -42.272  19.009  1.00  0.00     0.278 C 
ENDBRANCH  23  26
BRANCH  24  28
ATOM     28  O   UNL     1     -21.352 -39.241  18.754  1.00  0.00    -0.493 OA
ATOM     29  C   UNL     1     -21.716 -37.878  18.909  1.00  0.00     0.278 C 
ENDBRANCH  24  28
ENDBRANCH   1  16
TORSDOF 6
ENDMDL
MODEL 6
REMARK VINA RESULT:    -9.239      3.643      9.911
REMARK INTER + INTRA:         -13.319
REMARK INTER:                 -12.700
REMARK INTRA:                  -0.620
REMARK UNBOUND:                -0.840
REMARK SMILES COc1cc2c(cc1OC)C(=O)[C@@H](C[C@H]1CC[N@@H+](Cc3ccccc3)CC1)C2
REMARK SMILES IDX 14 1 15 2 17 3 18 4 16 5 26 6 27 7 19 9 20 10 21 11 25 12
REMARK SMILES IDX 22 13 24 14 23 15 13 16 11 17 28 18 6 19 5 20 7 21 4 22 8 23
REMARK SMILES IDX 3 24 12 25 9 26 10 27 2 28 1 29
REMARK H PARENT 18 8
ROOT
ATOM      1  C   UNL     1     -17.210 -42.941  24.683  1.00  0.00     0.016 C 
ENDROOT
BRANCH   1   2
ATOM      2  C   UNL     1     -18.378 -42.041  25.139  1.00  0.00     0.001 C 
ATOM      3  C   UNL     1     -20.554 -40.968  24.417  1.00  0.00     0.262 C 
ATOM      4  N   UNL     1     -21.218 -41.491  25.663  1.00  0.00    -0.331 N 
ATOM      5  C   UNL     1     -19.399 -41.871  24.001  1.00  0.00     0.065 C 
ATOM      6  C   UNL     1     -20.239 -41.639  26.802  1.00  0.00     0.262 C 
ATOM      7  C   UNL     1     -19.079 -42.545  26.408  1.00  0.00     0.065 C 
ATOM      8  H   UNL     1     -21.868 -40.754  25.967  1.00  0.00     0.348 HD
BRANCH   4   9
ATOM      9  C   UNL     1     -22.103 -42.695  25.416  1.00  0.00     0.299 C 
BRANCH   9  10
ATOM     10  C   UNL     1     -22.641 -43.302  26.682  1.00  0.00     0.006 A 
ATOM     11  C   UNL     1     -23.664 -42.666  27.400  1.00  0.00     0.009 A 
ATOM     12  C   UNL     1     -22.141 -44.528  27.153  1.00  0.00     0.009 A 
ATOM     13  C   UNL     1     -24.180 -43.245  28.560  1.00  0.00     0.001 A 
ATOM     14  C   UNL     1     -22.661 -45.103  28.312  1.00  0.00     0.001 A 
ATOM     15  C   UNL     1     -23.680 -44.463  29.013  1.00  0.00     0.000 A 
ENDBRANCH   9  10
ENDBRANCH   4   9
ENDBRANCH   1   2
BRANCH   1  16
ATOM     16  C   UNL     1     -15.842 -42.639  25.317  1.00  0.00     0.066 C 
ATOM     17  C   UNL     1     -14.823 -43.736  25.061  1.00  0.00     0.166 C 
ATOM     18  C   UNL     1     -15.930 -42.549  26.863  1.00  0.00     0.048 C 
ATOM     19  C   UNL     1     -14.374 -44.297  26.326  1.00  0.00     0.025 A 
ATOM     20  C   UNL     1     -15.016 -43.627  27.355  1.00  0.00    -0.033 A 
ATOM     21  C   UNL     1     -13.473 -45.325  26.535  1.00  0.00     0.062 A 
ATOM     22  C   UNL     1     -14.762 -43.982  28.672  1.00  0.00     0.055 A 
ATOM     23  C   UNL     1     -13.208 -45.695  27.855  1.00  0.00     0.161 A 
ATOM     24  C   UNL     1     -13.855 -45.022  28.930  1.00  0.00     0.161 A 
ATOM     25  O   UNL     1     -14.429 -44.107  23.967  1.00  0.00    -0.294 OA
BRANCH  23  26
ATOM     26  O   UNL     1     -12.342 -46.698  28.217  1.00  0.00    -0.493 OA
ATOM     27  C   UNL     1     -10.949 -46.427  28.150  1.00  0.00     0.278 C 
ENDBRANCH  23  26
BRANCH  24  28
ATOM     28  O   UNL     1     -13.529 -45.463  30.188  1.00  0.00    -0.493 OA
ATOM     29  C   UNL     1     -12.990 -44.523  31.106  1.00  0.00     0.278 C 
ENDBRANCH  24  28
ENDBRANCH   1  16
TORSDOF 6
ENDMDL
MODEL 7
REMARK VINA RESULT:    -9.036      3.053      6.127
REMARK INTER + INTRA:         -13.045
REMARK INTER:                 -12.497
REMARK INTRA:                  -0.548
REMARK UNBOUND:                -0.840
REMARK SMILES COc1cc2c(cc1OC)C(=O)[C@@H](C[C@H]1CC[N@@H+](Cc3ccccc3)CC1)C2
REMARK SMILES IDX 14 1 15 2 17 3 18 4 16 5 26 6 27 7 19 9 20 10 21 11 25 12
REMARK SMILES IDX 22 13 24 14 23 15 13 16 11 17 28 18 6 19 5 20 7 21 4 22 8 23
REMARK SMILES IDX 3 24 12 25 9 26 10 27 2 28 1 29
REMARK H PARENT 18 8
ROOT
ATOM      1  C   UNL     1     -18.634 -42.762  25.080  1.00  0.00     0.016 C 
ENDROOT
BRANCH   1   2
ATOM      2  C   UNL     1     -17.131 -42.457  25.258  1.00  0.00     0.001 C 
ATOM      3  C   UNL     1     -15.223 -42.405  26.920  1.00  0.00     0.262 C 
ATOM      4  N   UNL     1     -14.370 -43.185  25.957  1.00  0.00    -0.331 N 
ATOM      5  C   UNL     1     -16.699 -42.719  26.711  1.00  0.00     0.065 C 
ATOM      6  C   UNL     1     -14.758 -42.922  24.522  1.00  0.00     0.262 C 
ATOM      7  C   UNL     1     -16.231 -43.237  24.290  1.00  0.00     0.065 C 
ATOM      8  H   UNL     1     -13.420 -42.804  26.048  1.00  0.00     0.348 HD
BRANCH   4   9
ATOM      9  C   UNL     1     -14.225 -44.648  26.325  1.00  0.00     0.299 C 
BRANCH   9  10
ATOM     10  C   UNL     1     -13.001 -44.930  27.152  1.00  0.00     0.006 A 
ATOM     11  C   UNL     1     -12.249 -43.878  27.696  1.00  0.00     0.009 A 
ATOM     12  C   UNL     1     -12.604 -46.253  27.409  1.00  0.00     0.009 A 
ATOM     13  C   UNL     1     -11.130 -44.143  28.486  1.00  0.00     0.001 A 
ATOM     14  C   UNL     1     -11.484 -46.513  28.199  1.00  0.00     0.001 A 
ATOM     15  C   UNL     1     -10.750 -45.459  28.738  1.00  0.00     0.000 A 
ENDBRANCH   9  10
ENDBRANCH   4   9
ENDBRANCH   1   2
BRANCH   1  16
ATOM     16  C   UNL     1     -19.468 -42.810  26.370  1.00  0.00     0.066 C 
ATOM     17  C   UNL     1     -20.772 -43.569  26.196  1.00  0.00     0.166 C 
ATOM     18  C   UNL     1     -19.905 -41.393  26.827  1.00  0.00     0.048 C 
ATOM     19  C   UNL     1     -21.896 -42.686  26.468  1.00  0.00     0.025 A 
ATOM     20  C   UNL     1     -21.400 -41.440  26.816  1.00  0.00    -0.033 A 
ATOM     21  C   UNL     1     -23.247 -42.974  26.400  1.00  0.00     0.062 A 
ATOM     22  C   UNL     1     -22.279 -40.410  27.119  1.00  0.00     0.055 A 
ATOM     23  C   UNL     1     -24.144 -41.947  26.701  1.00  0.00     0.161 A 
ATOM     24  C   UNL     1     -23.659 -40.657  27.062  1.00  0.00     0.161 A 
ATOM     25  O   UNL     1     -20.882 -44.741  25.875  1.00  0.00    -0.294 OA
BRANCH  23  26
ATOM     26  O   UNL     1     -25.511 -42.082  26.673  1.00  0.00    -0.493 OA
ATOM     27  C   UNL     1     -26.045 -43.307  26.189  1.00  0.00     0.278 C 
ENDBRANCH  23  26
BRANCH  24  28
ATOM     28  O   UNL     1     -24.621 -39.717  27.335  1.00  0.00    -0.493 OA
ATOM     29  C   UNL     1     -24.828 -39.349  28.690  1.00  0.00     0.278 C 
ENDBRANCH  24  28
ENDBRANCH   1  16
TORSDOF 6
ENDMDL
MODEL 8
REMARK VINA RESULT:    -9.006      3.848     11.457
REMARK INTER + INTRA:         -13.005
REMARK INTER:                 -12.427
REMARK INTRA:                  -0.578
REMARK UNBOUND:                -0.840
REMARK SMILES COc1cc2c(cc1OC)C(=O)[C@@H](C[C@H]1CC[N@@H+](Cc3ccccc3)CC1)C2
REMARK SMILES IDX 14 1 15 2 17 3 18 4 16 5 26 6 27 7 19 9 20 10 21 11 25 12
REMARK SMILES IDX 22 13 24 14 23 15 13 16 11 17 28 18 6 19 5 20 7 21 4 22 8 23
REMARK SMILES IDX 3 24 12 25 9 26 10 27 2 28 1 29
REMARK H PARENT 18 8
ROOT
ATOM      1  C   UNL     1     -17.291 -43.075  24.841  1.00  0.00     0.016 C 
ENDROOT
BRANCH   1   2
ATOM      2  C   UNL     1     -18.034 -41.908  24.157  1.00  0.00     0.001 C 
ATOM      3  C   UNL     1     -18.231 -40.561  22.024  1.00  0.00     0.262 C 
ATOM      4  N   UNL     1     -19.724 -40.749  22.049  1.00  0.00    -0.331 N 
ATOM      5  C   UNL     1     -17.528 -41.721  22.717  1.00  0.00     0.065 C 
ATOM      6  C   UNL     1     -20.247 -40.907  23.457  1.00  0.00     0.262 C 
ATOM      7  C   UNL     1     -19.560 -42.069  24.165  1.00  0.00     0.065 C 
ATOM      8  H   UNL     1     -20.126 -39.864  21.716  1.00  0.00     0.348 HD
BRANCH   4   9
ATOM      9  C   UNL     1     -20.219 -41.784  21.060  1.00  0.00     0.299 C 
BRANCH   9  10
ATOM     10  C   UNL     1     -21.285 -41.258  20.139  1.00  0.00     0.006 A 
ATOM     11  C   UNL     1     -22.447 -42.004  19.893  1.00  0.00     0.009 A 
ATOM     12  C   UNL     1     -21.142 -40.001  19.527  1.00  0.00     0.009 A 
ATOM     13  C   UNL     1     -23.448 -41.501  19.059  1.00  0.00     0.001 A 
ATOM     14  C   UNL     1     -22.145 -39.504  18.695  1.00  0.00     0.001 A 
ATOM     15  C   UNL     1     -23.296 -40.252  18.463  1.00  0.00     0.000 A 
ENDBRANCH   9  10
ENDBRANCH   4   9
ENDBRANCH   1   2
BRANCH   1  16
ATOM     16  C   UNL     1     -15.895 -42.750  25.397  1.00  0.00     0.066 C 
ATOM     17  C   UNL     1     -14.865 -43.813  25.055  1.00  0.00     0.166 C 
ATOM     18  C   UNL     1     -15.890 -42.695  26.947  1.00  0.00     0.048 C 
ATOM     19  C   UNL     1     -14.325 -44.388  26.277  1.00  0.00     0.025 A 
ATOM     20  C   UNL     1     -14.920 -43.758  27.358  1.00  0.00    -0.033 A 
ATOM     21  C   UNL     1     -13.388 -45.396  26.407  1.00  0.00     0.062 A 
ATOM     22  C   UNL     1     -14.577 -44.134  28.648  1.00  0.00     0.055 A 
ATOM     23  C   UNL     1     -13.032 -45.787  27.700  1.00  0.00     0.161 A 
ATOM     24  C   UNL     1     -13.629 -45.154  28.827  1.00  0.00     0.161 A 
ATOM     25  O   UNL     1     -14.530 -44.150  23.931  1.00  0.00    -0.294 OA
BRANCH  23  26
ATOM     26  O   UNL     1     -12.120 -46.774  27.985  1.00  0.00    -0.493 OA
ATOM     27  C   UNL     1     -10.765 -46.390  28.172  1.00  0.00     0.278 C 
ENDBRANCH  23  26
BRANCH  24  28
ATOM     28  O   UNL     1     -13.215 -45.613  30.053  1.00  0.00    -0.493 OA
ATOM     29  C   UNL     1     -13.203 -44.698  31.138  1.00  0.00     0.278 C 
ENDBRANCH  24  28
ENDBRANCH   1  16
TORSDOF 6
ENDMDL
MODEL 9
REMARK VINA RESULT:    -8.963      5.125     12.823
REMARK INTER + INTRA:         -12.947
REMARK INTER:                 -12.213
REMARK INTRA:                  -0.733
REMARK UNBOUND:                -0.840
REMARK SMILES COc1cc2c(cc1OC)C(=O)[C@@H](C[C@H]1CC[N@@H+](Cc3ccccc3)CC1)C2
REMARK SMILES IDX 14 1 15 2 17 3 18 4 16 5 26 6 27 7 19 9 20 10 21 11 25 12
REMARK SMILES IDX 22 13 24 14 23 15 13 16 11 17 28 18 6 19 5 20 7 21 4 22 8 23
REMARK SMILES IDX 3 24 12 25 9 26 10 27 2 28 1 29
REMARK H PARENT 18 8
ROOT
ATOM      1  C   UNL     1     -18.824 -40.901  22.323  1.00  0.00     0.016 C 
ENDROOT
BRANCH   1   2
ATOM      2  C   UNL     1     -20.228 -40.641  21.734  1.00  0.00     0.001 C 
ATOM      3  C   UNL     1     -22.194 -39.048  21.725  1.00  0.00     0.262 C 
ATOM      4  N   UNL     1     -22.186 -39.054  20.220  1.00  0.00    -0.331 N 
ATOM      5  C   UNL     1     -20.799 -39.320  22.275  1.00  0.00     0.065 C 
ATOM      6  C   UNL     1     -21.653 -40.354  19.667  1.00  0.00     0.262 C 
ATOM      7  C   UNL     1     -20.255 -40.640  20.199  1.00  0.00     0.065 C 
ATOM      8  H   UNL     1     -23.172 -39.028  19.932  1.00  0.00     0.348 HD
BRANCH   4   9
ATOM      9  C   UNL     1     -21.583 -37.803  19.614  1.00  0.00     0.299 C 
BRANCH   9  10
ATOM     10  C   UNL     1     -22.553 -37.035  18.759  1.00  0.00     0.006 A 
ATOM     11  C   UNL     1     -22.690 -37.329  17.395  1.00  0.00     0.009 A 
ATOM     12  C   UNL     1     -23.353 -36.025  19.320  1.00  0.00     0.009 A 
ATOM     13  C   UNL     1     -23.610 -36.633  16.610  1.00  0.00     0.001 A 
ATOM     14  C   UNL     1     -24.271 -35.333  18.531  1.00  0.00     0.001 A 
ATOM     15  C   UNL     1     -24.401 -35.638  17.179  1.00  0.00     0.000 A 
ENDBRANCH   9  10
ENDBRANCH   4   9
ENDBRANCH   1   2
BRANCH   1  16
ATOM     16  C   UNL     1     -18.652 -42.222  23.090  1.00  0.00     0.066 C 
ATOM     17  C   UNL     1     -18.957 -42.082  24.572  1.00  0.00     0.166 C 
ATOM     18  C   UNL     1     -17.186 -42.727  23.046  1.00  0.00     0.048 C 
ATOM     19  C   UNL     1     -17.776 -42.417  25.353  1.00  0.00     0.025 A 
ATOM     20  C   UNL     1     -16.761 -42.774  24.480  1.00  0.00    -0.033 A 
ATOM     21  C   UNL     1     -17.625 -42.396  26.727  1.00  0.00     0.062 A 
ATOM     22  C   UNL     1     -15.518 -43.134  24.981  1.00  0.00     0.055 A 
ATOM     23  C   UNL     1     -16.379 -42.755  27.246  1.00  0.00     0.161 A 
ATOM     24  C   UNL     1     -15.319 -43.126  26.370  1.00  0.00     0.161 A 
ATOM     25  O   UNL     1     -20.025 -41.738  25.054  1.00  0.00    -0.294 OA
BRANCH  23  26
ATOM     26  O   UNL     1     -16.078 -42.777  28.586  1.00  0.00    -0.493 OA
ATOM     27  C   UNL     1     -17.159 -42.753  29.508  1.00  0.00     0.278 C 
ENDBRANCH  23  26
BRANCH  24  28
ATOM     28  O   UNL     1     -14.134 -43.457  26.979  1.00  0.00    -0.493 OA
ATOM     29  C   UNL     1     -13.756 -44.825  27.002  1.00  0.00     0.278 C 
ENDBRANCH  24  28
ENDBRANCH   1  16
TORSDOF 6
ENDMDL
