MODEL 1
REMARK VINA RESULT:   -12.140      0.000      0.000
REMARK INTER + INTRA:         -17.104
REMARK INTER:                 -16.398
REMARK INTRA:                  -0.706
REMARK UNBOUND:                -0.706
REMARK SMILES NC(=O)c1ccc2c(CC[C@H]3CC[N@H+](Cc4ccccc4)CC3)noc2c1
REMARK SMILES IDX 10 1 11 2 13 3 14 4 12 5 22 6 23 7 15 9 16 10 17 11 21 12
REMARK SMILES IDX 18 13 20 14 19 15 9 16 8 17 7 18 24 19 6 20 26 21 25 22 5 23
REMARK SMILES IDX 27 24 4 25 2 26 1 27 3 28
REMARK H PARENT 14 8 1 29 1 30
ROOT
ATOM      1  C   UNL     1     -13.885 -45.062  26.559  1.00  0.00     0.010 C 
ENDROOT
BRANCH   1   2
ATOM      2  C   UNL     1     -13.195 -45.679  27.791  1.00  0.00     0.000 C 
ATOM      3  C   UNL     1     -11.027 -46.368  28.899  1.00  0.00     0.262 C 
ATOM      4  N   UNL     1     -11.465 -45.638  30.147  1.00  0.00    -0.331 N 
ATOM      5  C   UNL     1     -11.667 -45.719  27.675  1.00  0.00     0.065 C 
ATOM      6  C   UNL     1     -12.965 -45.634  30.310  1.00  0.00     0.262 C 
ATOM      7  C   UNL     1     -13.608 -44.979  29.094  1.00  0.00     0.065 C 
ATOM      8  H   UNL     1     -11.158 -44.663  30.053  1.00  0.00     0.348 HD
BRANCH   4   9
ATOM      9  C   UNL     1     -10.784 -46.163  31.397  1.00  0.00     0.299 C 
BRANCH   9  10
ATOM     10  C   UNL     1      -9.524 -45.415  31.737  1.00  0.00     0.006 A 
ATOM     11  C   UNL     1      -9.586 -44.125  32.290  1.00  0.00     0.009 A 
ATOM     12  C   UNL     1      -8.267 -46.003  31.523  1.00  0.00     0.009 A 
ATOM     13  C   UNL     1      -8.415 -43.446  32.628  1.00  0.00     0.001 A 
ATOM     14  C   UNL     1      -7.100 -45.318  31.864  1.00  0.00     0.001 A 
ATOM     15  C   UNL     1      -7.174 -44.043  32.418  1.00  0.00     0.000 A 
ENDBRANCH   9  10
ENDBRANCH   4   9
ENDBRANCH   1   2
BRANCH   1  16
ATOM     16  C   UNL     1     -13.998 -43.531  26.556  1.00  0.00     0.061 C 
BRANCH  16  17
ATOM     17  C   UNL     1     -15.413 -43.078  26.447  1.00  0.00     0.091 A 
ATOM     18  C   UNL     1     -16.210 -42.904  25.288  1.00  0.00     0.045 A 
ATOM     19  N   UNL     1     -16.093 -42.791  27.564  1.00  0.00    -0.084 NA
ATOM     20  C   UNL     1     -16.064 -43.048  23.897  1.00  0.00     0.015 A 
ATOM     21  C   UNL     1     -17.433 -42.496  25.790  1.00  0.00     0.167 A 
ATOM     22  O   UNL     1     -17.363 -42.426  27.146  1.00  0.00    -0.356 OA
ATOM     23  C   UNL     1     -17.169 -42.765  23.075  1.00  0.00     0.015 A 
ATOM     24  C   UNL     1     -18.550 -42.209  25.013  1.00  0.00     0.064 A 
ATOM     25  C   UNL     1     -18.392 -42.343  23.625  1.00  0.00     0.043 A 
BRANCH  25  26
ATOM     26  C   UNL     1     -19.574 -42.059  22.770  1.00  0.00     0.248 C 
ATOM     27  N   UNL     1     -19.770 -42.850  21.674  1.00  0.00    -0.366 N 
ATOM     28  O   UNL     1     -20.331 -41.130  23.020  1.00  0.00    -0.270 OA
ATOM     29  H   UNL     1     -20.508 -42.549  21.047  1.00  0.00     0.159 HD
ATOM     30  H   UNL     1     -19.031 -43.408  21.272  1.00  0.00     0.159 HD
ENDBRANCH  25  26
ENDBRANCH  16  17
ENDBRANCH   1  16
TORSDOF 6
ENDMDL
MODEL 2
REMARK VINA RESULT:   -12.035      3.570      8.584
REMARK INTER + INTRA:         -16.962
REMARK INTER:                 -16.026
REMARK INTRA:                  -0.936
REMARK UNBOUND:                -0.706
REMARK SMILES NC(=O)c1ccc2c(CC[C@H]3CC[N@H+](Cc4ccccc4)CC3)noc2c1
REMARK SMILES IDX 10 1 11 2 13 3 14 4 12 5 22 6 23 7 15 9 16 10 17 11 21 12
REMARK SMILES IDX 18 13 20 14 19 15 9 16 8 17 7 18 24 19 6 20 26 21 25 22 5 23
REMARK SMILES IDX 27 24 4 25 2 26 1 27 3 28
REMARK H PARENT 14 8 1 29 1 30
ROOT
ATOM      1  C   UNL     1     -10.886 -46.421  29.123  1.00  0.00     0.010 C 
ENDROOT
BRANCH   1   2
ATOM      2  C   UNL     1     -11.580 -45.527  28.078  1.00  0.00     0.000 C 
ATOM      3  C   UNL     1     -13.696 -44.988  26.798  1.00  0.00     0.262 C 
ATOM      4  N   UNL     1     -13.521 -43.535  27.175  1.00  0.00    -0.331 N 
ATOM      5  C   UNL     1     -13.058 -45.874  27.865  1.00  0.00     0.065 C 
ATOM      6  C   UNL     1     -12.069 -43.158  27.336  1.00  0.00     0.262 C 
ATOM      7  C   UNL     1     -11.429 -44.034  28.406  1.00  0.00     0.065 C 
ATOM      8  H   UNL     1     -13.982 -43.399  28.082  1.00  0.00     0.348 HD
BRANCH   4   9
ATOM      9  C   UNL     1     -14.224 -42.596  26.213  1.00  0.00     0.299 C 
BRANCH   9  10
ATOM     10  C   UNL     1     -15.719 -42.596  26.379  1.00  0.00     0.006 A 
ATOM     11  C   UNL     1     -16.295 -42.522  27.657  1.00  0.00     0.009 A 
ATOM     12  C   UNL     1     -16.559 -42.653  25.256  1.00  0.00     0.009 A 
ATOM     13  C   UNL     1     -17.682 -42.495  27.804  1.00  0.00     0.001 A 
ATOM     14  C   UNL     1     -17.946 -42.626  25.410  1.00  0.00     0.001 A 
ATOM     15  C   UNL     1     -18.506 -42.545  26.682  1.00  0.00     0.000 A 
ENDBRANCH   9  10
ENDBRANCH   4   9
ENDBRANCH   1   2
BRANCH   1  16
ATOM     16  C   UNL     1     -10.650 -45.779  30.497  1.00  0.00     0.061 C 
BRANCH  16  17
ATOM     17  C   UNL     1     -11.926 -45.550  31.230  1.00  0.00     0.091 A 
ATOM     18  C   UNL     1     -12.405 -44.367  31.845  1.00  0.00     0.045 A 
ATOM     19  N   UNL     1     -12.797 -46.560  31.351  1.00  0.00    -0.084 NA
ATOM     20  C   UNL     1     -11.966 -43.045  32.033  1.00  0.00     0.015 A 
ATOM     21  C   UNL     1     -13.643 -44.735  32.344  1.00  0.00     0.167 A 
ATOM     22  O   UNL     1     -13.875 -46.042  32.051  1.00  0.00    -0.356 OA
ATOM     23  C   UNL     1     -12.804 -42.153  32.726  1.00  0.00     0.015 A 
ATOM     24  C   UNL     1     -14.502 -43.884  33.030  1.00  0.00     0.064 A 
ATOM     25  C   UNL     1     -14.050 -42.569  33.225  1.00  0.00     0.043 A 
BRANCH  25  26
ATOM     26  C   UNL     1     -14.955 -41.634  33.943  1.00  0.00     0.248 C 
ATOM     27  N   UNL     1     -14.581 -41.222  35.191  1.00  0.00    -0.366 N 
ATOM     28  O   UNL     1     -16.013 -41.268  33.449  1.00  0.00    -0.270 OA
ATOM     29  H   UNL     1     -15.278 -40.690  35.699  1.00  0.00     0.159 HD
ATOM     30  H   UNL     1     -13.897 -41.719  35.741  1.00  0.00     0.159 HD
ENDBRANCH  25  26
ENDBRANCH  16  17
ENDBRANCH   1  16
TORSDOF 6
ENDMDL
MODEL 3
REMARK VINA RESULT:   -11.911      1.714      2.096
REMARK INTER + INTRA:         -16.794
REMARK INTER:                 -16.020
REMARK INTRA:                  -0.774
REMARK UNBOUND:                -0.706
REMARK SMILES NC(=O)c1ccc2c(CC[C@H]3CC[N@H+](Cc4ccccc4)CC3)noc2c1
REMARK SMILES IDX 10 1 11 2 13 3 14 4 12 5 22 6 23 7 15 9 16 10 17 11 21 12
REMARK SMILES IDX 18 13 20 14 19 15 9 16 8 17 7 18 24 19 6 20 26 21 25 22 5 23
REMARK SMILES IDX 27 24 4 25 2 26 1 27 3 28
REMARK H PARENT 14 8 1 29 1 30
ROOT
ATOM      1  C   UNL     1     -13.803 -45.141  26.335  1.00  0.00     0.010 C 
ENDROOT
BRANCH   1   2
ATOM      2  C   UNL     1     -13.264 -45.625  27.695  1.00  0.00     0.000 C 
ATOM      3  C   UNL     1     -11.284 -46.460  29.031  1.00  0.00     0.262 C 
ATOM      4  N   UNL     1     -11.610 -45.441  30.099  1.00  0.00    -0.331 N 
ATOM      5  C   UNL     1     -11.767 -45.952  27.675  1.00  0.00     0.065 C 
ATOM      6  C   UNL     1     -13.087 -45.144  30.173  1.00  0.00     0.262 C 
ATOM      7  C   UNL     1     -13.573 -44.629  28.824  1.00  0.00     0.065 C 
ATOM      8  H   UNL     1     -11.128 -44.570  29.845  1.00  0.00     0.348 HD
BRANCH   4   9
ATOM      9  C   UNL     1     -11.063 -45.830  31.459  1.00  0.00     0.299 C 
BRANCH   9  10
ATOM     10  C   UNL     1      -9.757 -45.158  31.782  1.00  0.00     0.006 A 
ATOM     11  C   UNL     1      -9.735 -43.904  32.413  1.00  0.00     0.009 A 
ATOM     12  C   UNL     1      -8.539 -45.784  31.471  1.00  0.00     0.009 A 
ATOM     13  C   UNL     1      -8.521 -43.298  32.735  1.00  0.00     0.001 A 
ATOM     14  C   UNL     1      -7.328 -45.172  31.795  1.00  0.00     0.001 A 
ATOM     15  C   UNL     1      -7.319 -43.932  32.428  1.00  0.00     0.000 A 
ENDBRANCH   9  10
ENDBRANCH   4   9
ENDBRANCH   1   2
BRANCH   1  16
ATOM     16  C   UNL     1     -13.876 -43.619  26.150  1.00  0.00     0.061 C 
BRANCH  16  17
ATOM     17  C   UNL     1     -15.119 -43.204  25.443  1.00  0.00     0.091 A 
ATOM     18  C   UNL     1     -16.370 -42.815  25.985  1.00  0.00     0.045 A 
ATOM     19  N   UNL     1     -15.121 -43.156  24.105  1.00  0.00    -0.084 NA
ATOM     20  C   UNL     1     -16.947 -42.663  27.257  1.00  0.00     0.015 A 
ATOM     21  C   UNL     1     -17.132 -42.518  24.868  1.00  0.00     0.167 A 
ATOM     22  O   UNL     1     -16.389 -42.724  23.749  1.00  0.00    -0.356 OA
ATOM     23  C   UNL     1     -18.279 -42.221  27.340  1.00  0.00     0.015 A 
ATOM     24  C   UNL     1     -18.449 -42.075  24.907  1.00  0.00     0.064 A 
ATOM     25  C   UNL     1     -19.022 -41.940  26.181  1.00  0.00     0.043 A 
BRANCH  25  26
ATOM     26  C   UNL     1     -20.425 -41.454  26.253  1.00  0.00     0.248 C 
ATOM     27  N   UNL     1     -20.931 -40.814  25.157  1.00  0.00    -0.366 N 
ATOM     28  O   UNL     1     -21.096 -41.593  27.267  1.00  0.00    -0.270 OA
ATOM     29  H   UNL     1     -21.841 -40.386  25.286  1.00  0.00     0.159 HD
ATOM     30  H   UNL     1     -20.340 -40.418  24.441  1.00  0.00     0.159 HD
ENDBRANCH  25  26
ENDBRANCH  16  17
ENDBRANCH   1  16
TORSDOF 6
ENDMDL
MODEL 4
REMARK VINA RESULT:   -11.837      1.678      2.140
REMARK INTER + INTRA:         -16.695
REMARK INTER:                 -16.150
REMARK INTRA:                  -0.545
REMARK UNBOUND:                -0.706
REMARK SMILES NC(=O)c1ccc2c(CC[C@H]3CC[N@H+](Cc4ccccc4)CC3)noc2c1
REMARK SMILES IDX 10 1 11 2 13 3 14 4 12 5 22 6 23 7 15 9 16 10 17 11 21 12
REMARK SMILES IDX 18 13 20 14 19 15 9 16 8 17 7 18 24 19 6 20 26 21 25 22 5 23
REMARK SMILES IDX 27 24 4 25 2 26 1 27 3 28
REMARK H PARENT 14 8 1 29 1 30
ROOT
ATOM      1  C   UNL     1     -14.136 -43.466  26.923  1.00  0.00     0.010 C 
ENDROOT
BRANCH   1   2
ATOM      2  C   UNL     1     -13.212 -44.430  27.693  1.00  0.00     0.000 C 
ATOM      3  C   UNL     1     -10.941 -44.834  28.732  1.00  0.00     0.262 C 
ATOM      4  N   UNL     1     -11.632 -45.304  29.992  1.00  0.00    -0.331 N 
ATOM      5  C   UNL     1     -11.834 -43.835  28.001  1.00  0.00     0.065 C 
ATOM      6  C   UNL     1     -12.968 -45.943  29.706  1.00  0.00     0.262 C 
ATOM      7  C   UNL     1     -13.866 -44.947  28.983  1.00  0.00     0.065 C 
ATOM      8  H   UNL     1     -11.800 -44.474  30.574  1.00  0.00     0.348 HD
BRANCH   4   9
ATOM      9  C   UNL     1     -10.757 -46.220  30.827  1.00  0.00     0.299 C 
BRANCH   9  10
ATOM     10  C   UNL     1      -9.550 -45.524  31.394  1.00  0.00     0.006 A 
ATOM     11  C   UNL     1      -8.270 -46.080  31.244  1.00  0.00     0.009 A 
ATOM     12  C   UNL     1      -9.685 -44.299  32.065  1.00  0.00     0.009 A 
ATOM     13  C   UNL     1      -7.150 -45.418  31.748  1.00  0.00     0.001 A 
ATOM     14  C   UNL     1      -8.561 -43.641  32.567  1.00  0.00     0.001 A 
ATOM     15  C   UNL     1      -7.296 -44.199  32.407  1.00  0.00     0.000 A 
ENDBRANCH   9  10
ENDBRANCH   4   9
ENDBRANCH   1   2
BRANCH   1  16
ATOM     16  C   UNL     1     -14.900 -44.079  25.740  1.00  0.00     0.061 C 
BRANCH  16  17
ATOM     17  C   UNL     1     -15.161 -43.078  24.669  1.00  0.00     0.091 A 
ATOM     18  C   UNL     1     -16.399 -42.636  24.139  1.00  0.00     0.045 A 
ATOM     19  N   UNL     1     -14.124 -42.460  24.089  1.00  0.00    -0.084 NA
ATOM     20  C   UNL     1     -17.765 -42.897  24.340  1.00  0.00     0.015 A 
ATOM     21  C   UNL     1     -16.033 -41.691  23.196  1.00  0.00     0.167 A 
ATOM     22  O   UNL     1     -14.678 -41.588  23.164  1.00  0.00    -0.356 OA
ATOM     23  C   UNL     1     -18.703 -42.189  23.567  1.00  0.00     0.015 A 
ATOM     24  C   UNL     1     -16.928 -40.968  22.415  1.00  0.00     0.064 A 
ATOM     25  C   UNL     1     -18.290 -41.245  22.612  1.00  0.00     0.043 A 
BRANCH  25  26
ATOM     26  C   UNL     1     -19.269 -40.475  21.801  1.00  0.00     0.248 C 
ATOM     27  N   UNL     1     -19.020 -40.343  20.464  1.00  0.00    -0.366 N 
ATOM     28  O   UNL     1     -20.248 -39.952  22.316  1.00  0.00    -0.270 OA
ATOM     29  H   UNL     1     -19.637 -39.709  19.969  1.00  0.00     0.159 HD
ATOM     30  H   UNL     1     -18.104 -40.489  20.068  1.00  0.00     0.159 HD
ENDBRANCH  25  26
ENDBRANCH  16  17
ENDBRANCH   1  16
TORSDOF 6
ENDMDL
MODEL 5
REMARK VINA RESULT:   -10.591      3.136     10.220
REMARK INTER + INTRA:         -15.011
REMARK INTER:                 -15.084
REMARK INTRA:                   0.072
REMARK UNBOUND:                -0.706
REMARK SMILES NC(=O)c1ccc2c(CC[C@H]3CC[N@H+](Cc4ccccc4)CC3)noc2c1
REMARK SMILES IDX 10 1 11 2 13 3 14 4 12 5 22 6 23 7 15 9 16 10 17 11 21 12
REMARK SMILES IDX 18 13 20 14 19 15 9 16 8 17 7 18 24 19 6 20 26 21 25 22 5 23
REMARK SMILES IDX 27 24 4 25 2 26 1 27 3 28
REMARK H PARENT 14 8 1 29 1 30
ROOT
ATOM      1  C   UNL     1     -12.889 -45.389  27.705  1.00  0.00     0.010 C 
ENDROOT
BRANCH   1   2
ATOM      2  C   UNL     1     -13.682 -44.394  26.835  1.00  0.00     0.000 C 
ATOM      3  C   UNL     1     -14.879 -43.953  24.650  1.00  0.00     0.262 C 
ATOM      4  N   UNL     1     -16.054 -43.416  25.433  1.00  0.00    -0.331 N 
ATOM      5  C   UNL     1     -14.129 -44.981  25.492  1.00  0.00     0.065 C 
ATOM      6  C   UNL     1     -15.632 -42.784  26.736  1.00  0.00     0.262 C 
ATOM      7  C   UNL     1     -14.890 -43.809  27.584  1.00  0.00     0.065 C 
ATOM      8  H   UNL     1     -16.661 -44.215  25.655  1.00  0.00     0.348 HD
BRANCH   4   9
ATOM      9  C   UNL     1     -16.911 -42.465  24.619  1.00  0.00     0.299 C 
BRANCH   9  10
ATOM     10  C   UNL     1     -18.200 -42.103  25.303  1.00  0.00     0.006 A 
ATOM     11  C   UNL     1     -19.269 -41.562  24.572  1.00  0.00     0.009 A 
ATOM     12  C   UNL     1     -18.359 -42.318  26.681  1.00  0.00     0.009 A 
ATOM     13  C   UNL     1     -20.473 -41.253  25.206  1.00  0.00     0.001 A 
ATOM     14  C   UNL     1     -19.566 -42.007  27.310  1.00  0.00     0.001 A 
ATOM     15  C   UNL     1     -20.621 -41.477  26.573  1.00  0.00     0.000 A 
ENDBRANCH   9  10
ENDBRANCH   4   9
ENDBRANCH   1   2
BRANCH   1  16
ATOM     16  C   UNL     1     -13.426 -45.605  29.127  1.00  0.00     0.061 C 
BRANCH  16  17
ATOM     17  C   UNL     1     -12.648 -44.834  30.137  1.00  0.00     0.091 A 
ATOM     18  C   UNL     1     -11.281 -44.949  30.492  1.00  0.00     0.045 A 
ATOM     19  N   UNL     1     -13.263 -43.871  30.835  1.00  0.00    -0.084 NA
ATOM     20  C   UNL     1     -10.175 -45.732  30.120  1.00  0.00     0.015 A 
ATOM     21  C   UNL     1     -11.111 -43.972  31.458  1.00  0.00     0.167 A 
ATOM     22  O   UNL     1     -12.292 -43.332  31.664  1.00  0.00    -0.356 OA
ATOM     23  C   UNL     1      -8.942 -45.492  30.751  1.00  0.00     0.015 A 
ATOM     24  C   UNL     1      -9.909 -43.701  32.103  1.00  0.00     0.064 A 
ATOM     25  C   UNL     1      -8.813 -44.496  31.734  1.00  0.00     0.043 A 
BRANCH  25  26
ATOM     26  C   UNL     1      -7.511 -44.217  32.397  1.00  0.00     0.248 C 
ATOM     27  N   UNL     1      -6.487 -45.094  32.176  1.00  0.00    -0.366 N 
ATOM     28  O   UNL     1      -7.369 -43.254  33.138  1.00  0.00    -0.270 OA
ATOM     29  H   UNL     1      -5.659 -44.945  32.741  1.00  0.00     0.159 HD
ATOM     30  H   UNL     1      -6.642 -46.031  31.835  1.00  0.00     0.159 HD
ENDBRANCH  25  26
ENDBRANCH  16  17
ENDBRANCH   1  16
TORSDOF 6
ENDMDL
MODEL 6
REMARK VINA RESULT:   -10.422      3.183     11.168
REMARK INTER + INTRA:         -14.783
REMARK INTER:                 -14.163
REMARK INTRA:                  -0.620
REMARK UNBOUND:                -0.706
REMARK SMILES NC(=O)c1ccc2c(CC[C@H]3CC[N@H+](Cc4ccccc4)CC3)noc2c1
REMARK SMILES IDX 10 1 11 2 13 3 14 4 12 5 22 6 23 7 15 9 16 10 17 11 21 12
REMARK SMILES IDX 18 13 20 14 19 15 9 16 8 17 7 18 24 19 6 20 26 21 25 22 5 23
REMARK SMILES IDX 27 24 4 25 2 26 1 27 3 28
REMARK H PARENT 14 8 1 29 1 30
ROOT
ATOM      1  C   UNL     1     -15.457 -42.758  26.551  1.00  0.00     0.010 C 
ENDROOT
BRANCH   1   2
ATOM      2  C   UNL     1     -16.569 -42.990  25.510  1.00  0.00     0.000 C 
ATOM      3  C   UNL     1     -18.997 -42.667  24.874  1.00  0.00     0.262 C 
ATOM      4  N   UNL     1     -18.546 -42.157  23.525  1.00  0.00    -0.331 N 
ATOM      5  C   UNL     1     -17.917 -42.384  25.915  1.00  0.00     0.065 C 
ATOM      6  C   UNL     1     -17.247 -42.782  23.082  1.00  0.00     0.262 C 
ATOM      7  C   UNL     1     -16.164 -42.495  24.114  1.00  0.00     0.065 C 
ATOM      8  H   UNL     1     -18.391 -41.146  23.619  1.00  0.00     0.348 HD
BRANCH   4   9
ATOM      9  C   UNL     1     -19.615 -42.308  22.459  1.00  0.00     0.299 C 
BRANCH   9  10
ATOM     10  C   UNL     1     -19.948 -41.013  21.772  1.00  0.00     0.006 A 
ATOM     11  C   UNL     1     -20.100 -40.962  20.377  1.00  0.00     0.009 A 
ATOM     12  C   UNL     1     -20.129 -39.837  22.518  1.00  0.00     0.009 A 
ATOM     13  C   UNL     1     -20.435 -39.764  19.747  1.00  0.00     0.001 A 
ATOM     14  C   UNL     1     -20.463 -38.641  21.882  1.00  0.00     0.001 A 
ATOM     15  C   UNL     1     -20.619 -38.605  20.499  1.00  0.00     0.000 A 
ENDBRANCH   9  10
ENDBRANCH   4   9
ENDBRANCH   1   2
BRANCH   1  16
ATOM     16  C   UNL     1     -14.023 -43.011  26.062  1.00  0.00     0.061 C 
BRANCH  16  17
ATOM     17  C   UNL     1     -13.238 -43.819  27.035  1.00  0.00     0.091 A 
ATOM     18  C   UNL     1     -12.003 -43.515  27.661  1.00  0.00     0.045 A 
ATOM     19  N   UNL     1     -13.716 -45.007  27.430  1.00  0.00    -0.084 NA
ATOM     20  C   UNL     1     -11.069 -42.466  27.656  1.00  0.00     0.015 A 
ATOM     21  C   UNL     1     -11.771 -44.611  28.475  1.00  0.00     0.167 A 
ATOM     22  O   UNL     1     -12.789 -45.500  28.336  1.00  0.00    -0.356 OA
ATOM     23  C   UNL     1      -9.933 -42.577  28.477  1.00  0.00     0.015 A 
ATOM     24  C   UNL     1     -10.663 -44.758  29.303  1.00  0.00     0.064 A 
ATOM     25  C   UNL     1      -9.729 -43.710  29.282  1.00  0.00     0.043 A 
BRANCH  25  26
ATOM     26  C   UNL     1      -8.542 -43.834  30.169  1.00  0.00     0.248 C 
ATOM     27  N   UNL     1      -8.359 -45.021  30.820  1.00  0.00    -0.366 N 
ATOM     28  O   UNL     1      -7.772 -42.898  30.336  1.00  0.00    -0.270 OA
ATOM     29  H   UNL     1      -7.616 -45.027  31.511  1.00  0.00     0.159 HD
ATOM     30  H   UNL     1      -9.105 -45.688  30.949  1.00  0.00     0.159 HD
ENDBRANCH  25  26
ENDBRANCH  16  17
ENDBRANCH   1  16
TORSDOF 6
ENDMDL
MODEL 7
REMARK VINA RESULT:   -10.285      2.975     10.356
REMARK INTER + INTRA:         -14.599
REMARK INTER:                 -14.061
REMARK INTRA:                  -0.538
REMARK UNBOUND:                -0.706
REMARK SMILES NC(=O)c1ccc2c(CC[C@H]3CC[N@H+](Cc4ccccc4)CC3)noc2c1
REMARK SMILES IDX 10 1 11 2 13 3 14 4 12 5 22 6 23 7 15 9 16 10 17 11 21 12
REMARK SMILES IDX 18 13 20 14 19 15 9 16 8 17 7 18 24 19 6 20 26 21 25 22 5 23
REMARK SMILES IDX 27 24 4 25 2 26 1 27 3 28
REMARK H PARENT 14 8 1 29 1 30
ROOT
ATOM      1  C   UNL     1     -13.887 -43.632  25.862  1.00  0.00     0.010 C 
ENDROOT
BRANCH   1   2
ATOM      2  C   UNL     1     -15.149 -42.917  25.340  1.00  0.00     0.000 C 
ATOM      3  C   UNL     1     -16.766 -42.570  23.425  1.00  0.00     0.262 C 
ATOM      4  N   UNL     1     -17.910 -42.788  24.389  1.00  0.00    -0.331 N 
ATOM      5  C   UNL     1     -15.534 -43.327  23.914  1.00  0.00     0.065 C 
ATOM      6  C   UNL     1     -17.571 -42.340  25.789  1.00  0.00     0.262 C 
ATOM      7  C   UNL     1     -16.346 -43.099  26.285  1.00  0.00     0.065 C 
ATOM      8  H   UNL     1     -18.094 -43.798  24.419  1.00  0.00     0.348 HD
BRANCH   4   9
ATOM      9  C   UNL     1     -19.201 -42.151  23.911  1.00  0.00     0.299 C 
BRANCH   9  10
ATOM     10  C   UNL     1     -20.305 -42.225  24.930  1.00  0.00     0.006 A 
ATOM     11  C   UNL     1     -20.966 -43.437  25.181  1.00  0.00     0.009 A 
ATOM     12  C   UNL     1     -20.677 -41.084  25.659  1.00  0.00     0.009 A 
ATOM     13  C   UNL     1     -21.970 -43.506  26.146  1.00  0.00     0.001 A 
ATOM     14  C   UNL     1     -21.683 -41.159  26.623  1.00  0.00     0.001 A 
ATOM     15  C   UNL     1     -22.327 -42.369  26.868  1.00  0.00     0.000 A 
ENDBRANCH   9  10
ENDBRANCH   4   9
ENDBRANCH   1   2
BRANCH   1  16
ATOM     16  C   UNL     1     -14.133 -44.931  26.643  1.00  0.00     0.061 C 
BRANCH  16  17
ATOM     17  C   UNL     1     -13.595 -44.857  28.029  1.00  0.00     0.091 A 
ATOM     18  C   UNL     1     -12.361 -45.336  28.538  1.00  0.00     0.045 A 
ATOM     19  N   UNL     1     -14.321 -44.252  28.978  1.00  0.00    -0.084 NA
ATOM     20  C   UNL     1     -11.231 -46.014  28.049  1.00  0.00     0.015 A 
ATOM     21  C   UNL     1     -12.392 -44.967  29.872  1.00  0.00     0.167 A 
ATOM     22  O   UNL     1     -13.560 -44.323  30.134  1.00  0.00    -0.356 OA
ATOM     23  C   UNL     1     -10.181 -46.293  28.941  1.00  0.00     0.015 A 
ATOM     24  C   UNL     1     -11.374 -45.221  30.784  1.00  0.00     0.064 A 
ATOM     25  C   UNL     1     -10.255 -45.910  30.291  1.00  0.00     0.043 A 
BRANCH  25  26
ATOM     26  C   UNL     1      -9.144 -46.181  31.241  1.00  0.00     0.248 C 
ATOM     27  N   UNL     1      -8.469 -47.361  31.107  1.00  0.00    -0.366 N 
ATOM     28  O   UNL     1      -8.863 -45.391  32.132  1.00  0.00    -0.270 OA
ATOM     29  H   UNL     1      -7.807 -47.569  31.846  1.00  0.00     0.159 HD
ATOM     30  H   UNL     1      -8.851 -48.148  30.604  1.00  0.00     0.159 HD
ENDBRANCH  25  26
ENDBRANCH  16  17
ENDBRANCH   1  16
TORSDOF 6
ENDMDL
MODEL 8
REMARK VINA RESULT:   -10.275      2.132      3.152
REMARK INTER + INTRA:         -14.584
REMARK INTER:                 -14.127
REMARK INTRA:                  -0.457
REMARK UNBOUND:                -0.706
REMARK SMILES NC(=O)c1ccc2c(CC[C@H]3CC[N@H+](Cc4ccccc4)CC3)noc2c1
REMARK SMILES IDX 10 1 11 2 13 3 14 4 12 5 22 6 23 7 15 9 16 10 17 11 21 12
REMARK SMILES IDX 18 13 20 14 19 15 9 16 8 17 7 18 24 19 6 20 26 21 25 22 5 23
REMARK SMILES IDX 27 24 4 25 2 26 1 27 3 28
REMARK H PARENT 14 8 1 29 1 30
ROOT
ATOM      1  C   UNL     1     -15.025 -42.853  26.081  1.00  0.00     0.010 C 
ENDROOT
BRANCH   1   2
ATOM      2  C   UNL     1     -14.050 -43.712  26.910  1.00  0.00     0.000 C 
ATOM      3  C   UNL     1     -11.740 -43.947  27.915  1.00  0.00     0.262 C 
ATOM      4  N   UNL     1     -12.381 -44.320  29.232  1.00  0.00    -0.331 N 
ATOM      5  C   UNL     1     -12.685 -43.048  27.122  1.00  0.00     0.065 C 
ATOM      6  C   UNL     1     -13.702 -45.024  29.045  1.00  0.00     0.262 C 
ATOM      7  C   UNL     1     -14.652 -44.127  28.260  1.00  0.00     0.065 C 
ATOM      8  H   UNL     1     -12.562 -43.446  29.740  1.00  0.00     0.348 HD
BRANCH   4   9
ATOM      9  C   UNL     1     -11.455 -45.127  30.122  1.00  0.00     0.299 C 
BRANCH   9  10
ATOM     10  C   UNL     1     -10.928 -44.338  31.289  1.00  0.00     0.006 A 
ATOM     11  C   UNL     1      -9.592 -44.477  31.700  1.00  0.00     0.009 A 
ATOM     12  C   UNL     1     -11.759 -43.438  31.974  1.00  0.00     0.009 A 
ATOM     13  C   UNL     1      -9.100 -43.724  32.766  1.00  0.00     0.001 A 
ATOM     14  C   UNL     1     -11.261 -42.688  33.040  1.00  0.00     0.001 A 
ATOM     15  C   UNL     1      -9.933 -42.829  33.434  1.00  0.00     0.000 A 
ENDBRANCH   9  10
ENDBRANCH   4   9
ENDBRANCH   1   2
BRANCH   1  16
ATOM     16  C   UNL     1     -15.389 -43.407  24.696  1.00  0.00     0.061 C 
BRANCH  16  17
ATOM     17  C   UNL     1     -16.705 -42.897  24.222  1.00  0.00     0.091 A 
ATOM     18  C   UNL     1     -17.816 -42.446  24.979  1.00  0.00     0.045 A 
ATOM     19  N   UNL     1     -16.936 -42.816  22.906  1.00  0.00    -0.084 NA
ATOM     20  C   UNL     1     -18.153 -42.292  26.334  1.00  0.00     0.015 A 
ATOM     21  C   UNL     1     -18.738 -42.073  24.016  1.00  0.00     0.167 A 
ATOM     22  O   UNL     1     -18.215 -42.296  22.782  1.00  0.00    -0.356 OA
ATOM     23  C   UNL     1     -19.420 -41.770  26.654  1.00  0.00     0.015 A 
ATOM     24  C   UNL     1     -19.997 -41.552  24.290  1.00  0.00     0.064 A 
ATOM     25  C   UNL     1     -20.332 -41.413  25.646  1.00  0.00     0.043 A 
BRANCH  25  26
ATOM     26  C   UNL     1     -21.666 -40.843  25.968  1.00  0.00     0.248 C 
ATOM     27  N   UNL     1     -21.983 -40.676  27.286  1.00  0.00    -0.366 N 
ATOM     28  O   UNL     1     -22.466 -40.561  25.086  1.00  0.00    -0.270 OA
ATOM     29  H   UNL     1     -22.943 -40.407  27.471  1.00  0.00     0.159 HD
ATOM     30  H   UNL     1     -21.497 -41.162  28.025  1.00  0.00     0.159 HD
ENDBRANCH  25  26
ENDBRANCH  16  17
ENDBRANCH   1  16
TORSDOF 6
ENDMDL
MODEL 9
REMARK VINA RESULT:   -10.142      3.108      6.305
REMARK INTER + INTRA:         -14.405
REMARK INTER:                 -13.988
REMARK INTRA:                  -0.417
REMARK UNBOUND:                -0.706
REMARK SMILES NC(=O)c1ccc2c(CC[C@H]3CC[N@H+](Cc4ccccc4)CC3)noc2c1
REMARK SMILES IDX 10 1 11 2 13 3 14 4 12 5 22 6 23 7 15 9 16 10 17 11 21 12
REMARK SMILES IDX 18 13 20 14 19 15 9 16 8 17 7 18 24 19 6 20 26 21 25 22 5 23
REMARK SMILES IDX 27 24 4 25 2 26 1 27 3 28
REMARK H PARENT 14 8 1 29 1 30
ROOT
ATOM      1  C   UNL     1     -18.945 -42.706  24.560  1.00  0.00     0.010 C 
ENDROOT
BRANCH   1   2
ATOM      2  C   UNL     1     -17.557 -42.388  25.149  1.00  0.00     0.000 C 
ATOM      3  C   UNL     1     -16.037 -42.434  27.172  1.00  0.00     0.262 C 
ATOM      4  N   UNL     1     -14.963 -43.065  26.316  1.00  0.00    -0.331 N 
ATOM      5  C   UNL     1     -17.412 -42.799  26.619  1.00  0.00     0.065 C 
ATOM      6  C   UNL     1     -15.054 -42.631  24.873  1.00  0.00     0.262 C 
ATOM      7  C   UNL     1     -16.423 -43.001  24.315  1.00  0.00     0.065 C 
ATOM      8  H   UNL     1     -15.108 -44.081  26.347  1.00  0.00     0.348 HD
BRANCH   4   9
ATOM      9  C   UNL     1     -13.569 -42.833  26.867  1.00  0.00     0.299 C 
BRANCH   9  10
ATOM     10  C   UNL     1     -12.886 -44.104  27.291  1.00  0.00     0.006 A 
ATOM     11  C   UNL     1     -13.387 -45.352  26.889  1.00  0.00     0.009 A 
ATOM     12  C   UNL     1     -11.727 -44.059  28.081  1.00  0.00     0.009 A 
ATOM     13  C   UNL     1     -12.735 -46.527  27.263  1.00  0.00     0.001 A 
ATOM     14  C   UNL     1     -11.079 -45.239  28.452  1.00  0.00     0.001 A 
ATOM     15  C   UNL     1     -11.581 -46.470  28.041  1.00  0.00     0.000 A 
ENDBRANCH   9  10
ENDBRANCH   4   9
ENDBRANCH   1   2
BRANCH   1  16
ATOM     16  C   UNL     1     -19.865 -41.498  24.332  1.00  0.00     0.061 C 
BRANCH  16  17
ATOM     17  C   UNL     1     -19.656 -40.885  22.992  1.00  0.00     0.091 A 
ATOM     18  C   UNL     1     -20.510 -40.026  22.257  1.00  0.00     0.045 A 
ATOM     19  N   UNL     1     -18.513 -41.128  22.336  1.00  0.00    -0.084 NA
ATOM     20  C   UNL     1     -21.776 -39.436  22.418  1.00  0.00     0.015 A 
ATOM     21  C   UNL     1     -19.792 -39.757  21.104  1.00  0.00     0.167 A 
ATOM     22  O   UNL     1     -18.604 -40.416  21.151  1.00  0.00    -0.356 OA
ATOM     23  C   UNL     1     -22.260 -38.601  21.395  1.00  0.00     0.015 A 
ATOM     24  C   UNL     1     -20.234 -38.937  20.072  1.00  0.00     0.064 A 
ATOM     25  C   UNL     1     -21.504 -38.362  20.236  1.00  0.00     0.043 A 
BRANCH  25  26
ATOM     26  C   UNL     1     -21.995 -37.467  19.155  1.00  0.00     0.248 C 
ATOM     27  N   UNL     1     -22.374 -36.202  19.503  1.00  0.00    -0.366 N 
ATOM     28  O   UNL     1     -22.085 -37.857  17.998  1.00  0.00    -0.270 OA
ATOM     29  H   UNL     1     -22.821 -35.665  18.768  1.00  0.00     0.159 HD
ATOM     30  H   UNL     1     -22.600 -35.947  20.453  1.00  0.00     0.159 HD
ENDBRANCH  25  26
ENDBRANCH  16  17
ENDBRANCH   1  16
TORSDOF 6
ENDMDL
