MODEL 1
REMARK VINA RESULT:    -9.941      0.000      0.000
REMARK INTER + INTRA:         -11.509
REMARK INTER:                 -11.103
REMARK INTRA:                  -0.406
REMARK UNBOUND:                -0.406
REMARK SMILES C[N@H+]1CC[C@H](/C=C2\Cc3ccccc3C2=O)CC1
REMARK SMILES IDX 6 1 5 2 2 3 18 4 3 5 17 6 4 7 1 8 7 10 8 11 15 12 9 13 14 14
REMARK SMILES IDX 10 15 13 16 11 17 12 18 16 19
REMARK H PARENT 2 9
ROOT
ATOM      1  C   UNL     1     -12.421 -46.294  29.126  1.00  0.00    -0.015 C 
ENDROOT
BRANCH   1   2
ATOM      2  C   UNL     1     -11.011 -46.004  29.561  1.00  0.00     0.023 C 
ATOM      3  N   UNL     1      -9.190 -44.474  31.250  1.00  0.00    -0.337 N 
ATOM      4  C   UNL     1      -9.272 -44.181  29.772  1.00  0.00     0.262 C 
ATOM      5  C   UNL     1      -9.464 -45.925  31.560  1.00  0.00     0.262 C 
ATOM      6  C   UNL     1     -10.657 -44.542  29.259  1.00  0.00     0.069 C 
ATOM      7  C   UNL     1     -10.851 -46.298  31.058  1.00  0.00     0.069 C 
ATOM      8  C   UNL     1      -7.881 -44.019  31.836  1.00  0.00     0.332 C 
ATOM      9  H   UNL     1      -9.921 -43.917  31.715  1.00  0.00     0.347 HD
ENDBRANCH   1   2
BRANCH   1  10
ATOM     10  C   UNL     1     -13.111 -45.633  28.184  1.00  0.00     0.001 C 
ATOM     11  C   UNL     1     -13.077 -45.739  26.679  1.00  0.00     0.075 C 
ATOM     12  C   UNL     1     -14.115 -44.586  28.559  1.00  0.00     0.189 C 
ATOM     13  C   UNL     1     -14.087 -44.727  26.229  1.00  0.00    -0.032 A 
ATOM     14  C   UNL     1     -14.679 -44.069  27.309  1.00  0.00     0.026 A 
ATOM     15  C   UNL     1     -14.460 -44.406  24.934  1.00  0.00     0.005 A 
ATOM     16  C   UNL     1     -15.642 -43.090  27.152  1.00  0.00     0.012 A 
ATOM     17  C   UNL     1     -15.435 -43.417  24.751  1.00  0.00     0.000 A 
ATOM     18  C   UNL     1     -16.021 -42.764  25.850  1.00  0.00     0.001 A 
ATOM     19  O   UNL     1     -14.404 -44.236  29.685  1.00  0.00    -0.289 OA
ENDBRANCH   1  10
TORSDOF 2
ENDMDL
MODEL 2
REMARK VINA RESULT:    -9.872      2.484      4.199
REMARK INTER + INTRA:         -11.432
REMARK INTER:                 -11.120
REMARK INTRA:                  -0.312
REMARK UNBOUND:                -0.406
REMARK SMILES C[N@H+]1CC[C@H](/C=C2\Cc3ccccc3C2=O)CC1
REMARK SMILES IDX 6 1 5 2 2 3 18 4 3 5 17 6 4 7 1 8 7 10 8 11 15 12 9 13 14 14
REMARK SMILES IDX 10 15 13 16 11 17 12 18 16 19
REMARK H PARENT 2 9
ROOT
ATOM      1  C   UNL     1     -13.879 -43.566  26.177  1.00  0.00    -0.015 C 
ENDROOT
BRANCH   1   2
ATOM      2  C   UNL     1     -13.219 -44.119  27.410  1.00  0.00     0.023 C 
ATOM      3  N   UNL     1     -10.958 -45.517  28.611  1.00  0.00    -0.337 N 
ATOM      4  C   UNL     1     -12.284 -46.221  28.459  1.00  0.00     0.262 C 
ATOM      5  C   UNL     1     -11.121 -44.031  28.820  1.00  0.00     0.262 C 
ATOM      6  C   UNL     1     -13.036 -45.636  27.274  1.00  0.00     0.069 C 
ATOM      7  C   UNL     1     -11.866 -43.432  27.636  1.00  0.00     0.069 C 
ATOM      8  C   UNL     1     -10.117 -46.140  29.693  1.00  0.00     0.332 C 
ATOM      9  H   UNL     1     -10.437 -45.649  27.733  1.00  0.00     0.347 HD
ENDBRANCH   1   2
BRANCH   1  10
ATOM     10  C   UNL     1     -15.156 -43.169  26.073  1.00  0.00     0.001 C 
ATOM     11  C   UNL     1     -16.168 -42.812  27.134  1.00  0.00     0.075 C 
ATOM     12  C   UNL     1     -15.808 -43.017  24.732  1.00  0.00     0.189 C 
ATOM     13  C   UNL     1     -17.395 -42.456  26.349  1.00  0.00    -0.032 A 
ATOM     14  C   UNL     1     -17.183 -42.575  24.974  1.00  0.00     0.026 A 
ATOM     15  C   UNL     1     -18.630 -42.051  26.827  1.00  0.00     0.005 A 
ATOM     16  C   UNL     1     -18.165 -42.303  24.039  1.00  0.00     0.012 A 
ATOM     17  C   UNL     1     -19.640 -41.769  25.898  1.00  0.00     0.000 A 
ATOM     18  C   UNL     1     -19.410 -41.894  24.517  1.00  0.00     0.001 A 
ATOM     19  O   UNL     1     -15.289 -43.220  23.653  1.00  0.00    -0.289 OA
ENDBRANCH   1  10
TORSDOF 2
ENDMDL
MODEL 3
REMARK VINA RESULT:    -9.416      1.888      2.984
REMARK INTER + INTRA:         -10.923
REMARK INTER:                 -10.510
REMARK INTRA:                  -0.413
REMARK UNBOUND:                -0.406
REMARK SMILES C[N@H+]1CC[C@H](/C=C2\Cc3ccccc3C2=O)CC1
REMARK SMILES IDX 6 1 5 2 2 3 18 4 3 5 17 6 4 7 1 8 7 10 8 11 15 12 9 13 14 14
REMARK SMILES IDX 10 15 13 16 11 17 12 18 16 19
REMARK H PARENT 2 9
ROOT
ATOM      1  C   UNL     1     -13.561 -44.711  27.576  1.00  0.00    -0.015 C 
ENDROOT
BRANCH   1   2
ATOM      2  C   UNL     1     -12.403 -43.986  28.204  1.00  0.00     0.023 C 
ATOM      3  N   UNL     1      -9.629 -43.101  28.030  1.00  0.00    -0.337 N 
ATOM      4  C   UNL     1     -10.001 -44.234  28.953  1.00  0.00     0.262 C 
ATOM      5  C   UNL     1     -10.749 -42.102  27.873  1.00  0.00     0.262 C 
ATOM      6  C   UNL     1     -11.227 -44.950  28.410  1.00  0.00     0.069 C 
ATOM      7  C   UNL     1     -11.981 -42.804  27.321  1.00  0.00     0.069 C 
ATOM      8  C   UNL     1      -8.347 -42.435  28.453  1.00  0.00     0.332 C 
ATOM      9  H   UNL     1      -9.446 -43.508  27.101  1.00  0.00     0.347 HD
ENDBRANCH   1   2
BRANCH   1  10
ATOM     10  C   UNL     1     -14.416 -44.206  26.674  1.00  0.00     0.001 C 
ATOM     11  C   UNL     1     -14.408 -44.265  25.165  1.00  0.00     0.075 C 
ATOM     12  C   UNL     1     -15.622 -43.429  27.107  1.00  0.00     0.189 C 
ATOM     13  C   UNL     1     -15.638 -43.504  24.774  1.00  0.00    -0.032 A 
ATOM     14  C   UNL     1     -16.330 -43.027  25.889  1.00  0.00     0.026 A 
ATOM     15  C   UNL     1     -16.118 -43.249  23.500  1.00  0.00     0.005 A 
ATOM     16  C   UNL     1     -17.498 -42.294  25.788  1.00  0.00     0.012 A 
ATOM     17  C   UNL     1     -17.300 -42.508  23.373  1.00  0.00     0.000 A 
ATOM     18  C   UNL     1     -17.984 -42.035  24.507  1.00  0.00     0.001 A 
ATOM     19  O   UNL     1     -15.946 -43.183  28.250  1.00  0.00    -0.289 OA
ENDBRANCH   1  10
TORSDOF 2
ENDMDL
MODEL 4
REMARK VINA RESULT:    -9.375      2.463      6.638
REMARK INTER + INTRA:         -10.878
REMARK INTER:                 -10.541
REMARK INTRA:                  -0.337
REMARK UNBOUND:                -0.406
REMARK SMILES C[N@H+]1CC[C@H](/C=C2\Cc3ccccc3C2=O)CC1
REMARK SMILES IDX 6 1 5 2 2 3 18 4 3 5 17 6 4 7 1 8 7 10 8 11 15 12 9 13 14 14
REMARK SMILES IDX 10 15 13 16 11 17 12 18 16 19
REMARK H PARENT 2 9
ROOT
ATOM      1  C   UNL     1     -13.490 -45.704  27.492  1.00  0.00    -0.015 C 
ENDROOT
BRANCH   1   2
ATOM      2  C   UNL     1     -13.836 -44.545  26.598  1.00  0.00     0.023 C 
ATOM      3  N   UNL     1     -15.802 -43.198  24.916  1.00  0.00    -0.337 N 
ATOM      4  C   UNL     1     -14.638 -43.919  24.283  1.00  0.00     0.262 C 
ATOM      5  C   UNL     1     -15.454 -42.629  26.269  1.00  0.00     0.262 C 
ATOM      6  C   UNL     1     -14.188 -45.052  25.193  1.00  0.00     0.069 C 
ATOM      7  C   UNL     1     -15.008 -43.753  27.193  1.00  0.00     0.069 C 
ATOM      8  C   UNL     1     -16.370 -42.146  24.001  1.00  0.00     0.332 C 
ATOM      9  H   UNL     1     -16.553 -43.889  25.057  1.00  0.00     0.347 HD
ENDBRANCH   1   2
BRANCH   1  10
ATOM     10  C   UNL     1     -12.436 -45.778  28.319  1.00  0.00     0.001 C 
ATOM     11  C   UNL     1     -11.111 -46.485  28.170  1.00  0.00     0.075 C 
ATOM     12  C   UNL     1     -12.452 -45.086  29.648  1.00  0.00     0.189 C 
ATOM     13  C   UNL     1     -10.393 -46.167  29.446  1.00  0.00    -0.032 A 
ATOM     14  C   UNL     1     -11.165 -45.366  30.290  1.00  0.00     0.026 A 
ATOM     15  C   UNL     1      -9.126 -46.567  29.839  1.00  0.00     0.005 A 
ATOM     16  C   UNL     1     -10.722 -44.938  31.528  1.00  0.00     0.012 A 
ATOM     17  C   UNL     1      -8.656 -46.145  31.089  1.00  0.00     0.000 A 
ATOM     18  C   UNL     1      -9.446 -45.338  31.926  1.00  0.00     0.001 A 
ATOM     19  O   UNL     1     -13.360 -44.420  30.102  1.00  0.00    -0.289 OA
ENDBRANCH   1  10
TORSDOF 2
ENDMDL
MODEL 5
REMARK VINA RESULT:    -9.282      4.023      8.175
REMARK INTER + INTRA:         -10.773
REMARK INTER:                 -10.400
REMARK INTRA:                  -0.373
REMARK UNBOUND:                -0.406
REMARK SMILES C[N@H+]1CC[C@H](/C=C2\Cc3ccccc3C2=O)CC1
REMARK SMILES IDX 6 1 5 2 2 3 18 4 3 5 17 6 4 7 1 8 7 10 8 11 15 12 9 13 14 14
REMARK SMILES IDX 10 15 13 16 11 17 12 18 16 19
REMARK H PARENT 2 9
ROOT
ATOM      1  C   UNL     1     -16.047 -42.516  25.062  1.00  0.00    -0.015 C 
ENDROOT
BRANCH   1   2
ATOM      2  C   UNL     1     -17.416 -42.794  24.505  1.00  0.00     0.023 C 
ATOM      3  N   UNL     1     -20.038 -41.785  23.722  1.00  0.00    -0.337 N 
ATOM      4  C   UNL     1     -19.892 -42.607  24.979  1.00  0.00     0.262 C 
ATOM      5  C   UNL     1     -19.037 -42.178  22.664  1.00  0.00     0.262 C 
ATOM      6  C   UNL     1     -18.489 -42.431  25.539  1.00  0.00     0.069 C 
ATOM      7  C   UNL     1     -17.627 -42.000  23.209  1.00  0.00     0.069 C 
ATOM      8  C   UNL     1     -21.448 -41.822  23.194  1.00  0.00     0.332 C 
ATOM      9  H   UNL     1     -19.853 -40.804  23.972  1.00  0.00     0.347 HD
ENDBRANCH   1   2
BRANCH   1  10
ATOM     10  C   UNL     1     -15.296 -43.366  25.778  1.00  0.00     0.001 C 
ATOM     11  C   UNL     1     -14.345 -44.453  25.340  1.00  0.00     0.075 C 
ATOM     12  C   UNL     1     -15.316 -43.336  27.276  1.00  0.00     0.189 C 
ATOM     13  C   UNL     1     -13.837 -45.023  26.630  1.00  0.00    -0.032 A 
ATOM     14  C   UNL     1     -14.396 -44.379  27.736  1.00  0.00     0.026 A 
ATOM     15  C   UNL     1     -12.931 -46.054  26.814  1.00  0.00     0.005 A 
ATOM     16  C   UNL     1     -14.086 -44.724  29.039  1.00  0.00     0.012 A 
ATOM     17  C   UNL     1     -12.601 -46.421  28.125  1.00  0.00     0.000 A 
ATOM     18  C   UNL     1     -13.173 -45.762  29.227  1.00  0.00     0.001 A 
ATOM     19  O   UNL     1     -15.970 -42.586  27.972  1.00  0.00    -0.289 OA
ENDBRANCH   1  10
TORSDOF 2
ENDMDL
MODEL 6
REMARK VINA RESULT:    -8.990      2.235      3.371
REMARK INTER + INTRA:         -10.447
REMARK INTER:                 -10.086
REMARK INTRA:                  -0.361
REMARK UNBOUND:                -0.406
REMARK SMILES C[N@H+]1CC[C@H](/C=C2\Cc3ccccc3C2=O)CC1
REMARK SMILES IDX 6 1 5 2 2 3 18 4 3 5 17 6 4 7 1 8 7 10 8 11 15 12 9 13 14 14
REMARK SMILES IDX 10 15 13 16 11 17 12 18 16 19
REMARK H PARENT 2 9
ROOT
ATOM      1  C   UNL     1      -9.165 -44.428  29.964  1.00  0.00    -0.015 C 
ENDROOT
BRANCH   1   2
ATOM      2  C   UNL     1      -9.151 -44.198  31.451  1.00  0.00     0.023 C 
ATOM      3  N   UNL     1      -9.137 -42.317  33.680  1.00  0.00    -0.337 N 
ATOM      4  C   UNL     1      -7.886 -43.085  33.335  1.00  0.00     0.262 C 
ATOM      5  C   UNL     1     -10.390 -43.094  33.359  1.00  0.00     0.262 C 
ATOM      6  C   UNL     1      -7.890 -43.423  31.852  1.00  0.00     0.069 C 
ATOM      7  C   UNL     1     -10.411 -43.432  31.876  1.00  0.00     0.069 C 
ATOM      8  C   UNL     1      -9.126 -41.847  35.110  1.00  0.00     0.332 C 
ATOM      9  H   UNL     1      -9.146 -41.466  33.100  1.00  0.00     0.347 HD
ENDBRANCH   1   2
BRANCH   1  10
ATOM     10  C   UNL     1     -10.251 -44.455  29.177  1.00  0.00     0.001 C 
ATOM     11  C   UNL     1     -11.187 -45.585  28.824  1.00  0.00     0.075 C 
ATOM     12  C   UNL     1     -10.719 -43.219  28.471  1.00  0.00     0.189 C 
ATOM     13  C   UNL     1     -12.185 -44.946  27.906  1.00  0.00    -0.032 A 
ATOM     14  C   UNL     1     -11.912 -43.590  27.707  1.00  0.00     0.026 A 
ATOM     15  C   UNL     1     -13.273 -45.532  27.282  1.00  0.00     0.005 A 
ATOM     16  C   UNL     1     -12.691 -42.782  26.899  1.00  0.00     0.012 A 
ATOM     17  C   UNL     1     -14.076 -44.732  26.459  1.00  0.00     0.000 A 
ATOM     18  C   UNL     1     -13.787 -43.369  26.269  1.00  0.00     0.001 A 
ATOM     19  O   UNL     1     -10.204 -42.120  28.525  1.00  0.00    -0.289 OA
ENDBRANCH   1  10
TORSDOF 2
ENDMDL
MODEL 7
REMARK VINA RESULT:    -8.888      2.917      7.063
REMARK INTER + INTRA:         -10.333
REMARK INTER:                 -10.015
REMARK INTRA:                  -0.318
REMARK UNBOUND:                -0.406
REMARK SMILES C[N@H+]1CC[C@H](/C=C2\Cc3ccccc3C2=O)CC1
REMARK SMILES IDX 6 1 5 2 2 3 18 4 3 5 17 6 4 7 1 8 7 10 8 11 15 12 9 13 14 14
REMARK SMILES IDX 10 15 13 16 11 17 12 18 16 19
REMARK H PARENT 2 9
ROOT
ATOM      1  C   UNL     1     -12.985 -43.173  26.634  1.00  0.00    -0.015 C 
ENDROOT
BRANCH   1   2
ATOM      2  C   UNL     1     -14.329 -43.461  26.023  1.00  0.00     0.023 C 
ATOM      3  N   UNL     1     -16.663 -42.489  24.570  1.00  0.00    -0.337 N 
ATOM      4  C   UNL     1     -16.768 -42.796  26.043  1.00  0.00     0.262 C 
ATOM      5  C   UNL     1     -15.657 -43.372  23.873  1.00  0.00     0.262 C 
ATOM      6  C   UNL     1     -15.408 -42.606  26.699  1.00  0.00     0.069 C 
ATOM      7  C   UNL     1     -14.290 -43.186  24.514  1.00  0.00     0.069 C 
ATOM      8  C   UNL     1     -18.008 -42.540  23.894  1.00  0.00     0.332 C 
ATOM      9  H   UNL     1     -16.335 -41.517  24.480  1.00  0.00     0.347 HD
ENDBRANCH   1   2
BRANCH   1  10
ATOM     10  C   UNL     1     -12.439 -43.809  27.682  1.00  0.00     0.001 C 
ATOM     11  C   UNL     1     -12.815 -45.107  28.354  1.00  0.00     0.075 C 
ATOM     12  C   UNL     1     -11.251 -43.238  28.395  1.00  0.00     0.189 C 
ATOM     13  C   UNL     1     -11.806 -45.242  29.455  1.00  0.00    -0.032 A 
ATOM     14  C   UNL     1     -10.913 -44.169  29.474  1.00  0.00     0.026 A 
ATOM     15  C   UNL     1     -11.687 -46.258  30.388  1.00  0.00     0.005 A 
ATOM     16  C   UNL     1      -9.889 -44.064  30.398  1.00  0.00     0.012 A 
ATOM     17  C   UNL     1     -10.658 -46.173  31.333  1.00  0.00     0.000 A 
ATOM     18  C   UNL     1      -9.767 -45.086  31.339  1.00  0.00     0.001 A 
ATOM     19  O   UNL     1     -10.679 -42.201  28.125  1.00  0.00    -0.289 OA
ENDBRANCH   1  10
TORSDOF 2
ENDMDL
MODEL 8
REMARK VINA RESULT:    -8.735      2.615      6.724
REMARK INTER + INTRA:         -10.162
REMARK INTER:                  -9.808
REMARK INTRA:                  -0.354
REMARK UNBOUND:                -0.406
REMARK SMILES C[N@H+]1CC[C@H](/C=C2\Cc3ccccc3C2=O)CC1
REMARK SMILES IDX 6 1 5 2 2 3 18 4 3 5 17 6 4 7 1 8 7 10 8 11 15 12 9 13 14 14
REMARK SMILES IDX 10 15 13 16 11 17 12 18 16 19
REMARK H PARENT 2 9
ROOT
ATOM      1  C   UNL     1     -10.689 -45.657  29.848  1.00  0.00    -0.015 C 
ENDROOT
BRANCH   1   2
ATOM      2  C   UNL     1     -11.314 -45.185  28.564  1.00  0.00     0.023 C 
ATOM      3  N   UNL     1     -13.369 -43.603  27.228  1.00  0.00    -0.337 N 
ATOM      4  C   UNL     1     -13.473 -45.107  27.250  1.00  0.00     0.262 C 
ATOM      5  C   UNL     1     -11.936 -43.130  27.228  1.00  0.00     0.262 C 
ATOM      6  C   UNL     1     -12.775 -45.647  28.489  1.00  0.00     0.069 C 
ATOM      7  C   UNL     1     -11.228 -43.656  28.468  1.00  0.00     0.069 C 
ATOM      8  C   UNL     1     -14.150 -43.006  26.088  1.00  0.00     0.332 C 
ATOM      9  H   UNL     1     -13.809 -43.251  28.091  1.00  0.00     0.347 HD
ENDBRANCH   1   2
BRANCH   1  10
ATOM     10  C   UNL     1     -10.298 -44.880  30.870  1.00  0.00     0.001 C 
ATOM     11  C   UNL     1      -8.919 -44.490  31.342  1.00  0.00     0.075 C 
ATOM     12  C   UNL     1     -11.304 -44.233  31.772  1.00  0.00     0.189 C 
ATOM     13  C   UNL     1      -9.184 -43.610  32.526  1.00  0.00    -0.032 A 
ATOM     14  C   UNL     1     -10.552 -43.465  32.768  1.00  0.00     0.026 A 
ATOM     15  C   UNL     1      -8.266 -42.973  33.343  1.00  0.00     0.005 A 
ATOM     16  C   UNL     1     -11.051 -42.701  33.807  1.00  0.00     0.012 A 
ATOM     17  C   UNL     1      -8.748 -42.193  34.401  1.00  0.00     0.000 A 
ATOM     18  C   UNL     1     -10.129 -42.058  34.632  1.00  0.00     0.001 A 
ATOM     19  O   UNL     1     -12.512 -44.327  31.689  1.00  0.00    -0.289 OA
ENDBRANCH   1  10
TORSDOF 2
ENDMDL
MODEL 9
REMARK VINA RESULT:    -8.388      6.226     10.580
REMARK INTER + INTRA:          -9.775
REMARK INTER:                  -9.450
REMARK INTRA:                  -0.325
REMARK UNBOUND:                -0.406
REMARK SMILES C[N@H+]1CC[C@H](/C=C2\Cc3ccccc3C2=O)CC1
REMARK SMILES IDX 6 1 5 2 2 3 18 4 3 5 17 6 4 7 1 8 7 10 8 11 15 12 9 13 14 14
REMARK SMILES IDX 10 15 13 16 11 17 12 18 16 19
REMARK H PARENT 2 9
ROOT
ATOM      1  C   UNL     1     -19.608 -41.768  23.364  1.00  0.00    -0.015 C 
ENDROOT
BRANCH   1   2
ATOM      2  C   UNL     1     -19.803 -40.520  22.546  1.00  0.00     0.023 C 
ATOM      3  N   UNL     1     -21.188 -39.162  20.368  1.00  0.00    -0.337 N 
ATOM      4  C   UNL     1     -19.752 -39.590  20.195  1.00  0.00     0.262 C 
ATOM      5  C   UNL     1     -21.511 -38.812  21.799  1.00  0.00     0.262 C 
ATOM      6  C   UNL     1     -19.474 -40.800  21.074  1.00  0.00     0.069 C 
ATOM      7  C   UNL     1     -21.246 -40.018  22.689  1.00  0.00     0.069 C 
ATOM      8  C   UNL     1     -21.553 -38.045  19.427  1.00  0.00     0.332 C 
ATOM      9  H   UNL     1     -21.781 -39.962  20.104  1.00  0.00     0.347 HD
ENDBRANCH   1   2
BRANCH   1  10
ATOM     10  C   UNL     1     -18.452 -42.194  23.894  1.00  0.00     0.001 C 
ATOM     11  C   UNL     1     -17.221 -42.773  23.241  1.00  0.00     0.075 C 
ATOM     12  C   UNL     1     -18.218 -42.140  25.373  1.00  0.00     0.189 C 
ATOM     13  C   UNL     1     -16.299 -43.038  24.393  1.00  0.00    -0.032 A 
ATOM     14  C   UNL     1     -16.874 -42.674  25.612  1.00  0.00     0.026 A 
ATOM     15  C   UNL     1     -15.021 -43.572  24.362  1.00  0.00     0.005 A 
ATOM     16  C   UNL     1     -16.221 -42.822  26.821  1.00  0.00     0.012 A 
ATOM     17  C   UNL     1     -14.340 -43.731  25.576  1.00  0.00     0.000 A 
ATOM     18  C   UNL     1     -14.934 -43.359  26.794  1.00  0.00     0.001 A 
ATOM     19  O   UNL     1     -18.996 -41.731  26.210  1.00  0.00    -0.289 OA
ENDBRANCH   1  10
TORSDOF 2
ENDMDL
