MODEL 1
REMARK VINA RESULT:   -10.388      0.000      0.000
REMARK INTER + INTRA:         -19.349
REMARK INTER:                 -18.283
REMARK INTRA:                  -1.066
REMARK UNBOUND:                -1.066
REMARK SMILES C#CCN=c1[nH]c(NCCCC[C@H]2CC[N@@H+](Cc3ccccc3)CC2)c(C#N)cc1C#N
REMARK SMILES IDX 9 1 8 2 7 4 6 5 5 6 26 7 30 8 29 9 4 11 3 12 2 13 1 14 27 15
REMARK SMILES IDX 28 16 31 17 32 18 10 19 11 20 12 21 13 22 14 23 25 24 15 25
REMARK SMILES IDX 24 26 16 27 17 29 18 30 19 31 23 32 20 33 22 34 21 35
REMARK H PARENT 8 3 6 10 16 28
ROOT
ATOM      1  C   UNL     1     -11.471 -46.147  28.542  1.00  0.00     0.114 C 
ENDROOT
BRANCH   1   2
ATOM      2  N   UNL     1     -11.976 -46.160  29.917  1.00  0.00    -0.370 N 
ATOM      3  H   UNL     1     -12.991 -46.257  29.902  1.00  0.00     0.162 HD
BRANCH   2   4
ATOM      4  C   UNL     1     -11.621 -45.188  30.845  1.00  0.00     0.123 A 
ATOM      5  N   UNL     1     -12.566 -44.244  31.184  1.00  0.00    -0.325 N 
ATOM      6  C   UNL     1     -12.405 -43.206  32.080  1.00  0.00     0.145 A 
ATOM      7  C   UNL     1     -10.421 -45.125  31.485  1.00  0.00     0.094 A 
ATOM      8  C   UNL     1     -11.074 -43.114  32.787  1.00  0.00     0.096 A 
ATOM      9  C   UNL     1     -10.169 -44.059  32.458  1.00  0.00     0.046 A 
ATOM     10  H   UNL     1     -13.460 -44.262  30.712  1.00  0.00     0.170 HD
BRANCH   6  11
ATOM     11  N   UNL     1     -13.445 -42.450  32.179  1.00  0.00    -0.254 NA
BRANCH  11  12
ATOM     12  C   UNL     1     -14.611 -42.771  32.978  1.00  0.00     0.233 C 
BRANCH  12  13
ATOM     13  C   UNL     1     -14.610 -41.795  34.074  1.00  0.00    -0.083 C 
ATOM     14  C   UNL     1     -14.615 -40.999  34.974  1.00  0.00     0.006 C 
ENDBRANCH  12  13
ENDBRANCH  11  12
ENDBRANCH   6  11
BRANCH   7  15
ATOM     15  C   UNL     1      -9.388 -46.091  31.290  1.00  0.00     0.103 C 
ATOM     16  N   UNL     1      -8.549 -46.875  31.103  1.00  0.00    -0.192 NA
ENDBRANCH   7  15
BRANCH   8  17
ATOM     17  C   UNL     1     -10.751 -42.119  33.742  1.00  0.00     0.103 C 
ATOM     18  N   UNL     1     -10.520 -41.286  34.514  1.00  0.00    -0.192 NA
ENDBRANCH   8  17
ENDBRANCH   2   4
ENDBRANCH   1   2
BRANCH   1  19
ATOM     19  C   UNL     1     -12.625 -46.162  27.534  1.00  0.00     0.021 C 
BRANCH  19  20
ATOM     20  C   UNL     1     -13.506 -44.904  27.501  1.00  0.00     0.002 C 
BRANCH  20  21
ATOM     21  C   UNL     1     -14.175 -44.593  26.159  1.00  0.00     0.004 C 
BRANCH  21  22
ATOM     22  C   UNL     1     -14.288 -43.083  25.846  1.00  0.00    -0.000 C 
ATOM     23  C   UNL     1     -15.372 -42.404  26.697  1.00  0.00     0.065 C 
ATOM     24  C   UNL     1     -14.587 -42.829  24.362  1.00  0.00     0.065 C 
ATOM     25  C   UNL     1     -16.795 -42.779  26.288  1.00  0.00     0.262 C 
ATOM     26  C   UNL     1     -15.988 -43.269  23.964  1.00  0.00     0.262 C 
ATOM     27  N   UNL     1     -16.995 -42.528  24.812  1.00  0.00    -0.331 N 
ATOM     28  H   UNL     1     -16.856 -41.523  24.653  1.00  0.00     0.348 HD
BRANCH  27  29
ATOM     29  C   UNL     1     -18.408 -42.830  24.355  1.00  0.00     0.299 C 
BRANCH  29  30
ATOM     30  C   UNL     1     -19.021 -41.712  23.558  1.00  0.00     0.006 A 
ATOM     31  C   UNL     1     -18.344 -41.173  22.451  1.00  0.00     0.009 A 
ATOM     32  C   UNL     1     -20.267 -41.177  23.919  1.00  0.00     0.009 A 
ATOM     33  C   UNL     1     -18.902 -40.116  21.728  1.00  0.00     0.001 A 
ATOM     34  C   UNL     1     -20.821 -40.122  23.193  1.00  0.00     0.001 A 
ATOM     35  C   UNL     1     -20.136 -39.591  22.101  1.00  0.00     0.000 A 
ENDBRANCH  29  30
ENDBRANCH  27  29
ENDBRANCH  21  22
ENDBRANCH  20  21
ENDBRANCH  19  20
ENDBRANCH   1  19
TORSDOF 13
ENDMDL
MODEL 2
REMARK VINA RESULT:    -9.842      2.359     10.669
REMARK INTER + INTRA:         -18.388
REMARK INTER:                 -17.240
REMARK INTRA:                  -1.149
REMARK UNBOUND:                -1.066
REMARK SMILES C#CCN=c1[nH]c(NCCCC[C@H]2CC[N@@H+](Cc3ccccc3)CC2)c(C#N)cc1C#N
REMARK SMILES IDX 9 1 8 2 7 4 6 5 5 6 26 7 30 8 29 9 4 11 3 12 2 13 1 14 27 15
REMARK SMILES IDX 28 16 31 17 32 18 10 19 11 20 12 21 13 22 14 23 25 24 15 25
REMARK SMILES IDX 24 26 16 27 17 29 18 30 19 31 23 32 20 33 22 34 21 35
REMARK H PARENT 8 3 6 10 16 28
ROOT
ATOM      1  C   UNL     1     -15.126 -42.328  25.217  1.00  0.00     0.114 C 
ENDROOT
BRANCH   1   2
ATOM      2  N   UNL     1     -16.313 -43.151  25.463  1.00  0.00    -0.370 N 
ATOM      3  H   UNL     1     -16.473 -43.760  24.661  1.00  0.00     0.162 HD
BRANCH   2   4
ATOM      4  C   UNL     1     -17.523 -42.601  25.870  1.00  0.00     0.123 A 
ATOM      5  N   UNL     1     -18.441 -42.272  24.896  1.00  0.00    -0.325 N 
ATOM      6  C   UNL     1     -19.690 -41.719  25.099  1.00  0.00     0.145 A 
ATOM      7  C   UNL     1     -17.893 -42.406  27.165  1.00  0.00     0.094 A 
ATOM      8  C   UNL     1     -20.109 -41.484  26.530  1.00  0.00     0.096 A 
ATOM      9  C   UNL     1     -19.206 -41.832  27.470  1.00  0.00     0.046 A 
ATOM     10  H   UNL     1     -18.185 -42.394  23.925  1.00  0.00     0.170 HD
BRANCH   6  11
ATOM     11  N   UNL     1     -20.328 -41.479  24.004  1.00  0.00    -0.254 NA
BRANCH  11  12
ATOM     12  C   UNL     1     -19.697 -41.361  22.704  1.00  0.00     0.233 C 
BRANCH  12  13
ATOM     13  C   UNL     1     -20.157 -40.075  22.167  1.00  0.00    -0.083 C 
ATOM     14  C   UNL     1     -20.528 -39.023  21.721  1.00  0.00     0.006 C 
ENDBRANCH  12  13
ENDBRANCH  11  12
ENDBRANCH   6  11
BRANCH   7  15
ATOM     15  C   UNL     1     -17.071 -42.785  28.270  1.00  0.00     0.103 C 
ATOM     16  N   UNL     1     -16.393 -43.116  29.155  1.00  0.00    -0.192 NA
ENDBRANCH   7  15
BRANCH   8  17
ATOM     17  C   UNL     1     -21.359 -40.937  26.911  1.00  0.00     0.103 C 
ATOM     18  N   UNL     1     -22.377 -40.504  27.259  1.00  0.00    -0.192 NA
ENDBRANCH   8  17
ENDBRANCH   2   4
ENDBRANCH   1   2
BRANCH   1  19
ATOM     19  C   UNL     1     -13.936 -42.821  26.047  1.00  0.00     0.021 C 
BRANCH  19  20
ATOM     20  C   UNL     1     -13.962 -44.305  26.445  1.00  0.00     0.002 C 
BRANCH  20  21
ATOM     21  C   UNL     1     -13.712 -44.604  27.926  1.00  0.00     0.004 C 
BRANCH  21  22
ATOM     22  C   UNL     1     -12.719 -45.762  28.176  1.00  0.00    -0.000 C 
ATOM     23  C   UNL     1     -13.052 -46.529  29.466  1.00  0.00     0.065 C 
ATOM     24  C   UNL     1     -11.269 -45.265  28.252  1.00  0.00     0.065 C 
ATOM     25  C   UNL     1     -12.741 -45.746  30.740  1.00  0.00     0.262 C 
ATOM     26  C   UNL     1     -10.999 -44.435  29.498  1.00  0.00     0.262 C 
ATOM     27  N   UNL     1     -11.307 -45.269  30.719  1.00  0.00    -0.331 N 
ATOM     28  H   UNL     1     -10.710 -46.103  30.686  1.00  0.00     0.348 HD
BRANCH  27  29
ATOM     29  C   UNL     1     -10.920 -44.531  31.986  1.00  0.00     0.299 C 
BRANCH  29  30
ATOM     30  C   UNL     1      -9.432 -44.406  32.163  1.00  0.00     0.006 A 
ATOM     31  C   UNL     1      -8.577 -45.445  31.761  1.00  0.00     0.009 A 
ATOM     32  C   UNL     1      -8.877 -43.258  32.750  1.00  0.00     0.009 A 
ATOM     33  C   UNL     1      -7.198 -45.338  31.951  1.00  0.00     0.001 A 
ATOM     34  C   UNL     1      -7.498 -43.156  32.937  1.00  0.00     0.001 A 
ATOM     35  C   UNL     1      -6.661 -44.197  32.540  1.00  0.00     0.000 A 
ENDBRANCH  29  30
ENDBRANCH  27  29
ENDBRANCH  21  22
ENDBRANCH  20  21
ENDBRANCH  19  20
ENDBRANCH   1  19
TORSDOF 13
ENDMDL
MODEL 3
REMARK VINA RESULT:    -9.789      1.326      3.379
REMARK INTER + INTRA:         -18.294
REMARK INTER:                 -17.506
REMARK INTRA:                  -0.789
REMARK UNBOUND:                -1.066
REMARK SMILES C#CCN=c1[nH]c(NCCCC[C@H]2CC[N@@H+](Cc3ccccc3)CC2)c(C#N)cc1C#N
REMARK SMILES IDX 9 1 8 2 7 4 6 5 5 6 26 7 30 8 29 9 4 11 3 12 2 13 1 14 27 15
REMARK SMILES IDX 28 16 31 17 32 18 10 19 11 20 12 21 13 22 14 23 25 24 15 25
REMARK SMILES IDX 24 26 16 27 17 29 18 30 19 31 23 32 20 33 22 34 21 35
REMARK H PARENT 8 3 6 10 16 28
ROOT
ATOM      1  C   UNL     1     -11.799 -45.512  29.083  1.00  0.00     0.114 C 
ENDROOT
BRANCH   1   2
ATOM      2  N   UNL     1     -12.215 -44.314  29.816  1.00  0.00    -0.370 N 
ATOM      3  H   UNL     1     -12.349 -43.546  29.158  1.00  0.00     0.162 HD
BRANCH   2   4
ATOM      4  C   UNL     1     -11.525 -43.850  30.930  1.00  0.00     0.123 A 
ATOM      5  N   UNL     1     -10.148 -43.871  30.889  1.00  0.00    -0.325 N 
ATOM      6  C   UNL     1      -9.291 -43.456  31.889  1.00  0.00     0.145 A 
ATOM      7  C   UNL     1     -12.107 -43.329  32.044  1.00  0.00     0.094 A 
ATOM      8  C   UNL     1      -9.922 -42.888  33.138  1.00  0.00     0.096 A 
ATOM      9  C   UNL     1     -11.271 -42.856  33.150  1.00  0.00     0.046 A 
ATOM     10  H   UNL     1      -9.692 -44.267  30.078  1.00  0.00     0.170 HD
BRANCH   6  11
ATOM     11  N   UNL     1      -8.046 -43.621  31.598  1.00  0.00    -0.254 NA
BRANCH  11  12
ATOM     12  C   UNL     1      -7.254 -44.757  32.028  1.00  0.00     0.233 C 
BRANCH  12  13
ATOM     13  C   UNL     1      -7.961 -45.937  31.516  1.00  0.00    -0.083 C 
ATOM     14  C   UNL     1      -8.541 -46.899  31.090  1.00  0.00     0.006 C 
ENDBRANCH  12  13
ENDBRANCH  11  12
ENDBRANCH   6  11
BRANCH   7  15
ATOM     15  C   UNL     1     -13.520 -43.170  32.177  1.00  0.00     0.103 C 
ATOM     16  N   UNL     1     -14.672 -43.064  32.302  1.00  0.00    -0.192 NA
ENDBRANCH   7  15
BRANCH   8  17
ATOM     17  C   UNL     1      -9.188 -42.407  34.249  1.00  0.00     0.103 C 
ATOM     18  N   UNL     1      -8.580 -41.980  35.139  1.00  0.00    -0.192 NA
ENDBRANCH   8  17
ENDBRANCH   2   4
ENDBRANCH   1   2
BRANCH   1  19
ATOM     19  C   UNL     1     -12.744 -45.794  27.911  1.00  0.00     0.021 C 
BRANCH  19  20
ATOM     20  C   UNL     1     -13.824 -44.734  27.647  1.00  0.00     0.002 C 
BRANCH  20  21
ATOM     21  C   UNL     1     -14.156 -44.471  26.175  1.00  0.00     0.004 C 
BRANCH  21  22
ATOM     22  C   UNL     1     -14.294 -42.973  25.818  1.00  0.00    -0.000 C 
ATOM     23  C   UNL     1     -15.408 -42.294  26.631  1.00  0.00     0.065 C 
ATOM     24  C   UNL     1     -14.571 -42.766  24.323  1.00  0.00     0.065 C 
ATOM     25  C   UNL     1     -16.815 -42.711  26.207  1.00  0.00     0.262 C 
ATOM     26  C   UNL     1     -15.955 -43.248  23.912  1.00  0.00     0.262 C 
ATOM     27  N   UNL     1     -16.993 -42.505  24.721  1.00  0.00    -0.331 N 
ATOM     28  H   UNL     1     -16.872 -41.502  24.537  1.00  0.00     0.348 HD
BRANCH  27  29
ATOM     29  C   UNL     1     -18.391 -42.850  24.247  1.00  0.00     0.299 C 
BRANCH  29  30
ATOM     30  C   UNL     1     -19.062 -41.717  23.520  1.00  0.00     0.006 A 
ATOM     31  C   UNL     1     -18.473 -41.157  22.376  1.00  0.00     0.009 A 
ATOM     32  C   UNL     1     -20.277 -41.190  23.987  1.00  0.00     0.009 A 
ATOM     33  C   UNL     1     -19.083 -40.088  21.718  1.00  0.00     0.001 A 
ATOM     34  C   UNL     1     -20.884 -40.122  23.325  1.00  0.00     0.001 A 
ATOM     35  C   UNL     1     -20.285 -39.571  22.193  1.00  0.00     0.000 A 
ENDBRANCH  29  30
ENDBRANCH  27  29
ENDBRANCH  21  22
ENDBRANCH  20  21
ENDBRANCH  19  20
ENDBRANCH   1  19
TORSDOF 13
ENDMDL
MODEL 4
REMARK VINA RESULT:    -9.563      2.435     11.287
REMARK INTER + INTRA:         -17.896
REMARK INTER:                 -16.431
REMARK INTRA:                  -1.465
REMARK UNBOUND:                -1.066
REMARK SMILES C#CCN=c1[nH]c(NCCCC[C@H]2CC[N@@H+](Cc3ccccc3)CC2)c(C#N)cc1C#N
REMARK SMILES IDX 9 1 8 2 7 4 6 5 5 6 26 7 30 8 29 9 4 11 3 12 2 13 1 14 27 15
REMARK SMILES IDX 28 16 31 17 32 18 10 19 11 20 12 21 13 22 14 23 25 24 15 25
REMARK SMILES IDX 24 26 16 27 17 29 18 30 19 31 23 32 20 33 22 34 21 35
REMARK H PARENT 8 3 6 10 16 28
ROOT
ATOM      1  C   UNL     1     -15.518 -42.491  24.359  1.00  0.00     0.114 C 
ENDROOT
BRANCH   1   2
ATOM      2  N   UNL     1     -16.804 -43.133  24.638  1.00  0.00    -0.370 N 
ATOM      3  H   UNL     1     -16.866 -44.006  24.115  1.00  0.00     0.162 HD
BRANCH   2   4
ATOM      4  C   UNL     1     -18.011 -42.450  24.535  1.00  0.00     0.123 A 
ATOM      5  N   UNL     1     -18.496 -42.187  23.272  1.00  0.00    -0.325 N 
ATOM      6  C   UNL     1     -19.668 -41.524  22.965  1.00  0.00     0.145 A 
ATOM      7  C   UNL     1     -18.778 -42.061  25.590  1.00  0.00     0.094 A 
ATOM      8  C   UNL     1     -20.523 -41.074  24.125  1.00  0.00     0.096 A 
ATOM      9  C   UNL     1     -20.041 -41.360  25.353  1.00  0.00     0.046 A 
ATOM     10  H   UNL     1     -17.937 -42.453  22.472  1.00  0.00     0.170 HD
BRANCH   6  11
ATOM     11  N   UNL     1     -19.860 -41.385  21.697  1.00  0.00    -0.254 NA
BRANCH  11  12
ATOM     12  C   UNL     1     -19.286 -40.319  20.900  1.00  0.00     0.233 C 
BRANCH  12  13
ATOM     13  C   UNL     1     -20.379 -39.362  20.689  1.00  0.00    -0.083 C 
ATOM     14  C   UNL     1     -21.270 -38.577  20.510  1.00  0.00     0.006 C 
ENDBRANCH  12  13
ENDBRANCH  11  12
ENDBRANCH   6  11
BRANCH   7  15
ATOM     15  C   UNL     1     -18.433 -42.349  26.945  1.00  0.00     0.103 C 
ATOM     16  N   UNL     1     -18.163 -42.558  28.057  1.00  0.00    -0.192 NA
ENDBRANCH   7  15
BRANCH   8  17
ATOM     17  C   UNL     1     -21.757 -40.394  23.983  1.00  0.00     0.103 C 
ATOM     18  N   UNL     1     -22.757 -39.828  23.830  1.00  0.00    -0.192 NA
ENDBRANCH   8  17
ENDBRANCH   2   4
ENDBRANCH   1   2
BRANCH   1  19
ATOM     19  C   UNL     1     -14.415 -43.060  25.258  1.00  0.00     0.021 C 
BRANCH  19  20
ATOM     20  C   UNL     1     -14.685 -43.007  26.769  1.00  0.00     0.002 C 
BRANCH  20  21
ATOM     21  C   UNL     1     -14.365 -44.286  27.550  1.00  0.00     0.004 C 
BRANCH  21  22
ATOM     22  C   UNL     1     -12.949 -44.847  27.286  1.00  0.00    -0.000 C 
ATOM     23  C   UNL     1     -12.756 -46.231  27.927  1.00  0.00     0.065 C 
ATOM     24  C   UNL     1     -11.856 -43.902  27.803  1.00  0.00     0.065 C 
ATOM     25  C   UNL     1     -12.655 -46.191  29.451  1.00  0.00     0.262 C 
ATOM     26  C   UNL     1     -11.815 -43.830  29.323  1.00  0.00     0.262 C 
ATOM     27  N   UNL     1     -11.580 -45.217  29.874  1.00  0.00    -0.331 N 
ATOM     28  H   UNL     1     -10.692 -45.559  29.489  1.00  0.00     0.348 HD
BRANCH  27  29
ATOM     29  C   UNL     1     -11.392 -45.173  31.377  1.00  0.00     0.299 C 
BRANCH  29  30
ATOM     30  C   UNL     1      -9.998 -44.783  31.785  1.00  0.00     0.006 A 
ATOM     31  C   UNL     1      -9.775 -43.608  32.522  1.00  0.00     0.009 A 
ATOM     32  C   UNL     1      -8.899 -45.574  31.418  1.00  0.00     0.009 A 
ATOM     33  C   UNL     1      -8.478 -43.233  32.877  1.00  0.00     0.001 A 
ATOM     34  C   UNL     1      -7.604 -45.195  31.776  1.00  0.00     0.001 A 
ATOM     35  C   UNL     1      -7.395 -44.024  32.502  1.00  0.00     0.000 A 
ENDBRANCH  29  30
ENDBRANCH  27  29
ENDBRANCH  21  22
ENDBRANCH  20  21
ENDBRANCH  19  20
ENDBRANCH   1  19
TORSDOF 13
ENDMDL
MODEL 5
REMARK VINA RESULT:    -9.545      2.493     10.708
REMARK INTER + INTRA:         -17.865
REMARK INTER:                 -16.995
REMARK INTRA:                  -0.870
REMARK UNBOUND:                -1.066
REMARK SMILES C#CCN=c1[nH]c(NCCCC[C@H]2CC[N@@H+](Cc3ccccc3)CC2)c(C#N)cc1C#N
REMARK SMILES IDX 9 1 8 2 7 4 6 5 5 6 26 7 30 8 29 9 4 11 3 12 2 13 1 14 27 15
REMARK SMILES IDX 28 16 31 17 32 18 10 19 11 20 12 21 13 22 14 23 25 24 15 25
REMARK SMILES IDX 24 26 16 27 17 29 18 30 19 31 23 32 20 33 22 34 21 35
REMARK H PARENT 8 3 6 10 16 28
ROOT
ATOM      1  C   UNL     1     -14.830 -42.169  24.378  1.00  0.00     0.114 C 
ENDROOT
BRANCH   1   2
ATOM      2  N   UNL     1     -15.926 -43.050  23.968  1.00  0.00    -0.370 N 
ATOM      3  H   UNL     1     -15.661 -43.543  23.115  1.00  0.00     0.162 HD
BRANCH   2   4
ATOM      4  C   UNL     1     -17.235 -42.597  23.848  1.00  0.00     0.123 A 
ATOM      5  N   UNL     1     -18.166 -43.077  24.744  1.00  0.00    -0.325 N 
ATOM      6  C   UNL     1     -19.507 -42.749  24.787  1.00  0.00     0.145 A 
ATOM      7  C   UNL     1     -17.660 -41.676  22.942  1.00  0.00     0.094 A 
ATOM      8  C   UNL     1     -19.997 -41.739  23.778  1.00  0.00     0.096 A 
ATOM      9  C   UNL     1     -19.066 -41.265  22.924  1.00  0.00     0.046 A 
ATOM     10  H   UNL     1     -17.878 -43.773  25.418  1.00  0.00     0.170 HD
BRANCH   6  11
ATOM     11  N   UNL     1     -20.157 -43.374  25.709  1.00  0.00    -0.254 NA
BRANCH  11  12
ATOM     12  C   UNL     1     -20.433 -42.827  27.023  1.00  0.00     0.233 C 
BRANCH  12  13
ATOM     13  C   UNL     1     -19.118 -42.617  27.638  1.00  0.00    -0.083 C 
ATOM     14  C   UNL     1     -18.037 -42.448  28.135  1.00  0.00     0.006 C 
ENDBRANCH  12  13
ENDBRANCH  11  12
ENDBRANCH   6  11
BRANCH   7  15
ATOM     15  C   UNL     1     -16.780 -41.037  22.016  1.00  0.00     0.103 C 
ATOM     16  N   UNL     1     -16.045 -40.510  21.285  1.00  0.00    -0.192 NA
ENDBRANCH   7  15
BRANCH   8  17
ATOM     17  C   UNL     1     -21.336 -41.286  23.695  1.00  0.00     0.103 C 
ATOM     18  N   UNL     1     -22.439 -40.930  23.664  1.00  0.00    -0.192 NA
ENDBRANCH   8  17
ENDBRANCH   2   4
ENDBRANCH   1   2
BRANCH   1  19
ATOM     19  C   UNL     1     -14.339 -42.523  25.785  1.00  0.00     0.021 C 
BRANCH  19  20
ATOM     20  C   UNL     1     -14.956 -43.779  26.417  1.00  0.00     0.002 C 
BRANCH  20  21
ATOM     21  C   UNL     1     -14.237 -44.328  27.652  1.00  0.00     0.004 C 
BRANCH  21  22
ATOM     22  C   UNL     1     -12.815 -44.864  27.367  1.00  0.00    -0.000 C 
ATOM     23  C   UNL     1     -12.606 -46.268  27.957  1.00  0.00     0.065 C 
ATOM     24  C   UNL     1     -11.731 -43.926  27.917  1.00  0.00     0.065 C 
ATOM     25  C   UNL     1     -12.502 -46.282  29.481  1.00  0.00     0.262 C 
ATOM     26  C   UNL     1     -11.689 -43.909  29.438  1.00  0.00     0.262 C 
ATOM     27  N   UNL     1     -11.438 -45.312  29.938  1.00  0.00    -0.331 N 
ATOM     28  H   UNL     1     -10.546 -45.630  29.540  1.00  0.00     0.348 HD
BRANCH  27  29
ATOM     29  C   UNL     1     -11.248 -45.322  31.442  1.00  0.00     0.299 C 
BRANCH  29  30
ATOM     30  C   UNL     1      -9.899 -44.811  31.868  1.00  0.00     0.006 A 
ATOM     31  C   UNL     1      -9.787 -43.609  32.586  1.00  0.00     0.009 A 
ATOM     32  C   UNL     1      -8.732 -45.517  31.538  1.00  0.00     0.009 A 
ATOM     33  C   UNL     1      -8.532 -43.123  32.957  1.00  0.00     0.001 A 
ATOM     34  C   UNL     1      -7.480 -45.027  31.913  1.00  0.00     0.001 A 
ATOM     35  C   UNL     1      -7.381 -43.830  32.619  1.00  0.00     0.000 A 
ENDBRANCH  29  30
ENDBRANCH  27  29
ENDBRANCH  21  22
ENDBRANCH  20  21
ENDBRANCH  19  20
ENDBRANCH   1  19
TORSDOF 13
ENDMDL
MODEL 6
REMARK VINA RESULT:    -9.509      2.677     11.482
REMARK INTER + INTRA:         -17.802
REMARK INTER:                 -16.591
REMARK INTRA:                  -1.211
REMARK UNBOUND:                -1.066
REMARK SMILES C#CCN=c1[nH]c(NCCCC[C@H]2CC[N@@H+](Cc3ccccc3)CC2)c(C#N)cc1C#N
REMARK SMILES IDX 9 1 8 2 7 4 6 5 5 6 26 7 30 8 29 9 4 11 3 12 2 13 1 14 27 15
REMARK SMILES IDX 28 16 31 17 32 18 10 19 11 20 12 21 13 22 14 23 25 24 15 25
REMARK SMILES IDX 24 26 16 27 17 29 18 30 19 31 23 32 20 33 22 34 21 35
REMARK H PARENT 8 3 6 10 16 28
ROOT
ATOM      1  C   UNL     1     -17.762 -42.356  26.608  1.00  0.00     0.114 C 
ENDROOT
BRANCH   1   2
ATOM      2  N   UNL     1     -17.505 -42.920  25.280  1.00  0.00    -0.370 N 
ATOM      3  H   UNL     1     -16.525 -43.193  25.215  1.00  0.00     0.162 HD
BRANCH   2   4
ATOM      4  C   UNL     1     -17.878 -42.265  24.112  1.00  0.00     0.123 A 
ATOM      5  N   UNL     1     -19.225 -42.126  23.854  1.00  0.00    -0.325 N 
ATOM      6  C   UNL     1     -19.790 -41.511  22.755  1.00  0.00     0.145 A 
ATOM      7  C   UNL     1     -17.013 -41.704  23.224  1.00  0.00     0.094 A 
ATOM      8  C   UNL     1     -18.843 -40.897  21.752  1.00  0.00     0.096 A 
ATOM      9  C   UNL     1     -17.529 -41.025  22.034  1.00  0.00     0.046 A 
ATOM     10  H   UNL     1     -19.888 -42.546  24.492  1.00  0.00     0.170 HD
BRANCH   6  11
ATOM     11  N   UNL     1     -21.079 -41.556  22.749  1.00  0.00    -0.254 NA
BRANCH  11  12
ATOM     12  C   UNL     1     -21.849 -42.762  22.514  1.00  0.00     0.233 C 
BRANCH  12  13
ATOM     13  C   UNL     1     -21.536 -43.158  21.136  1.00  0.00    -0.083 C 
ATOM     14  C   UNL     1     -21.273 -43.488  20.011  1.00  0.00     0.006 C 
ENDBRANCH  12  13
ENDBRANCH  11  12
ENDBRANCH   6  11
BRANCH   7  15
ATOM     15  C   UNL     1     -15.599 -41.702  23.418  1.00  0.00     0.103 C 
ATOM     16  N   UNL     1     -14.450 -41.711  23.603  1.00  0.00    -0.192 NA
ENDBRANCH   7  15
BRANCH   8  17
ATOM     17  C   UNL     1     -19.258 -40.221  20.579  1.00  0.00     0.103 C 
ATOM     18  N   UNL     1     -19.627 -39.695  19.614  1.00  0.00    -0.192 NA
ENDBRANCH   8  17
ENDBRANCH   2   4
ENDBRANCH   1   2
BRANCH   1  19
ATOM     19  C   UNL     1     -16.640 -42.720  27.585  1.00  0.00     0.021 C 
BRANCH  19  20
ATOM     20  C   UNL     1     -15.354 -43.277  26.956  1.00  0.00     0.002 C 
BRANCH  20  21
ATOM     21  C   UNL     1     -14.560 -44.262  27.819  1.00  0.00     0.004 C 
BRANCH  21  22
ATOM     22  C   UNL     1     -13.142 -44.566  27.285  1.00  0.00    -0.000 C 
ATOM     23  C   UNL     1     -12.777 -46.051  27.449  1.00  0.00     0.065 C 
ATOM     24  C   UNL     1     -12.074 -43.711  27.982  1.00  0.00     0.065 C 
ATOM     25  C   UNL     1     -12.517 -46.460  28.898  1.00  0.00     0.262 C 
ATOM     26  C   UNL     1     -11.877 -44.095  29.441  1.00  0.00     0.262 C 
ATOM     27  N   UNL     1     -11.480 -45.551  29.516  1.00  0.00    -0.331 N 
ATOM     28  H   UNL     1     -10.615 -45.666  28.976  1.00  0.00     0.348 HD
BRANCH  27  29
ATOM     29  C   UNL     1     -11.136 -45.942  30.939  1.00  0.00     0.299 C 
BRANCH  29  30
ATOM     30  C   UNL     1      -9.813 -45.395  31.397  1.00  0.00     0.006 A 
ATOM     31  C   UNL     1      -8.622 -46.086  31.122  1.00  0.00     0.009 A 
ATOM     32  C   UNL     1      -9.749 -44.195  32.124  1.00  0.00     0.009 A 
ATOM     33  C   UNL     1      -7.397 -45.590  31.571  1.00  0.00     0.001 A 
ATOM     34  C   UNL     1      -8.522 -43.703  32.570  1.00  0.00     0.001 A 
ATOM     35  C   UNL     1      -7.348 -44.402  32.296  1.00  0.00     0.000 A 
ENDBRANCH  29  30
ENDBRANCH  27  29
ENDBRANCH  21  22
ENDBRANCH  20  21
ENDBRANCH  19  20
ENDBRANCH   1  19
TORSDOF 13
ENDMDL
MODEL 7
REMARK VINA RESULT:    -9.370      2.689      4.339
REMARK INTER + INTRA:         -17.558
REMARK INTER:                 -16.549
REMARK INTRA:                  -1.009
REMARK UNBOUND:                -1.066
REMARK SMILES C#CCN=c1[nH]c(NCCCC[C@H]2CC[N@@H+](Cc3ccccc3)CC2)c(C#N)cc1C#N
REMARK SMILES IDX 9 1 8 2 7 4 6 5 5 6 26 7 30 8 29 9 4 11 3 12 2 13 1 14 27 15
REMARK SMILES IDX 28 16 31 17 32 18 10 19 11 20 12 21 13 22 14 23 25 24 15 25
REMARK SMILES IDX 24 26 16 27 17 29 18 30 19 31 23 32 20 33 22 34 21 35
REMARK H PARENT 8 3 6 10 16 28
ROOT
ATOM      1  C   UNL     1     -13.729 -45.001  27.284  1.00  0.00     0.114 C 
ENDROOT
BRANCH   1   2
ATOM      2  N   UNL     1     -13.576 -44.425  28.622  1.00  0.00    -0.370 N 
ATOM      3  H   UNL     1     -14.105 -43.555  28.676  1.00  0.00     0.162 HD
BRANCH   2   4
ATOM      4  C   UNL     1     -12.331 -44.243  29.212  1.00  0.00     0.123 A 
ATOM      5  N   UNL     1     -11.477 -43.324  28.644  1.00  0.00    -0.325 N 
ATOM      6  C   UNL     1     -10.207 -43.004  29.081  1.00  0.00     0.145 A 
ATOM      7  C   UNL     1     -11.907 -44.871  30.343  1.00  0.00     0.094 A 
ATOM      8  C   UNL     1      -9.716 -43.704  30.326  1.00  0.00     0.096 A 
ATOM      9  C   UNL     1     -10.575 -44.584  30.880  1.00  0.00     0.046 A 
ATOM     10  H   UNL     1     -11.763 -42.854  27.795  1.00  0.00     0.170 HD
BRANCH   6  11
ATOM     11  N   UNL     1      -9.613 -42.133  28.339  1.00  0.00    -0.254 NA
BRANCH  11  12
ATOM     12  C   UNL     1      -9.285 -42.343  26.942  1.00  0.00     0.233 C 
BRANCH  12  13
ATOM     13  C   UNL     1      -8.077 -41.544  26.704  1.00  0.00    -0.083 C 
ATOM     14  C   UNL     1      -7.085 -40.893  26.517  1.00  0.00     0.006 C 
ENDBRANCH  12  13
ENDBRANCH  11  12
ENDBRANCH   6  11
BRANCH   7  15
ATOM     15  C   UNL     1     -12.728 -45.781  31.077  1.00  0.00     0.103 C 
ATOM     16  N   UNL     1     -13.411 -46.499  31.685  1.00  0.00    -0.192 NA
ENDBRANCH   7  15
BRANCH   8  17
ATOM     17  C   UNL     1      -8.446 -43.482  30.912  1.00  0.00     0.103 C 
ATOM     18  N   UNL     1      -7.399 -43.272  31.364  1.00  0.00    -0.192 NA
ENDBRANCH   8  17
ENDBRANCH   2   4
ENDBRANCH   1   2
BRANCH   1  19
ATOM     19  C   UNL     1     -14.268 -43.961  26.296  1.00  0.00     0.021 C 
BRANCH  19  20
ATOM     20  C   UNL     1     -15.471 -43.136  26.778  1.00  0.00     0.002 C 
BRANCH  20  21
ATOM     21  C   UNL     1     -16.232 -42.369  25.693  1.00  0.00     0.004 C 
BRANCH  21  22
ATOM     22  C   UNL     1     -16.840 -43.270  24.593  1.00  0.00    -0.000 C 
ATOM     23  C   UNL     1     -16.134 -43.074  23.242  1.00  0.00     0.065 C 
ATOM     24  C   UNL     1     -18.343 -43.014  24.412  1.00  0.00     0.065 C 
ATOM     25  C   UNL     1     -16.450 -41.737  22.575  1.00  0.00     0.262 C 
ATOM     26  C   UNL     1     -18.635 -41.650  23.805  1.00  0.00     0.262 C 
ATOM     27  N   UNL     1     -17.945 -41.552  22.464  1.00  0.00    -0.331 N 
ATOM     28  H   UNL     1     -18.302 -42.312  21.874  1.00  0.00     0.348 HD
BRANCH  27  29
ATOM     29  C   UNL     1     -18.323 -40.265  21.758  1.00  0.00     0.299 C 
BRANCH  29  30
ATOM     30  C   UNL     1     -19.798 -40.151  21.489  1.00  0.00     0.006 A 
ATOM     31  C   UNL     1     -20.445 -41.086  20.665  1.00  0.00     0.009 A 
ATOM     32  C   UNL     1     -20.545 -39.099  22.041  1.00  0.00     0.009 A 
ATOM     33  C   UNL     1     -21.809 -40.963  20.394  1.00  0.00     0.001 A 
ATOM     34  C   UNL     1     -21.909 -38.982  21.768  1.00  0.00     0.001 A 
ATOM     35  C   UNL     1     -22.538 -39.912  20.943  1.00  0.00     0.000 A 
ENDBRANCH  29  30
ENDBRANCH  27  29
ENDBRANCH  21  22
ENDBRANCH  20  21
ENDBRANCH  19  20
ENDBRANCH   1  19
TORSDOF 13
ENDMDL
MODEL 8
REMARK VINA RESULT:    -9.255      1.340      3.515
REMARK INTER + INTRA:         -17.354
REMARK INTER:                 -16.159
REMARK INTRA:                  -1.195
REMARK UNBOUND:                -1.066
REMARK SMILES C#CCN=c1[nH]c(NCCCC[C@H]2CC[N@@H+](Cc3ccccc3)CC2)c(C#N)cc1C#N
REMARK SMILES IDX 9 1 8 2 7 4 6 5 5 6 26 7 30 8 29 9 4 11 3 12 2 13 1 14 27 15
REMARK SMILES IDX 28 16 31 17 32 18 10 19 11 20 12 21 13 22 14 23 25 24 15 25
REMARK SMILES IDX 24 26 16 27 17 29 18 30 19 31 23 32 20 33 22 34 21 35
REMARK H PARENT 8 3 6 10 16 28
ROOT
ATOM      1  C   UNL     1     -14.187 -44.315  29.553  1.00  0.00     0.114 C 
ENDROOT
BRANCH   1   2
ATOM      2  N   UNL     1     -14.038 -44.647  30.972  1.00  0.00    -0.370 N 
ATOM      3  H   UNL     1     -14.951 -44.613  31.424  1.00  0.00     0.162 HD
BRANCH   2   4
ATOM      4  C   UNL     1     -13.100 -44.020  31.785  1.00  0.00     0.123 A 
ATOM      5  N   UNL     1     -11.791 -44.445  31.704  1.00  0.00    -0.325 N 
ATOM      6  C   UNL     1     -10.723 -43.951  32.425  1.00  0.00     0.145 A 
ATOM      7  C   UNL     1     -13.367 -42.981  32.623  1.00  0.00     0.094 A 
ATOM      8  C   UNL     1     -11.006 -42.807  33.370  1.00  0.00     0.096 A 
ATOM      9  C   UNL     1     -12.288 -42.392  33.419  1.00  0.00     0.046 A 
ATOM     10  H   UNL     1     -11.570 -45.224  31.099  1.00  0.00     0.170 HD
BRANCH   6  11
ATOM     11  N   UNL     1      -9.612 -44.558  32.177  1.00  0.00    -0.254 NA
BRANCH  11  12
ATOM     12  C   UNL     1      -8.586 -44.045  31.290  1.00  0.00     0.233 C 
BRANCH  12  13
ATOM     13  C   UNL     1      -7.479 -43.648  32.169  1.00  0.00    -0.083 C 
ATOM     14  C   UNL     1      -6.578 -43.317  32.891  1.00  0.00     0.006 C 
ENDBRANCH  12  13
ENDBRANCH  11  12
ENDBRANCH   6  11
BRANCH   7  15
ATOM     15  C   UNL     1     -14.662 -42.391  32.735  1.00  0.00     0.103 C 
ATOM     16  N   UNL     1     -15.722 -41.927  32.849  1.00  0.00    -0.192 NA
ENDBRANCH   7  15
BRANCH   8  17
ATOM     17  C   UNL     1     -10.022 -42.180  34.172  1.00  0.00     0.103 C 
ATOM     18  N   UNL     1      -9.188 -41.688  34.811  1.00  0.00    -0.192 NA
ENDBRANCH   8  17
ENDBRANCH   2   4
ENDBRANCH   1   2
BRANCH   1  19
ATOM     19  C   UNL     1     -13.606 -45.421  28.667  1.00  0.00     0.021 C 
BRANCH  19  20
ATOM     20  C   UNL     1     -13.081 -44.977  27.293  1.00  0.00     0.002 C 
BRANCH  20  21
ATOM     21  C   UNL     1     -14.149 -44.641  26.248  1.00  0.00     0.004 C 
BRANCH  21  22
ATOM     22  C   UNL     1     -14.242 -43.136  25.903  1.00  0.00    -0.000 C 
ATOM     23  C   UNL     1     -15.324 -42.428  26.734  1.00  0.00     0.065 C 
ATOM     24  C   UNL     1     -14.528 -42.909  24.413  1.00  0.00     0.065 C 
ATOM     25  C   UNL     1     -16.749 -42.795  26.323  1.00  0.00     0.262 C 
ATOM     26  C   UNL     1     -15.932 -43.341  24.014  1.00  0.00     0.262 C 
ATOM     27  N   UNL     1     -16.935 -42.572  24.840  1.00  0.00    -0.331 N 
ATOM     28  H   UNL     1     -16.785 -41.572  24.662  1.00  0.00     0.348 HD
BRANCH  27  29
ATOM     29  C   UNL     1     -18.349 -42.867  24.380  1.00  0.00     0.299 C 
BRANCH  29  30
ATOM     30  C   UNL     1     -18.976 -41.722  23.633  1.00  0.00     0.006 A 
ATOM     31  C   UNL     1     -20.221 -41.208  24.031  1.00  0.00     0.009 A 
ATOM     32  C   UNL     1     -18.336 -41.163  22.515  1.00  0.00     0.009 A 
ATOM     33  C   UNL     1     -20.814 -40.164  23.319  1.00  0.00     0.001 A 
ATOM     34  C   UNL     1     -18.933 -40.119  21.808  1.00  0.00     0.001 A 
ATOM     35  C   UNL     1     -20.172 -39.622  22.209  1.00  0.00     0.000 A 
ENDBRANCH  29  30
ENDBRANCH  27  29
ENDBRANCH  21  22
ENDBRANCH  20  21
ENDBRANCH  19  20
ENDBRANCH   1  19
TORSDOF 13
ENDMDL
MODEL 9
REMARK VINA RESULT:    -8.954      2.621     11.754
REMARK INTER + INTRA:         -16.825
REMARK INTER:                 -15.395
REMARK INTRA:                  -1.430
REMARK UNBOUND:                -1.066
REMARK SMILES C#CCN=c1[nH]c(NCCCC[C@H]2CC[N@@H+](Cc3ccccc3)CC2)c(C#N)cc1C#N
REMARK SMILES IDX 9 1 8 2 7 4 6 5 5 6 26 7 30 8 29 9 4 11 3 12 2 13 1 14 27 15
REMARK SMILES IDX 28 16 31 17 32 18 10 19 11 20 12 21 13 22 14 23 25 24 15 25
REMARK SMILES IDX 24 26 16 27 17 29 18 30 19 31 23 32 20 33 22 34 21 35
REMARK H PARENT 8 3 6 10 16 28
ROOT
ATOM      1  C   UNL     1     -16.256 -41.596  22.587  1.00  0.00     0.114 C 
ENDROOT
BRANCH   1   2
ATOM      2  N   UNL     1     -17.562 -42.241  22.434  1.00  0.00    -0.370 N 
ATOM      3  H   UNL     1     -17.563 -42.802  21.582  1.00  0.00     0.162 HD
BRANCH   2   4
ATOM      4  C   UNL     1     -18.754 -41.530  22.517  1.00  0.00     0.123 A 
ATOM      5  N   UNL     1     -19.299 -41.049  21.346  1.00  0.00    -0.325 N 
ATOM      6  C   UNL     1     -20.468 -40.325  21.223  1.00  0.00     0.145 A 
ATOM      7  C   UNL     1     -19.452 -41.313  23.665  1.00  0.00     0.094 A 
ATOM      8  C   UNL     1     -21.247 -40.063  22.490  1.00  0.00     0.096 A 
ATOM      9  C   UNL     1     -20.707 -40.561  23.622  1.00  0.00     0.046 A 
ATOM     10  H   UNL     1     -18.793 -41.185  20.482  1.00  0.00     0.170 HD
BRANCH   6  11
ATOM     11  N   UNL     1     -20.726 -39.970  20.011  1.00  0.00    -0.254 NA
BRANCH  11  12
ATOM     12  C   UNL     1     -20.297 -38.716  19.422  1.00  0.00     0.233 C 
BRANCH  12  13
ATOM     13  C   UNL     1     -21.514 -37.904  19.313  1.00  0.00    -0.083 C 
ATOM     14  C   UNL     1     -22.510 -37.237  19.232  1.00  0.00     0.006 C 
ENDBRANCH  12  13
ENDBRANCH  11  12
ENDBRANCH   6  11
BRANCH   7  15
ATOM     15  C   UNL     1     -19.041 -41.832  24.930  1.00  0.00     0.103 C 
ATOM     16  N   UNL     1     -18.733 -42.267  25.963  1.00  0.00    -0.192 NA
ENDBRANCH   7  15
BRANCH   8  17
ATOM     17  C   UNL     1     -22.469 -39.349  22.537  1.00  0.00     0.103 C 
ATOM     18  N   UNL     1     -23.467 -38.759  22.535  1.00  0.00    -0.192 NA
ENDBRANCH   8  17
ENDBRANCH   2   4
ENDBRANCH   1   2
BRANCH   1  19
ATOM     19  C   UNL     1     -15.553 -42.075  23.861  1.00  0.00     0.021 C 
BRANCH  19  20
ATOM     20  C   UNL     1     -15.409 -43.596  24.018  1.00  0.00     0.002 C 
BRANCH  20  21
ATOM     21  C   UNL     1     -14.535 -44.067  25.184  1.00  0.00     0.004 C 
BRANCH  21  22
ATOM     22  C   UNL     1     -14.241 -42.971  26.234  1.00  0.00    -0.000 C 
ATOM     23  C   UNL     1     -12.801 -43.062  26.765  1.00  0.00     0.065 C 
ATOM     24  C   UNL     1     -15.214 -43.042  27.420  1.00  0.00     0.065 C 
ATOM     25  C   UNL     1     -12.561 -44.260  27.682  1.00  0.00     0.262 C 
ATOM     26  C   UNL     1     -14.997 -44.276  28.283  1.00  0.00     0.262 C 
ATOM     27  N   UNL     1     -13.577 -44.270  28.800  1.00  0.00    -0.331 N 
ATOM     28  H   UNL     1     -13.445 -43.406  29.338  1.00  0.00     0.348 HD
BRANCH  27  29
ATOM     29  C   UNL     1     -13.356 -45.406  29.778  1.00  0.00     0.299 C 
BRANCH  29  30
ATOM     30  C   UNL     1     -12.072 -45.278  30.549  1.00  0.00     0.006 A 
ATOM     31  C   UNL     1     -11.869 -44.196  31.420  1.00  0.00     0.009 A 
ATOM     32  C   UNL     1     -11.048 -46.227  30.393  1.00  0.00     0.009 A 
ATOM     33  C   UNL     1     -10.665 -44.064  32.115  1.00  0.00     0.001 A 
ATOM     34  C   UNL     1      -9.847 -46.090  31.090  1.00  0.00     0.001 A 
ATOM     35  C   UNL     1      -9.656 -45.008  31.947  1.00  0.00     0.000 A 
ENDBRANCH  29  30
ENDBRANCH  27  29
ENDBRANCH  21  22
ENDBRANCH  20  21
ENDBRANCH  19  20
ENDBRANCH   1  19
TORSDOF 13
ENDMDL
