MODEL 1
REMARK VINA RESULT:   -12.698      0.000      0.000
REMARK INTER + INTRA:         -17.634
REMARK INTER:                 -17.152
REMARK INTRA:                  -0.482
REMARK UNBOUND:                -0.482
REMARK SMILES O=C1C(=NCCNc2c3c(nc4cc(Cl)ccc24)CCCC3)C=C(O)c2c(O)cccc21
REMARK SMILES IDX 5 1 4 2 3 3 24 4 23 5 26 6 27 7 32 8 2 9 29 10 31 11 30 12
REMARK SMILES IDX 1 13 25 14 28 16 6 18 7 19 8 21 9 22 18 23 10 24 22 25 17 26
REMARK SMILES IDX 12 27 11 28 19 29 21 30 16 31 13 32 20 33 14 34 15 35
REMARK H PARENT 25 15 28 17 7 20
ROOT
ATOM      1  C   UNL     1     -12.533 -44.706  28.036  1.00  0.00     0.164 C 
ENDROOT
BRANCH   1   2
ATOM      2  N   UNL     1     -13.194 -43.447  27.683  1.00  0.00    -0.279 NA
BRANCH   2   3
ATOM      3  C   UNL     1     -14.267 -43.481  26.959  1.00  0.00     0.109 C 
ATOM      4  C   UNL     1     -15.118 -43.729  24.667  1.00  0.00     0.129 C 
ATOM      5  C   UNL     1     -14.126 -43.902  25.547  1.00  0.00     0.079 C 
ATOM      6  C   UNL     1     -16.410 -43.111  25.034  1.00  0.00     0.069 A 
ATOM      7  C   UNL     1     -17.415 -42.804  24.099  1.00  0.00     0.127 A 
ATOM      8  C   UNL     1     -16.682 -42.813  26.379  1.00  0.00     0.039 A 
ATOM      9  C   UNL     1     -15.679 -43.125  27.417  1.00  0.00     0.211 C 
ATOM     10  C   UNL     1     -18.627 -42.226  24.482  1.00  0.00     0.047 A 
ATOM     11  C   UNL     1     -17.902 -42.241  26.774  1.00  0.00     0.013 A 
ATOM     12  C   UNL     1     -18.873 -41.944  25.822  1.00  0.00     0.005 A 
ATOM     13  O   UNL     1     -15.984 -43.129  28.601  1.00  0.00    -0.287 OA
BRANCH   4  14
ATOM     14  O   UNL     1     -14.979 -44.100  23.341  1.00  0.00    -0.507 OA
ATOM     15  H   UNL     1     -14.200 -43.646  22.967  1.00  0.00     0.293 HD
ENDBRANCH   4  14
BRANCH   7  16
ATOM     16  O   UNL     1     -17.280 -43.047  22.756  1.00  0.00    -0.507 OA
ATOM     17  H   UNL     1     -16.550 -42.480  22.435  1.00  0.00     0.293 HD
ENDBRANCH   7  16
ENDBRANCH   2   3
ENDBRANCH   1   2
BRANCH   1  18
ATOM     18  C   UNL     1     -13.354 -45.433  29.113  1.00  0.00     0.136 C 
BRANCH  18  19
ATOM     19  N   UNL     1     -12.505 -46.096  30.122  1.00  0.00    -0.382 N 
ATOM     20  H   UNL     1     -13.027 -46.804  30.630  1.00  0.00     0.160 HD
BRANCH  19  21
ATOM     21  C   UNL     1     -11.823 -45.209  30.991  1.00  0.00     0.049 A 
ATOM     22  C   UNL     1     -10.421 -45.169  30.969  1.00  0.00    -0.003 A 
ATOM     23  C   UNL     1     -12.525 -44.302  31.841  1.00  0.00     0.024 A 
ATOM     24  C   UNL     1      -9.773 -44.223  31.761  1.00  0.00     0.046 A 
ATOM     25  C   UNL     1      -9.557 -46.081  30.136  1.00  0.00     0.039 C 
ATOM     26  C   UNL     1     -13.937 -44.240  31.962  1.00  0.00     0.014 A 
ATOM     27  C   UNL     1     -11.752 -43.394  32.607  1.00  0.00     0.074 A 
ATOM     28  N   UNL     1     -10.416 -43.349  32.562  1.00  0.00    -0.252 NA
ATOM     29  C   UNL     1      -8.270 -44.144  31.700  1.00  0.00     0.056 C 
ATOM     30  C   UNL     1      -8.356 -46.598  30.937  1.00  0.00     0.005 C 
ATOM     31  C   UNL     1     -14.556 -43.318  32.805  1.00  0.00     0.021 A 
ATOM     32  C   UNL     1     -12.388 -42.489  33.442  1.00  0.00     0.049 A 
ATOM     33  C   UNL     1      -7.649 -45.536  31.790  1.00  0.00     0.007 C 
ATOM     34  C   UNL     1     -13.775 -42.444  33.544  1.00  0.00     0.043 A 
ATOM     35  Cl  UNL     1     -14.524 -41.300  34.586  1.00  0.00    -0.084 Cl
ENDBRANCH  19  21
ENDBRANCH  18  19
ENDBRANCH   1  18
TORSDOF 7
ENDMDL
MODEL 2
REMARK VINA RESULT:   -12.183      1.043      2.029
REMARK INTER + INTRA:         -16.938
REMARK INTER:                 -16.442
REMARK INTRA:                  -0.496
REMARK UNBOUND:                -0.482
REMARK SMILES O=C1C(=NCCNc2c3c(nc4cc(Cl)ccc24)CCCC3)C=C(O)c2c(O)cccc21
REMARK SMILES IDX 5 1 4 2 3 3 24 4 23 5 26 6 27 7 32 8 2 9 29 10 31 11 30 12
REMARK SMILES IDX 1 13 25 14 28 16 6 18 7 19 8 21 9 22 18 23 10 24 22 25 17 26
REMARK SMILES IDX 12 27 11 28 19 29 21 30 16 31 13 32 20 33 14 34 15 35
REMARK H PARENT 25 15 28 17 7 20
ROOT
ATOM      1  C   UNL     1     -13.786 -44.953  28.330  1.00  0.00     0.164 C 
ENDROOT
BRANCH   1   2
ATOM      2  N   UNL     1     -13.617 -44.248  27.056  1.00  0.00    -0.279 NA
BRANCH   2   3
ATOM      3  C   UNL     1     -14.608 -43.568  26.577  1.00  0.00     0.109 C 
ATOM      4  C   UNL     1     -16.823 -42.638  27.097  1.00  0.00     0.129 C 
ATOM      5  C   UNL     1     -15.652 -43.120  27.527  1.00  0.00     0.079 C 
ATOM      6  C   UNL     1     -17.158 -42.520  25.662  1.00  0.00     0.069 A 
ATOM      7  C   UNL     1     -18.428 -42.137  25.191  1.00  0.00     0.127 A 
ATOM      8  C   UNL     1     -16.176 -42.786  24.694  1.00  0.00     0.039 A 
ATOM      9  C   UNL     1     -14.816 -43.177  25.116  1.00  0.00     0.211 C 
ATOM     10  C   UNL     1     -18.707 -42.028  23.828  1.00  0.00     0.047 A 
ATOM     11  C   UNL     1     -16.446 -42.671  23.320  1.00  0.00     0.013 A 
ATOM     12  C   UNL     1     -17.715 -42.295  22.889  1.00  0.00     0.005 A 
ATOM     13  O   UNL     1     -13.884 -43.153  24.325  1.00  0.00    -0.287 OA
BRANCH   4  14
ATOM     14  O   UNL     1     -17.809 -42.242  27.984  1.00  0.00    -0.507 OA
ATOM     15  H   UNL     1     -18.014 -41.301  27.827  1.00  0.00     0.293 HD
ENDBRANCH   4  14
BRANCH   7  16
ATOM     16  O   UNL     1     -19.472 -41.844  26.029  1.00  0.00    -0.507 OA
ATOM     17  H   UNL     1     -20.261 -42.300  25.672  1.00  0.00     0.293 HD
ENDBRANCH   7  16
ENDBRANCH   2   3
ENDBRANCH   1   2
BRANCH   1  18
ATOM     18  C   UNL     1     -12.485 -45.691  28.685  1.00  0.00     0.136 C 
BRANCH  18  19
ATOM     19  N   UNL     1     -12.450 -46.134  30.093  1.00  0.00    -0.382 N 
ATOM     20  H   UNL     1     -13.379 -46.373  30.423  1.00  0.00     0.160 HD
BRANCH  19  21
ATOM     21  C   UNL     1     -11.783 -45.245  30.972  1.00  0.00     0.049 A 
ATOM     22  C   UNL     1     -10.381 -45.202  30.970  1.00  0.00    -0.003 A 
ATOM     23  C   UNL     1     -12.499 -44.340  31.812  1.00  0.00     0.024 A 
ATOM     24  C   UNL     1      -9.747 -44.254  31.772  1.00  0.00     0.046 A 
ATOM     25  C   UNL     1      -9.502 -46.112  30.151  1.00  0.00     0.039 C 
ATOM     26  C   UNL     1     -13.913 -44.281  31.911  1.00  0.00     0.014 A 
ATOM     27  C   UNL     1     -11.741 -43.431  32.589  1.00  0.00     0.074 A 
ATOM     28  N   UNL     1     -10.403 -43.383  32.564  1.00  0.00    -0.252 NA
ATOM     29  C   UNL     1      -8.243 -44.172  31.734  1.00  0.00     0.056 C 
ATOM     30  C   UNL     1      -8.313 -46.626  30.968  1.00  0.00     0.005 C 
ATOM     31  C   UNL     1     -14.547 -43.361  32.745  1.00  0.00     0.021 A 
ATOM     32  C   UNL     1     -12.391 -42.527  33.414  1.00  0.00     0.049 A 
ATOM     33  C   UNL     1      -7.620 -45.562  31.832  1.00  0.00     0.007 C 
ATOM     34  C   UNL     1     -13.779 -42.486  33.496  1.00  0.00     0.043 A 
ATOM     35  Cl  UNL     1     -14.546 -41.343  34.528  1.00  0.00    -0.084 Cl
ENDBRANCH  19  21
ENDBRANCH  18  19
ENDBRANCH   1  18
TORSDOF 7
ENDMDL
MODEL 3
REMARK VINA RESULT:   -11.565      3.305      7.236
REMARK INTER + INTRA:         -16.104
REMARK INTER:                 -14.964
REMARK INTRA:                  -1.139
REMARK UNBOUND:                -0.482
REMARK SMILES O=C1C(=NCCNc2c3c(nc4cc(Cl)ccc24)CCCC3)C=C(O)c2c(O)cccc21
REMARK SMILES IDX 5 1 4 2 3 3 24 4 23 5 26 6 27 7 32 8 2 9 29 10 31 11 30 12
REMARK SMILES IDX 1 13 25 14 28 16 6 18 7 19 8 21 9 22 18 23 10 24 22 25 17 26
REMARK SMILES IDX 12 27 11 28 19 29 21 30 16 31 13 32 20 33 14 34 15 35
REMARK H PARENT 25 15 28 17 7 20
ROOT
ATOM      1  C   UNL     1     -14.145 -43.173  32.630  1.00  0.00     0.164 C 
ENDROOT
BRANCH   1   2
ATOM      2  N   UNL     1     -12.962 -42.570  33.249  1.00  0.00    -0.279 NA
BRANCH   2   3
ATOM      3  C   UNL     1     -11.840 -42.577  32.604  1.00  0.00     0.109 C 
ATOM      4  C   UNL     1     -10.831 -42.637  30.364  1.00  0.00     0.129 C 
ATOM      5  C   UNL     1     -11.896 -42.395  31.135  1.00  0.00     0.079 C 
ATOM      6  C   UNL     1      -9.538 -43.099  30.912  1.00  0.00     0.069 A 
ATOM      7  C   UNL     1      -8.447 -43.481  30.109  1.00  0.00     0.127 A 
ATOM      8  C   UNL     1      -9.354 -43.162  32.303  1.00  0.00     0.039 A 
ATOM      9  C   UNL     1     -10.450 -42.759  33.207  1.00  0.00     0.211 C 
ATOM     10  C   UNL     1      -7.238 -43.906  30.661  1.00  0.00     0.047 A 
ATOM     11  C   UNL     1      -8.137 -43.579  32.867  1.00  0.00     0.013 A 
ATOM     12  C   UNL     1      -7.081 -43.956  32.043  1.00  0.00     0.005 A 
ATOM     13  O   UNL     1     -10.238 -42.547  34.392  1.00  0.00    -0.287 OA
BRANCH   4  14
ATOM     14  O   UNL     1     -10.887 -42.491  28.989  1.00  0.00    -0.507 OA
ATOM     15  H   UNL     1     -11.634 -43.018  28.647  1.00  0.00     0.293 HD
ENDBRANCH   4  14
BRANCH   7  16
ATOM     16  O   UNL     1      -8.492 -43.463  28.739  1.00  0.00    -0.507 OA
ATOM     17  H   UNL     1      -9.339 -43.041  28.487  1.00  0.00     0.293 HD
ENDBRANCH   7  16
ENDBRANCH   2   3
ENDBRANCH   1   2
BRANCH   1  18
ATOM     18  C   UNL     1     -13.829 -44.621  32.221  1.00  0.00     0.136 C 
BRANCH  18  19
ATOM     19  N   UNL     1     -14.575 -45.048  31.021  1.00  0.00    -0.382 N 
ATOM     20  H   UNL     1     -15.045 -45.933  31.179  1.00  0.00     0.160 HD
BRANCH  19  21
ATOM     21  C   UNL     1     -13.812 -45.054  29.827  1.00  0.00     0.049 A 
ATOM     22  C   UNL     1     -12.621 -45.794  29.777  1.00  0.00    -0.003 A 
ATOM     23  C   UNL     1     -14.257 -44.383  28.648  1.00  0.00     0.024 A 
ATOM     24  C   UNL     1     -11.936 -45.865  28.565  1.00  0.00     0.046 A 
ATOM     25  C   UNL     1     -12.027 -46.531  30.950  1.00  0.00     0.039 C 
ATOM     26  C   UNL     1     -15.436 -43.600  28.563  1.00  0.00     0.014 A 
ATOM     27  C   UNL     1     -13.467 -44.522  27.480  1.00  0.00     0.074 A 
ATOM     28  N   UNL     1     -12.344 -45.249  27.437  1.00  0.00    -0.252 NA
ATOM     29  C   UNL     1     -10.685 -46.700  28.495  1.00  0.00     0.056 C 
ATOM     30  C   UNL     1     -10.512 -46.321  31.032  1.00  0.00     0.005 C 
ATOM     31  C   UNL     1     -15.817 -42.982  27.373  1.00  0.00     0.021 A 
ATOM     32  C   UNL     1     -13.861 -43.896  26.308  1.00  0.00     0.049 A 
ATOM     33  C   UNL     1      -9.776 -46.418  29.689  1.00  0.00     0.007 C 
ATOM     34  C   UNL     1     -15.023 -43.133  26.248  1.00  0.00     0.043 A 
ATOM     35  Cl  UNL     1     -15.479 -42.378  24.771  1.00  0.00    -0.084 Cl
ENDBRANCH  19  21
ENDBRANCH  18  19
ENDBRANCH   1  18
TORSDOF 7
ENDMDL
MODEL 4
REMARK VINA RESULT:   -10.783      1.915      4.127
REMARK INTER + INTRA:         -15.048
REMARK INTER:                 -15.270
REMARK INTRA:                   0.222
REMARK UNBOUND:                -0.482
REMARK SMILES O=C1C(=NCCNc2c3c(nc4cc(Cl)ccc24)CCCC3)C=C(O)c2c(O)cccc21
REMARK SMILES IDX 5 1 4 2 3 3 24 4 23 5 26 6 27 7 32 8 2 9 29 10 31 11 30 12
REMARK SMILES IDX 1 13 25 14 28 16 6 18 7 19 8 21 9 22 18 23 10 24 22 25 17 26
REMARK SMILES IDX 12 27 11 28 19 29 21 30 16 31 13 32 20 33 14 34 15 35
REMARK H PARENT 25 15 28 17 7 20
ROOT
ATOM      1  C   UNL     1     -12.727 -44.354  28.349  1.00  0.00     0.164 C 
ENDROOT
BRANCH   1   2
ATOM      2  N   UNL     1     -13.422 -44.699  27.106  1.00  0.00    -0.279 NA
BRANCH   2   3
ATOM      3  C   UNL     1     -14.386 -43.940  26.692  1.00  0.00     0.109 C 
ATOM      4  C   UNL     1     -16.448 -42.789  27.373  1.00  0.00     0.129 C 
ATOM      5  C   UNL     1     -15.293 -43.369  27.714  1.00  0.00     0.079 C 
ATOM      6  C   UNL     1     -16.899 -42.678  25.969  1.00  0.00     0.069 A 
ATOM      7  C   UNL     1     -18.166 -42.188  25.599  1.00  0.00     0.127 A 
ATOM      8  C   UNL     1     -16.039 -43.063  24.928  1.00  0.00     0.039 A 
ATOM      9  C   UNL     1     -14.688 -43.571  25.243  1.00  0.00     0.211 C 
ATOM     10  C   UNL     1     -18.556 -42.090  24.262  1.00  0.00     0.047 A 
ATOM     11  C   UNL     1     -16.421 -42.960  23.581  1.00  0.00     0.013 A 
ATOM     12  C   UNL     1     -17.683 -42.476  23.250  1.00  0.00     0.005 A 
ATOM     13  O   UNL     1     -13.834 -43.657  24.372  1.00  0.00    -0.287 OA
BRANCH   4  14
ATOM     14  O   UNL     1     -17.308 -42.277  28.328  1.00  0.00    -0.507 OA
ATOM     15  H   UNL     1     -17.185 -41.310  28.377  1.00  0.00     0.293 HD
ENDBRANCH   4  14
BRANCH   7  16
ATOM     16  O   UNL     1     -19.098 -41.774  26.514  1.00  0.00    -0.507 OA
ATOM     17  H   UNL     1     -19.308 -42.547  27.078  1.00  0.00     0.293 HD
ENDBRANCH   7  16
ENDBRANCH   2   3
ENDBRANCH   1   2
BRANCH   1  18
ATOM     18  C   UNL     1     -13.402 -45.070  29.531  1.00  0.00     0.136 C 
BRANCH  18  19
ATOM     19  N   UNL     1     -12.437 -45.496  30.563  1.00  0.00    -0.382 N 
ATOM     20  H   UNL     1     -12.752 -46.340  31.031  1.00  0.00     0.160 HD
BRANCH  19  21
ATOM     21  C   UNL     1     -12.071 -44.480  31.480  1.00  0.00     0.049 A 
ATOM     22  C   UNL     1     -13.074 -43.786  32.171  1.00  0.00    -0.003 A 
ATOM     23  C   UNL     1     -10.704 -44.190  31.774  1.00  0.00     0.024 A 
ATOM     24  C   UNL     1     -12.691 -42.858  33.138  1.00  0.00     0.046 A 
ATOM     25  C   UNL     1     -14.552 -43.977  31.946  1.00  0.00     0.039 C 
ATOM     26  C   UNL     1      -9.596 -44.814  31.146  1.00  0.00     0.014 A 
ATOM     27  C   UNL     1     -10.443 -43.218  32.770  1.00  0.00     0.074 A 
ATOM     28  N   UNL     1     -11.408 -42.576  33.439  1.00  0.00    -0.252 NA
ATOM     29  C   UNL     1     -13.767 -42.148  33.917  1.00  0.00     0.056 C 
ATOM     30  C   UNL     1     -15.290 -42.635  31.905  1.00  0.00     0.005 C 
ATOM     31  C   UNL     1      -8.285 -44.489  31.492  1.00  0.00     0.021 A 
ATOM     32  C   UNL     1      -9.132 -42.906  33.096  1.00  0.00     0.049 A 
ATOM     33  C   UNL     1     -14.863 -41.635  32.987  1.00  0.00     0.007 C 
ATOM     34  C   UNL     1      -8.059 -43.532  32.468  1.00  0.00     0.043 A 
ATOM     35  Cl  UNL     1      -6.448 -43.121  32.908  1.00  0.00    -0.084 Cl
ENDBRANCH  19  21
ENDBRANCH  18  19
ENDBRANCH   1  18
TORSDOF 7
ENDMDL
MODEL 5
REMARK VINA RESULT:   -10.677      5.848     10.139
REMARK INTER + INTRA:         -14.904
REMARK INTER:                 -14.373
REMARK INTRA:                  -0.531
REMARK UNBOUND:                -0.482
REMARK SMILES O=C1C(=NCCNc2c3c(nc4cc(Cl)ccc24)CCCC3)C=C(O)c2c(O)cccc21
REMARK SMILES IDX 5 1 4 2 3 3 24 4 23 5 26 6 27 7 32 8 2 9 29 10 31 11 30 12
REMARK SMILES IDX 1 13 25 14 28 16 6 18 7 19 8 21 9 22 18 23 10 24 22 25 17 26
REMARK SMILES IDX 12 27 11 28 19 29 21 30 16 31 13 32 20 33 14 34 15 35
REMARK H PARENT 25 15 28 17 7 20
ROOT
ATOM      1  C   UNL     1     -18.792 -40.151  21.742  1.00  0.00     0.164 C 
ENDROOT
BRANCH   1   2
ATOM      2  N   UNL     1     -19.025 -40.167  20.295  1.00  0.00    -0.279 NA
BRANCH   2   3
ATOM      3  C   UNL     1     -20.195 -39.848  19.842  1.00  0.00     0.109 C 
ATOM      4  C   UNL     1     -21.747 -37.977  19.474  1.00  0.00     0.129 C 
ATOM      5  C   UNL     1     -20.499 -38.406  19.691  1.00  0.00     0.079 C 
ATOM      6  C   UNL     1     -22.900 -38.898  19.373  1.00  0.00     0.069 A 
ATOM      7  C   UNL     1     -24.233 -38.461  19.274  1.00  0.00     0.127 A 
ATOM      8  C   UNL     1     -22.684 -40.285  19.362  1.00  0.00     0.039 A 
ATOM      9  C   UNL     1     -21.307 -40.814  19.445  1.00  0.00     0.211 C 
ATOM     10  C   UNL     1     -25.298 -39.359  19.173  1.00  0.00     0.047 A 
ATOM     11  C   UNL     1     -23.748 -41.195  19.252  1.00  0.00     0.013 A 
ATOM     12  C   UNL     1     -25.056 -40.729  19.161  1.00  0.00     0.005 A 
ATOM     13  O   UNL     1     -21.068 -41.982  19.171  1.00  0.00    -0.287 OA
BRANCH   4  14
ATOM     14  O   UNL     1     -22.036 -36.629  19.357  1.00  0.00    -0.507 OA
ATOM     15  H   UNL     1     -21.929 -36.363  18.425  1.00  0.00     0.293 HD
ENDBRANCH   4  14
BRANCH   7  16
ATOM     16  O   UNL     1     -24.582 -37.135  19.268  1.00  0.00    -0.507 OA
ATOM     17  H   UNL     1     -24.372 -36.789  18.377  1.00  0.00     0.293 HD
ENDBRANCH   7  16
ENDBRANCH   2   3
ENDBRANCH   1   2
BRANCH   1  18
ATOM     18  C   UNL     1     -17.566 -41.017  22.075  1.00  0.00     0.136 C 
BRANCH  18  19
ATOM     19  N   UNL     1     -17.933 -42.304  22.697  1.00  0.00    -0.382 N 
ATOM     20  H   UNL     1     -18.851 -42.610  22.390  1.00  0.00     0.160 HD
BRANCH  19  21
ATOM     21  C   UNL     1     -17.805 -42.332  24.108  1.00  0.00     0.049 A 
ATOM     22  C   UNL     1     -18.950 -42.188  24.905  1.00  0.00    -0.003 A 
ATOM     23  C   UNL     1     -16.549 -42.573  24.743  1.00  0.00     0.024 A 
ATOM     24  C   UNL     1     -18.816 -42.315  26.286  1.00  0.00     0.046 A 
ATOM     25  C   UNL     1     -20.331 -41.910  24.367  1.00  0.00     0.039 C 
ATOM     26  C   UNL     1     -15.318 -42.733  24.058  1.00  0.00     0.014 A 
ATOM     27  C   UNL     1     -16.541 -42.671  26.156  1.00  0.00     0.074 A 
ATOM     28  N   UNL     1     -17.643 -42.553  26.906  1.00  0.00    -0.252 NA
ATOM     29  C   UNL     1     -20.052 -42.211  27.140  1.00  0.00     0.056 C 
ATOM     30  C   UNL     1     -21.052 -40.847  25.203  1.00  0.00     0.005 C 
ATOM     31  C   UNL     1     -14.129 -42.979  24.744  1.00  0.00     0.021 A 
ATOM     32  C   UNL     1     -15.347 -42.911  26.819  1.00  0.00     0.049 A 
ATOM     33  C   UNL     1     -20.903 -41.015  26.721  1.00  0.00     0.007 C 
ATOM     34  C   UNL     1     -14.150 -43.066  26.126  1.00  0.00     0.043 A 
ATOM     35  Cl  UNL     1     -12.693 -43.371  26.988  1.00  0.00    -0.084 Cl
ENDBRANCH  19  21
ENDBRANCH  18  19
ENDBRANCH   1  18
TORSDOF 7
ENDMDL
MODEL 6
REMARK VINA RESULT:   -10.643      5.740      9.256
REMARK INTER + INTRA:         -14.859
REMARK INTER:                 -13.832
REMARK INTRA:                  -1.027
REMARK UNBOUND:                -0.482
REMARK SMILES O=C1C(=NCCNc2c3c(nc4cc(Cl)ccc24)CCCC3)C=C(O)c2c(O)cccc21
REMARK SMILES IDX 5 1 4 2 3 3 24 4 23 5 26 6 27 7 32 8 2 9 29 10 31 11 30 12
REMARK SMILES IDX 1 13 25 14 28 16 6 18 7 19 8 21 9 22 18 23 10 24 22 25 17 26
REMARK SMILES IDX 12 27 11 28 19 29 21 30 16 31 13 32 20 33 14 34 15 35
REMARK H PARENT 25 15 28 17 7 20
ROOT
ATOM      1  C   UNL     1     -17.957 -40.075  21.748  1.00  0.00     0.164 C 
ENDROOT
BRANCH   1   2
ATOM      2  N   UNL     1     -18.675 -40.419  20.518  1.00  0.00    -0.279 NA
BRANCH   2   3
ATOM      3  C   UNL     1     -19.917 -40.073  20.397  1.00  0.00     0.109 C 
ATOM      4  C   UNL     1     -21.423 -38.194  19.906  1.00  0.00     0.129 C 
ATOM      5  C   UNL     1     -20.201 -38.732  19.837  1.00  0.00     0.079 C 
ATOM      6  C   UNL     1     -22.565 -38.887  20.540  1.00  0.00     0.069 A 
ATOM      7  C   UNL     1     -23.822 -38.288  20.738  1.00  0.00     0.127 A 
ATOM      8  C   UNL     1     -22.421 -40.217  20.969  1.00  0.00     0.039 A 
ATOM      9  C   UNL     1     -21.132 -40.914  20.778  1.00  0.00     0.211 C 
ATOM     10  C   UNL     1     -24.881 -38.976  21.334  1.00  0.00     0.047 A 
ATOM     11  C   UNL     1     -23.483 -40.919  21.562  1.00  0.00     0.013 A 
ATOM     12  C   UNL     1     -24.713 -40.294  21.747  1.00  0.00     0.005 A 
ATOM     13  O   UNL     1     -21.056 -42.130  20.890  1.00  0.00    -0.287 OA
BRANCH   4  14
ATOM     14  O   UNL     1     -21.685 -36.931  19.405  1.00  0.00    -0.507 OA
ATOM     15  H   UNL     1     -20.884 -36.596  18.959  1.00  0.00     0.293 HD
ENDBRANCH   4  14
BRANCH   7  16
ATOM     16  O   UNL     1     -24.098 -37.000  20.361  1.00  0.00    -0.507 OA
ATOM     17  H   UNL     1     -24.120 -36.462  21.179  1.00  0.00     0.293 HD
ENDBRANCH   7  16
ENDBRANCH   2   3
ENDBRANCH   1   2
BRANCH   1  18
ATOM     18  C   UNL     1     -16.910 -41.159  22.052  1.00  0.00     0.136 C 
BRANCH  18  19
ATOM     19  N   UNL     1     -17.509 -42.382  22.622  1.00  0.00    -0.382 N 
ATOM     20  H   UNL     1     -18.413 -42.575  22.203  1.00  0.00     0.160 HD
BRANCH  19  21
ATOM     21  C   UNL     1     -17.558 -42.408  24.037  1.00  0.00     0.049 A 
ATOM     22  C   UNL     1     -16.411 -42.771  24.758  1.00  0.00    -0.003 A 
ATOM     23  C   UNL     1     -18.725 -42.006  24.756  1.00  0.00     0.024 A 
ATOM     24  C   UNL     1     -16.452 -42.697  26.149  1.00  0.00     0.046 A 
ATOM     25  C   UNL     1     -15.122 -43.233  24.129  1.00  0.00     0.039 C 
ATOM     26  C   UNL     1     -19.949 -41.619  24.152  1.00  0.00     0.014 A 
ATOM     27  C   UNL     1     -18.645 -41.982  26.170  1.00  0.00     0.074 A 
ATOM     28  N   UNL     1     -17.538 -42.310  26.847  1.00  0.00    -0.252 NA
ATOM     29  C   UNL     1     -15.206 -43.037  26.923  1.00  0.00     0.056 C 
ATOM     30  C   UNL     1     -14.537 -44.438  24.874  1.00  0.00     0.005 C 
ATOM     31  C   UNL     1     -21.046 -41.227  24.917  1.00  0.00     0.021 A 
ATOM     32  C   UNL     1     -19.749 -41.592  26.912  1.00  0.00     0.049 A 
ATOM     33  C   UNL     1     -14.579 -44.329  26.404  1.00  0.00     0.007 C 
ATOM     34  C   UNL     1     -20.940 -41.216  26.298  1.00  0.00     0.043 A 
ATOM     35  Cl  UNL     1     -22.284 -40.731  27.256  1.00  0.00    -0.084 Cl
ENDBRANCH  19  21
ENDBRANCH  18  19
ENDBRANCH   1  18
TORSDOF 7
ENDMDL
MODEL 7
REMARK VINA RESULT:   -10.342      5.938     10.089
REMARK INTER + INTRA:         -14.452
REMARK INTER:                 -13.830
REMARK INTRA:                  -0.622
REMARK UNBOUND:                -0.482
REMARK SMILES O=C1C(=NCCNc2c3c(nc4cc(Cl)ccc24)CCCC3)C=C(O)c2c(O)cccc21
REMARK SMILES IDX 5 1 4 2 3 3 24 4 23 5 26 6 27 7 32 8 2 9 29 10 31 11 30 12
REMARK SMILES IDX 1 13 25 14 28 16 6 18 7 19 8 21 9 22 18 23 10 24 22 25 17 26
REMARK SMILES IDX 12 27 11 28 19 29 21 30 16 31 13 32 20 33 14 34 15 35
REMARK H PARENT 25 15 28 17 7 20
ROOT
ATOM      1  C   UNL     1     -18.727 -40.150  21.759  1.00  0.00     0.164 C 
ENDROOT
BRANCH   1   2
ATOM      2  N   UNL     1     -19.040 -40.190  20.328  1.00  0.00    -0.279 NA
BRANCH   2   3
ATOM      3  C   UNL     1     -20.277 -40.282  19.957  1.00  0.00     0.109 C 
ATOM      4  C   UNL     1     -22.114 -41.854  19.516  1.00  0.00     0.129 C 
ATOM      5  C   UNL     1     -20.936 -41.600  20.096  1.00  0.00     0.079 C 
ATOM      6  C   UNL     1     -22.833 -40.851  18.701  1.00  0.00     0.069 A 
ATOM      7  C   UNL     1     -24.006 -41.136  17.978  1.00  0.00     0.127 A 
ATOM      8  C   UNL     1     -22.352 -39.533  18.635  1.00  0.00     0.039 A 
ATOM      9  C   UNL     1     -21.135 -39.158  19.383  1.00  0.00     0.211 C 
ATOM     10  C   UNL     1     -24.664 -40.162  17.225  1.00  0.00     0.047 A 
ATOM     11  C   UNL     1     -23.012 -38.544  17.887  1.00  0.00     0.013 A 
ATOM     12  C   UNL     1     -24.168 -38.863  17.179  1.00  0.00     0.005 A 
ATOM     13  O   UNL     1     -20.848 -37.982  19.562  1.00  0.00    -0.287 OA
BRANCH   4  14
ATOM     14  O   UNL     1     -22.720 -43.093  19.623  1.00  0.00    -0.507 OA
ATOM     15  H   UNL     1     -22.717 -43.522  18.747  1.00  0.00     0.293 HD
ENDBRANCH   4  14
BRANCH   7  16
ATOM     16  O   UNL     1     -24.583 -42.379  17.961  1.00  0.00    -0.507 OA
ATOM     17  H   UNL     1     -23.879 -43.024  18.178  1.00  0.00     0.293 HD
ENDBRANCH   7  16
ENDBRANCH   2   3
ENDBRANCH   1   2
BRANCH   1  18
ATOM     18  C   UNL     1     -17.509 -41.044  22.044  1.00  0.00     0.136 C 
BRANCH  18  19
ATOM     19  N   UNL     1     -17.881 -42.327  22.671  1.00  0.00    -0.382 N 
ATOM     20  H   UNL     1     -18.795 -42.636  22.357  1.00  0.00     0.160 HD
BRANCH  19  21
ATOM     21  C   UNL     1     -17.768 -42.345  24.084  1.00  0.00     0.049 A 
ATOM     22  C   UNL     1     -18.925 -42.212  24.867  1.00  0.00    -0.003 A 
ATOM     23  C   UNL     1     -16.517 -42.565  24.735  1.00  0.00     0.024 A 
ATOM     24  C   UNL     1     -18.804 -42.328  26.250  1.00  0.00     0.046 A 
ATOM     25  C   UNL     1     -20.303 -41.956  24.312  1.00  0.00     0.039 C 
ATOM     26  C   UNL     1     -15.275 -42.713  24.065  1.00  0.00     0.014 A 
ATOM     27  C   UNL     1     -16.523 -42.654  26.149  1.00  0.00     0.074 A 
ATOM     28  N   UNL     1     -17.635 -42.547  26.885  1.00  0.00    -0.252 NA
ATOM     29  C   UNL     1     -20.052 -42.236  27.089  1.00  0.00     0.056 C 
ATOM     30  C   UNL     1     -21.047 -40.898  25.133  1.00  0.00     0.005 C 
ATOM     31  C   UNL     1     -14.091 -42.938  24.765  1.00  0.00     0.021 A 
ATOM     32  C   UNL     1     -15.334 -42.874  26.826  1.00  0.00     0.049 A 
ATOM     33  C   UNL     1     -20.913 -41.054  26.654  1.00  0.00     0.007 C 
ATOM     34  C   UNL     1     -14.127 -43.017  26.148  1.00  0.00     0.043 A 
ATOM     35  Cl  UNL     1     -12.676 -43.297  27.028  1.00  0.00    -0.084 Cl
ENDBRANCH  19  21
ENDBRANCH  18  19
ENDBRANCH   1  18
TORSDOF 7
ENDMDL
MODEL 8
REMARK VINA RESULT:   -10.192      4.268     10.549
REMARK INTER + INTRA:         -14.250
REMARK INTER:                 -13.652
REMARK INTRA:                  -0.598
REMARK UNBOUND:                -0.482
REMARK SMILES O=C1C(=NCCNc2c3c(nc4cc(Cl)ccc24)CCCC3)C=C(O)c2c(O)cccc21
REMARK SMILES IDX 5 1 4 2 3 3 24 4 23 5 26 6 27 7 32 8 2 9 29 10 31 11 30 12
REMARK SMILES IDX 1 13 25 14 28 16 6 18 7 19 8 21 9 22 18 23 10 24 22 25 17 26
REMARK SMILES IDX 12 27 11 28 19 29 21 30 16 31 13 32 20 33 14 34 15 35
REMARK H PARENT 25 15 28 17 7 20
ROOT
ATOM      1  C   UNL     1     -16.455 -42.943  23.195  1.00  0.00     0.164 C 
ENDROOT
BRANCH   1   2
ATOM      2  N   UNL     1     -15.565 -42.428  24.239  1.00  0.00    -0.279 NA
BRANCH   2   3
ATOM      3  C   UNL     1     -15.377 -43.132  25.309  1.00  0.00     0.109 C 
ATOM      4  C   UNL     1     -15.724 -43.191  27.742  1.00  0.00     0.129 C 
ATOM      5  C   UNL     1     -16.052 -42.684  26.549  1.00  0.00     0.079 C 
ATOM      6  C   UNL     1     -14.675 -44.220  27.909  1.00  0.00     0.069 A 
ATOM      7  C   UNL     1     -14.226 -44.671  29.164  1.00  0.00     0.127 A 
ATOM      8  C   UNL     1     -14.085 -44.803  26.776  1.00  0.00     0.039 A 
ATOM      9  C   UNL     1     -14.520 -44.389  25.427  1.00  0.00     0.211 C 
ATOM     10  C   UNL     1     -13.238 -45.651  29.284  1.00  0.00     0.047 A 
ATOM     11  C   UNL     1     -13.097 -45.795  26.888  1.00  0.00     0.013 A 
ATOM     12  C   UNL     1     -12.672 -46.215  28.146  1.00  0.00     0.005 A 
ATOM     13  O   UNL     1     -14.228 -45.055  24.443  1.00  0.00    -0.287 OA
BRANCH   4  14
ATOM     14  O   UNL     1     -16.336 -42.756  28.904  1.00  0.00    -0.507 OA
ATOM     15  H   UNL     1     -15.706 -42.206  29.405  1.00  0.00     0.293 HD
ENDBRANCH   4  14
BRANCH   7  16
ATOM     16  O   UNL     1     -14.722 -44.189  30.347  1.00  0.00    -0.507 OA
ATOM     17  H   UNL     1     -14.145 -43.446  30.616  1.00  0.00     0.293 HD
ENDBRANCH   7  16
ENDBRANCH   2   3
ENDBRANCH   1   2
BRANCH   1  18
ATOM     18  C   UNL     1     -17.637 -41.977  23.005  1.00  0.00     0.136 C 
BRANCH  18  19
ATOM     19  N   UNL     1     -18.815 -42.634  22.406  1.00  0.00    -0.382 N 
ATOM     20  H   UNL     1     -18.747 -42.653  21.393  1.00  0.00     0.160 HD
BRANCH  19  21
ATOM     21  C   UNL     1     -20.060 -42.122  22.848  1.00  0.00     0.049 A 
ATOM     22  C   UNL     1     -20.741 -41.188  22.052  1.00  0.00    -0.003 A 
ATOM     23  C   UNL     1     -20.678 -42.583  24.050  1.00  0.00     0.024 A 
ATOM     24  C   UNL     1     -22.007 -40.771  22.458  1.00  0.00     0.046 A 
ATOM     25  C   UNL     1     -20.197 -40.604  20.773  1.00  0.00     0.039 C 
ATOM     26  C   UNL     1     -20.099 -43.519  24.945  1.00  0.00     0.014 A 
ATOM     27  C   UNL     1     -21.963 -42.075  24.360  1.00  0.00     0.074 A 
ATOM     28  N   UNL     1     -22.613 -41.201  23.583  1.00  0.00    -0.252 NA
ATOM     29  C   UNL     1     -22.760 -39.807  21.579  1.00  0.00     0.056 C 
ATOM     30  C   UNL     1     -20.453 -39.095  20.696  1.00  0.00     0.005 C 
ATOM     31  C   UNL     1     -20.766 -43.934  26.097  1.00  0.00     0.021 A 
ATOM     32  C   UNL     1     -22.607 -42.497  25.513  1.00  0.00     0.049 A 
ATOM     33  C   UNL     1     -21.858 -38.659  21.133  1.00  0.00     0.007 C 
ATOM     34  C   UNL     1     -22.021 -43.418  26.376  1.00  0.00     0.043 A 
ATOM     35  Cl  UNL     1     -22.858 -43.921  27.792  1.00  0.00    -0.084 Cl
ENDBRANCH  19  21
ENDBRANCH  18  19
ENDBRANCH   1  18
TORSDOF 7
ENDMDL
MODEL 9
REMARK VINA RESULT:    -9.973      5.899     10.225
REMARK INTER + INTRA:         -13.953
REMARK INTER:                 -12.842
REMARK INTRA:                  -1.112
REMARK UNBOUND:                -0.482
REMARK SMILES O=C1C(=NCCNc2c3c(nc4cc(Cl)ccc24)CCCC3)C=C(O)c2c(O)cccc21
REMARK SMILES IDX 5 1 4 2 3 3 24 4 23 5 26 6 27 7 32 8 2 9 29 10 31 11 30 12
REMARK SMILES IDX 1 13 25 14 28 16 6 18 7 19 8 21 9 22 18 23 10 24 22 25 17 26
REMARK SMILES IDX 12 27 11 28 19 29 21 30 16 31 13 32 20 33 14 34 15 35
REMARK H PARENT 25 15 28 17 7 20
ROOT
ATOM      1  C   UNL     1     -20.269 -42.050  22.415  1.00  0.00     0.164 C 
ENDROOT
BRANCH   1   2
ATOM      2  N   UNL     1     -19.303 -41.288  23.211  1.00  0.00    -0.279 NA
BRANCH   2   3
ATOM      3  C   UNL     1     -18.555 -41.915  24.061  1.00  0.00     0.109 C 
ATOM      4  C   UNL     1     -18.079 -42.218  26.453  1.00  0.00     0.129 C 
ATOM      5  C   UNL     1     -18.921 -41.821  25.493  1.00  0.00     0.079 C 
ATOM      6  C   UNL     1     -16.739 -42.770  26.160  1.00  0.00     0.069 A 
ATOM      7  C   UNL     1     -15.791 -43.072  27.156  1.00  0.00     0.127 A 
ATOM      8  C   UNL     1     -16.366 -43.026  24.831  1.00  0.00     0.039 A 
ATOM      9  C   UNL     1     -17.318 -42.748  23.736  1.00  0.00     0.211 C 
ATOM     10  C   UNL     1     -14.536 -43.599  26.843  1.00  0.00     0.047 A 
ATOM     11  C   UNL     1     -15.110 -43.564  24.508  1.00  0.00     0.013 A 
ATOM     12  C   UNL     1     -14.194 -43.846  25.518  1.00  0.00     0.005 A 
ATOM     13  O   UNL     1     -17.132 -43.202  22.616  1.00  0.00    -0.287 OA
BRANCH   4  14
ATOM     14  O   UNL     1     -18.410 -42.109  27.793  1.00  0.00    -0.507 OA
ATOM     15  H   UNL     1     -19.372 -42.237  27.891  1.00  0.00     0.293 HD
ENDBRANCH   4  14
BRANCH   7  16
ATOM     16  O   UNL     1     -16.028 -42.875  28.491  1.00  0.00    -0.507 OA
ATOM     17  H   UNL     1     -15.200 -43.096  28.964  1.00  0.00     0.293 HD
ENDBRANCH   7  16
ENDBRANCH   2   3
ENDBRANCH   1   2
BRANCH   1  18
ATOM     18  C   UNL     1     -21.648 -41.375  22.496  1.00  0.00     0.136 C 
BRANCH  18  19
ATOM     19  N   UNL     1     -22.644 -42.203  23.204  1.00  0.00    -0.382 N 
ATOM     20  H   UNL     1     -23.579 -42.035  22.847  1.00  0.00     0.160 HD
BRANCH  19  21
ATOM     21  C   UNL     1     -22.588 -42.110  24.617  1.00  0.00     0.049 A 
ATOM     22  C   UNL     1     -21.997 -43.149  25.350  1.00  0.00    -0.003 A 
ATOM     23  C   UNL     1     -23.053 -40.954  25.314  1.00  0.00     0.024 A 
ATOM     24  C   UNL     1     -21.865 -42.995  26.729  1.00  0.00     0.046 A 
ATOM     25  C   UNL     1     -21.483 -44.431  24.747  1.00  0.00     0.039 C 
ATOM     26  C   UNL     1     -23.672 -39.836  24.696  1.00  0.00     0.014 A 
ATOM     27  C   UNL     1     -22.872 -40.920  26.718  1.00  0.00     0.074 A 
ATOM     28  N   UNL     1     -22.287 -41.908  27.405  1.00  0.00    -0.252 NA
ATOM     29  C   UNL     1     -21.185 -44.088  27.512  1.00  0.00     0.056 C 
ATOM     30  C   UNL     1     -21.883 -45.646  25.590  1.00  0.00     0.005 C 
ATOM     31  C   UNL     1     -24.092 -38.734  25.438  1.00  0.00     0.021 A 
ATOM     32  C   UNL     1     -23.301 -39.816  27.438  1.00  0.00     0.049 A 
ATOM     33  C   UNL     1     -21.716 -45.459  27.104  1.00  0.00     0.007 C 
ATOM     34  C   UNL     1     -23.905 -38.730  26.811  1.00  0.00     0.043 A 
ATOM     35  Cl  UNL     1     -24.415 -37.376  27.741  1.00  0.00    -0.084 Cl
ENDBRANCH  19  21
ENDBRANCH  18  19
ENDBRANCH   1  18
TORSDOF 7
ENDMDL
