MODEL 1
REMARK VINA RESULT:   -11.431      0.000      0.000
REMARK INTER + INTRA:         -18.076
REMARK INTER:                 -17.445
REMARK INTRA:                  -0.631
REMARK UNBOUND:                -0.631
REMARK SMILES COc1cc2cc(C(=O)CCc3cc[n+](Cc4ccc([N+](=O)[O-])o4)cc3)sc2cc1OC
REMARK SMILES IDX 11 1 10 2 8 3 9 4 7 5 3 6 4 7 30 8 5 9 29 10 6 11 28 12
REMARK SMILES IDX 27 13 2 14 1 15 31 16 32 17 12 18 13 19 26 20 14 21 25 22
REMARK SMILES IDX 15 23 16 24 17 25 18 26 24 27 19 28 20 29 21 30 22 31 23 32
REMARK H PARENT
ROOT
ATOM      1  C   UNL     1     -13.815 -45.007  26.207  1.00  0.00     0.044 C 
ENDROOT
BRANCH   1   2
ATOM      2  C   UNL     1     -14.806 -43.842  26.230  1.00  0.00     0.087 C 
BRANCH   2   3
ATOM      3  C   UNL     1     -15.216 -43.434  24.819  1.00  0.00     0.173 C 
ATOM      4  O   UNL     1     -14.444 -43.629  23.880  1.00  0.00    -0.293 OA
BRANCH   3   5
ATOM      5  C   UNL     1     -16.531 -42.818  24.676  1.00  0.00     0.071 A 
ATOM      6  C   UNL     1     -20.919 -40.955  24.982  1.00  0.00     0.161 A 
ATOM      7  C   UNL     1     -19.902 -41.589  25.710  1.00  0.00     0.060 A 
ATOM      8  C   UNL     1     -20.740 -40.688  23.615  1.00  0.00     0.162 A 
ATOM      9  C   UNL     1     -18.690 -41.965  25.081  1.00  0.00    -0.003 A 
ATOM     10  C   UNL     1     -19.548 -41.052  22.977  1.00  0.00     0.070 A 
ATOM     11  C   UNL     1     -17.524 -42.616  25.614  1.00  0.00     0.032 A 
ATOM     12  C   UNL     1     -18.537 -41.689  23.724  1.00  0.00     0.039 A 
ATOM     13  S   UNL     1     -17.007 -42.220  23.146  1.00  0.00    -0.132 S 
BRANCH   6  14
ATOM     14  O   UNL     1     -22.120 -40.559  25.519  1.00  0.00    -0.493 OA
ATOM     15  C   UNL     1     -22.281 -40.639  26.928  1.00  0.00     0.278 C 
ENDBRANCH   6  14
BRANCH   8  16
ATOM     16  O   UNL     1     -21.790 -40.064  22.986  1.00  0.00    -0.493 OA
ATOM     17  C   UNL     1     -21.629 -39.711  21.618  1.00  0.00     0.278 C 
ENDBRANCH   8  16
ENDBRANCH   3   5
ENDBRANCH   2   3
ENDBRANCH   1   2
BRANCH   1  18
ATOM     18  C   UNL     1     -13.225 -45.294  27.568  1.00  0.00    -0.036 A 
ATOM     19  C   UNL     1     -13.790 -44.749  28.721  1.00  0.00     0.074 A 
ATOM     20  C   UNL     1     -12.111 -46.122  27.701  1.00  0.00     0.074 A 
ATOM     21  C   UNL     1     -13.246 -45.047  29.965  1.00  0.00     0.309 A 
ATOM     22  C   UNL     1     -11.601 -46.397  28.966  1.00  0.00     0.309 A 
ATOM     23  N   UNL     1     -12.166 -45.859  30.071  1.00  0.00    -0.198 N 
BRANCH  23  24
ATOM     24  C   UNL     1     -11.615 -46.175  31.412  1.00  0.00     0.432 C 
BRANCH  24  25
ATOM     25  C   UNL     1     -10.139 -45.986  31.420  1.00  0.00     0.176 A 
ATOM     26  C   UNL     1      -9.062 -46.806  31.137  1.00  0.00     0.060 A 
ATOM     27  O   UNL     1      -9.698 -44.741  31.772  1.00  0.00    -0.399 OA
ATOM     28  C   UNL     1      -7.889 -46.021  31.328  1.00  0.00     0.134 A 
ATOM     29  C   UNL     1      -8.337 -44.780  31.714  1.00  0.00     0.433 A 
BRANCH  29  30
ATOM     30  N   UNL     1      -7.655 -43.572  32.057  1.00  0.00     0.102 N 
ATOM     31  O   UNL     1      -7.290 -42.847  31.121  1.00  0.00    -0.256 OA
ATOM     32  O   UNL     1      -7.495 -43.354  33.263  1.00  0.00    -0.256 OA
ENDBRANCH  29  30
ENDBRANCH  24  25
ENDBRANCH  23  24
ENDBRANCH   1  18
TORSDOF 9
ENDMDL
MODEL 2
REMARK VINA RESULT:   -11.034      1.108      2.126
REMARK INTER + INTRA:         -17.470
REMARK INTER:                 -16.951
REMARK INTRA:                  -0.519
REMARK UNBOUND:                -0.631
REMARK SMILES COc1cc2cc(C(=O)CCc3cc[n+](Cc4ccc([N+](=O)[O-])o4)cc3)sc2cc1OC
REMARK SMILES IDX 11 1 10 2 8 3 9 4 7 5 3 6 4 7 30 8 5 9 29 10 6 11 28 12
REMARK SMILES IDX 27 13 2 14 1 15 31 16 32 17 12 18 13 19 26 20 14 21 25 22
REMARK SMILES IDX 15 23 16 24 17 25 18 26 24 27 19 28 20 29 21 30 22 31 23 32
REMARK H PARENT
ROOT
ATOM      1  C   UNL     1     -14.006 -44.868  26.311  1.00  0.00     0.044 C 
ENDROOT
BRANCH   1   2
ATOM      2  C   UNL     1     -14.287 -43.373  26.158  1.00  0.00     0.087 C 
BRANCH   2   3
ATOM      3  C   UNL     1     -15.108 -43.087  24.905  1.00  0.00     0.173 C 
ATOM      4  O   UNL     1     -14.593 -43.223  23.795  1.00  0.00    -0.293 OA
BRANCH   3   5
ATOM      5  C   UNL     1     -16.486 -42.654  25.113  1.00  0.00     0.071 A 
ATOM      6  C   UNL     1     -21.032 -41.192  25.002  1.00  0.00     0.161 A 
ATOM      7  C   UNL     1     -19.922 -41.509  24.206  1.00  0.00     0.060 A 
ATOM      8  C   UNL     1     -20.942 -41.288  26.399  1.00  0.00     0.162 A 
ATOM      9  C   UNL     1     -18.705 -41.928  24.797  1.00  0.00    -0.003 A 
ATOM     10  C   UNL     1     -19.747 -41.701  27.001  1.00  0.00     0.070 A 
ATOM     11  C   UNL     1     -17.454 -42.300  24.195  1.00  0.00     0.032 A 
ATOM     12  C   UNL     1     -18.642 -42.015  26.186  1.00  0.00     0.039 A 
ATOM     13  S   UNL     1     -17.089 -42.538  26.709  1.00  0.00    -0.132 S 
BRANCH   6  14
ATOM     14  O   UNL     1     -22.244 -40.780  24.505  1.00  0.00    -0.493 OA
ATOM     15  C   UNL     1     -22.946 -41.659  23.639  1.00  0.00     0.278 C 
ENDBRANCH   6  14
BRANCH   8  16
ATOM     16  O   UNL     1     -22.079 -40.958  27.096  1.00  0.00    -0.493 OA
ATOM     17  C   UNL     1     -23.012 -41.994  27.375  1.00  0.00     0.278 C 
ENDBRANCH   8  16
ENDBRANCH   3   5
ENDBRANCH   2   3
ENDBRANCH   1   2
BRANCH   1  18
ATOM     18  C   UNL     1     -13.427 -45.215  27.662  1.00  0.00    -0.036 A 
ATOM     19  C   UNL     1     -12.285 -46.009  27.766  1.00  0.00     0.074 A 
ATOM     20  C   UNL     1     -14.013 -44.738  28.834  1.00  0.00     0.074 A 
ATOM     21  C   UNL     1     -11.754 -46.296  29.018  1.00  0.00     0.309 A 
ATOM     22  C   UNL     1     -13.447 -45.045  30.066  1.00  0.00     0.309 A 
ATOM     23  N   UNL     1     -12.337 -45.816  30.143  1.00  0.00    -0.198 N 
BRANCH  23  24
ATOM     24  C   UNL     1     -11.741 -46.122  31.467  1.00  0.00     0.432 C 
BRANCH  24  25
ATOM     25  C   UNL     1     -10.275 -45.872  31.444  1.00  0.00     0.176 A 
ATOM     26  C   UNL     1      -9.176 -46.618  31.058  1.00  0.00     0.060 A 
ATOM     27  O   UNL     1      -9.871 -44.642  31.883  1.00  0.00    -0.399 OA
ATOM     28  C   UNL     1      -8.030 -45.803  31.276  1.00  0.00     0.134 A 
ATOM     29  C   UNL     1      -8.513 -44.618  31.778  1.00  0.00     0.433 A 
BRANCH  29  30
ATOM     30  N   UNL     1      -7.868 -43.413  32.198  1.00  0.00     0.102 N 
ATOM     31  O   UNL     1      -7.129 -42.856  31.376  1.00  0.00    -0.256 OA
ATOM     32  O   UNL     1      -8.111 -43.031  33.347  1.00  0.00    -0.256 OA
ENDBRANCH  29  30
ENDBRANCH  24  25
ENDBRANCH  23  24
ENDBRANCH   1  18
TORSDOF 9
ENDMDL
MODEL 3
REMARK VINA RESULT:   -10.893      1.488      1.934
REMARK INTER + INTRA:         -17.256
REMARK INTER:                 -16.771
REMARK INTRA:                  -0.485
REMARK UNBOUND:                -0.631
REMARK SMILES COc1cc2cc(C(=O)CCc3cc[n+](Cc4ccc([N+](=O)[O-])o4)cc3)sc2cc1OC
REMARK SMILES IDX 11 1 10 2 8 3 9 4 7 5 3 6 4 7 30 8 5 9 29 10 6 11 28 12
REMARK SMILES IDX 27 13 2 14 1 15 31 16 32 17 12 18 13 19 26 20 14 21 25 22
REMARK SMILES IDX 15 23 16 24 17 25 18 26 24 27 19 28 20 29 21 30 22 31 23 32
REMARK H PARENT
ROOT
ATOM      1  C   UNL     1     -13.712 -45.372  26.506  1.00  0.00     0.044 C 
ENDROOT
BRANCH   1   2
ATOM      2  C   UNL     1     -14.556 -44.107  26.664  1.00  0.00     0.087 C 
BRANCH   2   3
ATOM      3  C   UNL     1     -14.880 -43.483  25.311  1.00  0.00     0.173 C 
ATOM      4  O   UNL     1     -14.021 -43.460  24.429  1.00  0.00    -0.293 OA
BRANCH   3   5
ATOM      5  C   UNL     1     -16.224 -42.936  25.151  1.00  0.00     0.071 A 
ATOM      6  C   UNL     1     -20.658 -41.181  25.422  1.00  0.00     0.161 A 
ATOM      7  C   UNL     1     -19.580 -41.662  26.178  1.00  0.00     0.060 A 
ATOM      8  C   UNL     1     -20.563 -41.125  24.022  1.00  0.00     0.162 A 
ATOM      9  C   UNL     1     -18.390 -42.096  25.545  1.00  0.00    -0.003 A 
ATOM     10  C   UNL     1     -19.393 -41.549  23.379  1.00  0.00     0.070 A 
ATOM     11  C   UNL     1     -17.173 -42.620  26.103  1.00  0.00     0.032 A 
ATOM     12  C   UNL     1     -18.320 -42.031  24.155  1.00  0.00     0.039 A 
ATOM     13  S   UNL     1     -16.803 -42.599  23.578  1.00  0.00    -0.132 S 
BRANCH   6  14
ATOM     14  O   UNL     1     -21.843 -40.742  25.960  1.00  0.00    -0.493 OA
ATOM     15  C   UNL     1     -22.662 -41.686  26.634  1.00  0.00     0.278 C 
ENDBRANCH   6  14
BRANCH   8  16
ATOM     16  O   UNL     1     -21.667 -40.639  23.366  1.00  0.00    -0.493 OA
ATOM     17  C   UNL     1     -21.479 -40.080  22.072  1.00  0.00     0.278 C 
ENDBRANCH   8  16
ENDBRANCH   3   5
ENDBRANCH   2   3
ENDBRANCH   1   2
BRANCH   1  18
ATOM     18  C   UNL     1     -12.886 -45.676  27.734  1.00  0.00    -0.036 A 
ATOM     19  C   UNL     1     -11.592 -46.184  27.615  1.00  0.00     0.074 A 
ATOM     20  C   UNL     1     -13.394 -45.443  29.011  1.00  0.00     0.074 A 
ATOM     21  C   UNL     1     -10.840 -46.433  28.758  1.00  0.00     0.309 A 
ATOM     22  C   UNL     1     -12.606 -45.702  30.127  1.00  0.00     0.309 A 
ATOM     23  N   UNL     1     -11.352 -46.193  29.989  1.00  0.00    -0.198 N 
BRANCH  23  24
ATOM     24  C   UNL     1     -10.523 -46.451  31.193  1.00  0.00     0.432 C 
BRANCH  24  25
ATOM     25  C   UNL     1     -10.046 -45.169  31.776  1.00  0.00     0.176 A 
ATOM     26  C   UNL     1      -8.803 -44.583  31.929  1.00  0.00     0.060 A 
ATOM     27  O   UNL     1     -11.014 -44.345  32.281  1.00  0.00    -0.399 OA
ATOM     28  C   UNL     1      -9.017 -43.329  32.567  1.00  0.00     0.134 A 
ATOM     29  C   UNL     1     -10.375 -43.240  32.757  1.00  0.00     0.433 A 
BRANCH  29  30
ATOM     30  N   UNL     1     -11.204 -42.236  33.347  1.00  0.00     0.102 N 
ATOM     31  O   UNL     1     -12.366 -42.149  32.927  1.00  0.00    -0.256 OA
ATOM     32  O   UNL     1     -10.687 -41.546  34.232  1.00  0.00    -0.256 OA
ENDBRANCH  29  30
ENDBRANCH  24  25
ENDBRANCH  23  24
ENDBRANCH   1  18
TORSDOF 9
ENDMDL
MODEL 4
REMARK VINA RESULT:   -10.396      1.606      2.661
REMARK INTER + INTRA:         -16.498
REMARK INTER:                 -15.757
REMARK INTRA:                  -0.740
REMARK UNBOUND:                -0.631
REMARK SMILES COc1cc2cc(C(=O)CCc3cc[n+](Cc4ccc([N+](=O)[O-])o4)cc3)sc2cc1OC
REMARK SMILES IDX 11 1 10 2 8 3 9 4 7 5 3 6 4 7 30 8 5 9 29 10 6 11 28 12
REMARK SMILES IDX 27 13 2 14 1 15 31 16 32 17 12 18 13 19 26 20 14 21 25 22
REMARK SMILES IDX 15 23 16 24 17 25 18 26 24 27 19 28 20 29 21 30 22 31 23 32
REMARK H PARENT
ROOT
ATOM      1  C   UNL     1     -13.726 -42.981  25.930  1.00  0.00     0.044 C 
ENDROOT
BRANCH   1   2
ATOM      2  C   UNL     1     -15.211 -43.291  25.743  1.00  0.00     0.087 C 
BRANCH   2   3
ATOM      3  C   UNL     1     -15.571 -43.417  24.266  1.00  0.00     0.173 C 
ATOM      4  O   UNL     1     -14.909 -44.157  23.539  1.00  0.00    -0.293 OA
BRANCH   3   5
ATOM      5  C   UNL     1     -16.705 -42.624  23.802  1.00  0.00     0.071 A 
ATOM      6  C   UNL     1     -19.924 -39.784  21.706  1.00  0.00     0.161 A 
ATOM      7  C   UNL     1     -18.601 -40.244  21.638  1.00  0.00     0.060 A 
ATOM      8  C   UNL     1     -20.771 -40.237  22.731  1.00  0.00     0.162 A 
ATOM      9  C   UNL     1     -18.105 -41.164  22.594  1.00  0.00    -0.003 A 
ATOM     10  C   UNL     1     -20.298 -41.146  23.684  1.00  0.00     0.070 A 
ATOM     11  C   UNL     1     -16.806 -41.765  22.725  1.00  0.00     0.032 A 
ATOM     12  C   UNL     1     -18.965 -41.597  23.601  1.00  0.00     0.039 A 
ATOM     13  S   UNL     1     -18.183 -42.704  24.658  1.00  0.00    -0.132 S 
BRANCH   6  14
ATOM     14  O   UNL     1     -20.478 -38.895  20.818  1.00  0.00    -0.493 OA
ATOM     15  C   UNL     1     -20.518 -39.257  19.446  1.00  0.00     0.278 C 
ENDBRANCH   6  14
BRANCH   8  16
ATOM     16  O   UNL     1     -22.049 -39.733  22.716  1.00  0.00    -0.493 OA
ATOM     17  C   UNL     1     -22.903 -40.056  23.806  1.00  0.00     0.278 C 
ENDBRANCH   8  16
ENDBRANCH   3   5
ENDBRANCH   2   3
ENDBRANCH   1   2
BRANCH   1  18
ATOM     18  C   UNL     1     -13.134 -43.678  27.132  1.00  0.00    -0.036 A 
ATOM     19  C   UNL     1     -13.818 -44.715  27.764  1.00  0.00     0.074 A 
ATOM     20  C   UNL     1     -11.884 -43.306  27.627  1.00  0.00     0.074 A 
ATOM     21  C   UNL     1     -13.244 -45.359  28.854  1.00  0.00     0.309 A 
ATOM     22  C   UNL     1     -11.344 -43.980  28.718  1.00  0.00     0.309 A 
ATOM     23  N   UNL     1     -12.025 -44.986  29.315  1.00  0.00    -0.198 N 
BRANCH  23  24
ATOM     24  C   UNL     1     -11.426 -45.700  30.469  1.00  0.00     0.432 C 
BRANCH  24  25
ATOM     25  C   UNL     1     -10.861 -44.727  31.442  1.00  0.00     0.176 A 
ATOM     26  C   UNL     1     -11.409 -43.766  32.272  1.00  0.00     0.060 A 
ATOM     27  O   UNL     1      -9.502 -44.752  31.593  1.00  0.00    -0.399 OA
ATOM     28  C   UNL     1     -10.326 -43.163  32.972  1.00  0.00     0.134 A 
ATOM     29  C   UNL     1      -9.196 -43.800  32.518  1.00  0.00     0.433 A 
BRANCH  29  30
ATOM     30  N   UNL     1      -7.810 -43.643  32.827  1.00  0.00     0.102 N 
ATOM     31  O   UNL     1      -7.516 -42.787  33.673  1.00  0.00    -0.256 OA
ATOM     32  O   UNL     1      -7.024 -44.383  32.226  1.00  0.00    -0.256 OA
ENDBRANCH  29  30
ENDBRANCH  24  25
ENDBRANCH  23  24
ENDBRANCH   1  18
TORSDOF 9
ENDMDL
MODEL 5
REMARK VINA RESULT:   -10.269      2.153      3.194
REMARK INTER + INTRA:         -16.303
REMARK INTER:                 -15.805
REMARK INTRA:                  -0.498
REMARK UNBOUND:                -0.631
REMARK SMILES COc1cc2cc(C(=O)CCc3cc[n+](Cc4ccc([N+](=O)[O-])o4)cc3)sc2cc1OC
REMARK SMILES IDX 11 1 10 2 8 3 9 4 7 5 3 6 4 7 30 8 5 9 29 10 6 11 28 12
REMARK SMILES IDX 27 13 2 14 1 15 31 16 32 17 12 18 13 19 26 20 14 21 25 22
REMARK SMILES IDX 15 23 16 24 17 25 18 26 24 27 19 28 20 29 21 30 22 31 23 32
REMARK H PARENT
ROOT
ATOM      1  C   UNL     1     -14.531 -44.289  26.445  1.00  0.00     0.044 C 
ENDROOT
BRANCH   1   2
ATOM      2  C   UNL     1     -14.740 -42.984  25.676  1.00  0.00     0.087 C 
BRANCH   2   3
ATOM      3  C   UNL     1     -15.224 -43.248  24.254  1.00  0.00     0.173 C 
ATOM      4  O   UNL     1     -14.586 -44.007  23.524  1.00  0.00    -0.293 OA
BRANCH   3   5
ATOM      5  C   UNL     1     -16.443 -42.559  23.842  1.00  0.00     0.071 A 
ATOM      6  C   UNL     1     -20.018 -40.100  21.844  1.00  0.00     0.161 A 
ATOM      7  C   UNL     1     -18.686 -40.505  21.676  1.00  0.00     0.060 A 
ATOM      8  C   UNL     1     -20.725 -40.480  22.995  1.00  0.00     0.162 A 
ATOM      9  C   UNL     1     -18.042 -41.297  22.658  1.00  0.00    -0.003 A 
ATOM     10  C   UNL     1     -20.105 -41.264  23.976  1.00  0.00     0.070 A 
ATOM     11  C   UNL     1     -16.705 -41.823  22.703  1.00  0.00     0.032 A 
ATOM     12  C   UNL     1     -18.765 -41.661  23.791  1.00  0.00     0.039 A 
ATOM     13  S   UNL     1     -17.815 -42.616  24.860  1.00  0.00    -0.132 S 
BRANCH   6  14
ATOM     14  O   UNL     1     -20.711 -39.334  20.939  1.00  0.00    -0.493 OA
ATOM     15  C   UNL     1     -20.104 -39.070  19.683  1.00  0.00     0.278 C 
ENDBRANCH   6  14
BRANCH   8  16
ATOM     16  O   UNL     1     -22.024 -40.038  23.073  1.00  0.00    -0.493 OA
ATOM     17  C   UNL     1     -22.778 -40.389  24.226  1.00  0.00     0.278 C 
ENDBRANCH   8  16
ENDBRANCH   3   5
ENDBRANCH   2   3
ENDBRANCH   1   2
BRANCH   1  18
ATOM     18  C   UNL     1     -13.257 -44.287  27.255  1.00  0.00    -0.036 A 
ATOM     19  C   UNL     1     -12.895 -45.397  28.019  1.00  0.00     0.074 A 
ATOM     20  C   UNL     1     -12.407 -43.181  27.247  1.00  0.00     0.074 A 
ATOM     21  C   UNL     1     -11.706 -45.384  28.738  1.00  0.00     0.309 A 
ATOM     22  C   UNL     1     -11.224 -43.211  27.978  1.00  0.00     0.309 A 
ATOM     23  N   UNL     1     -10.893 -44.300  28.710  1.00  0.00    -0.198 N 
BRANCH  23  24
ATOM     24  C   UNL     1      -9.620 -44.317  29.473  1.00  0.00     0.432 C 
BRANCH  24  25
ATOM     25  C   UNL     1      -9.846 -43.844  30.865  1.00  0.00     0.176 A 
ATOM     26  C   UNL     1      -9.039 -43.714  31.981  1.00  0.00     0.060 A 
ATOM     27  O   UNL     1     -11.115 -43.427  31.156  1.00  0.00    -0.399 OA
ATOM     28  C   UNL     1      -9.859 -43.189  33.019  1.00  0.00     0.134 A 
ATOM     29  C   UNL     1     -11.106 -43.037  32.462  1.00  0.00     0.433 A 
BRANCH  29  30
ATOM     30  N   UNL     1     -12.349 -42.567  32.988  1.00  0.00     0.102 N 
ATOM     31  O   UNL     1     -13.374 -42.863  32.359  1.00  0.00    -0.256 OA
ATOM     32  O   UNL     1     -12.290 -41.910  34.033  1.00  0.00    -0.256 OA
ENDBRANCH  29  30
ENDBRANCH  24  25
ENDBRANCH  23  24
ENDBRANCH   1  18
TORSDOF 9
ENDMDL
MODEL 6
REMARK VINA RESULT:   -10.253      1.787      2.892
REMARK INTER + INTRA:         -16.279
REMARK INTER:                 -15.747
REMARK INTRA:                  -0.532
REMARK UNBOUND:                -0.631
REMARK SMILES COc1cc2cc(C(=O)CCc3cc[n+](Cc4ccc([N+](=O)[O-])o4)cc3)sc2cc1OC
REMARK SMILES IDX 11 1 10 2 8 3 9 4 7 5 3 6 4 7 30 8 5 9 29 10 6 11 28 12
REMARK SMILES IDX 27 13 2 14 1 15 31 16 32 17 12 18 13 19 26 20 14 21 25 22
REMARK SMILES IDX 15 23 16 24 17 25 18 26 24 27 19 28 20 29 21 30 22 31 23 32
REMARK H PARENT
ROOT
ATOM      1  C   UNL     1     -13.647 -45.606  27.401  1.00  0.00     0.044 C 
ENDROOT
BRANCH   1   2
ATOM      2  C   UNL     1     -14.313 -44.235  27.527  1.00  0.00     0.087 C 
BRANCH   2   3
ATOM      3  C   UNL     1     -14.172 -43.428  26.241  1.00  0.00     0.173 C 
ATOM      4  O   UNL     1     -13.050 -43.157  25.812  1.00  0.00    -0.293 OA
BRANCH   3   5
ATOM      5  C   UNL     1     -15.412 -43.016  25.591  1.00  0.00     0.071 A 
ATOM      6  C   UNL     1     -19.052 -41.711  22.787  1.00  0.00     0.161 A 
ATOM      7  C   UNL     1     -17.700 -42.082  22.792  1.00  0.00     0.060 A 
ATOM      8  C   UNL     1     -19.766 -41.649  23.994  1.00  0.00     0.162 A 
ATOM      9  C   UNL     1     -17.041 -42.396  24.006  1.00  0.00    -0.003 A 
ATOM     10  C   UNL     1     -19.132 -41.958  25.203  1.00  0.00     0.070 A 
ATOM     11  C   UNL     1     -15.683 -42.795  24.255  1.00  0.00     0.032 A 
ATOM     12  C   UNL     1     -17.772 -42.327  25.190  1.00  0.00     0.039 A 
ATOM     13  S   UNL     1     -16.802 -42.742  26.548  1.00  0.00    -0.132 S 
BRANCH   6  14
ATOM     14  O   UNL     1     -19.760 -41.393  21.654  1.00  0.00    -0.493 OA
ATOM     15  C   UNL     1     -19.517 -40.134  21.044  1.00  0.00     0.278 C 
ENDBRANCH   6  14
BRANCH   8  16
ATOM     16  O   UNL     1     -21.085 -41.278  23.891  1.00  0.00    -0.493 OA
ATOM     17  C   UNL     1     -21.738 -40.812  25.064  1.00  0.00     0.278 C 
ENDBRANCH   8  16
ENDBRANCH   3   5
ENDBRANCH   2   3
ENDBRANCH   1   2
BRANCH   1  18
ATOM     18  C   UNL     1     -12.568 -45.825  28.436  1.00  0.00    -0.036 A 
ATOM     19  C   UNL     1     -11.223 -45.859  28.069  1.00  0.00     0.074 A 
ATOM     20  C   UNL     1     -12.894 -45.984  29.783  1.00  0.00     0.074 A 
ATOM     21  C   UNL     1     -10.246 -46.038  29.041  1.00  0.00     0.309 A 
ATOM     22  C   UNL     1     -11.884 -46.156  30.723  1.00  0.00     0.309 A 
ATOM     23  N   UNL     1     -10.585 -46.184  30.345  1.00  0.00    -0.198 N 
BRANCH  23  24
ATOM     24  C   UNL     1      -9.522 -46.355  31.365  1.00  0.00     0.432 C 
BRANCH  24  25
ATOM     25  C   UNL     1      -9.193 -45.048  31.994  1.00  0.00     0.176 A 
ATOM     26  C   UNL     1      -8.014 -44.372  32.252  1.00  0.00     0.060 A 
ATOM     27  O   UNL     1     -10.258 -44.306  32.422  1.00  0.00    -0.399 OA
ATOM     28  C   UNL     1      -8.374 -43.145  32.877  1.00  0.00     0.134 A 
ATOM     29  C   UNL     1      -9.746 -43.161  32.955  1.00  0.00     0.433 A 
BRANCH  29  30
ATOM     30  N   UNL     1     -10.694 -42.230  33.481  1.00  0.00     0.102 N 
ATOM     31  O   UNL     1     -10.262 -41.366  34.256  1.00  0.00    -0.256 OA
ATOM     32  O   UNL     1     -11.864 -42.366  33.108  1.00  0.00    -0.256 OA
ENDBRANCH  29  30
ENDBRANCH  24  25
ENDBRANCH  23  24
ENDBRANCH   1  18
TORSDOF 9
ENDMDL
MODEL 7
REMARK VINA RESULT:   -10.098      1.916      2.259
REMARK INTER + INTRA:         -16.042
REMARK INTER:                 -15.265
REMARK INTRA:                  -0.777
REMARK UNBOUND:                -0.631
REMARK SMILES COc1cc2cc(C(=O)CCc3cc[n+](Cc4ccc([N+](=O)[O-])o4)cc3)sc2cc1OC
REMARK SMILES IDX 11 1 10 2 8 3 9 4 7 5 3 6 4 7 30 8 5 9 29 10 6 11 28 12
REMARK SMILES IDX 27 13 2 14 1 15 31 16 32 17 12 18 13 19 26 20 14 21 25 22
REMARK SMILES IDX 15 23 16 24 17 25 18 26 24 27 19 28 20 29 21 30 22 31 23 32
REMARK H PARENT
ROOT
ATOM      1  C   UNL     1     -13.492 -43.246  26.323  1.00  0.00     0.044 C 
ENDROOT
BRANCH   1   2
ATOM      2  C   UNL     1     -14.862 -43.870  26.055  1.00  0.00     0.087 C 
BRANCH   2   3
ATOM      3  C   UNL     1     -15.980 -43.047  26.683  1.00  0.00     0.173 C 
ATOM      4  O   UNL     1     -15.956 -42.806  27.890  1.00  0.00    -0.293 OA
BRANCH   3   5
ATOM      5  C   UNL     1     -17.037 -42.590  25.785  1.00  0.00     0.071 A 
ATOM      6  C   UNL     1     -20.927 -41.011  23.508  1.00  0.00     0.161 A 
ATOM      7  C   UNL     1     -20.398 -41.322  24.768  1.00  0.00     0.060 A 
ATOM      8  C   UNL     1     -20.137 -41.167  22.358  1.00  0.00     0.162 A 
ATOM      9  C   UNL     1     -19.070 -41.796  24.898  1.00  0.00    -0.003 A 
ATOM     10  C   UNL     1     -18.821 -41.633  22.467  1.00  0.00     0.070 A 
ATOM     11  C   UNL     1     -18.323 -42.173  26.066  1.00  0.00     0.032 A 
ATOM     12  C   UNL     1     -18.306 -41.942  23.742  1.00  0.00     0.039 A 
ATOM     13  S   UNL     1     -16.729 -42.526  24.104  1.00  0.00    -0.132 S 
BRANCH   6  14
ATOM     14  O   UNL     1     -22.203 -40.547  23.300  1.00  0.00    -0.493 OA
ATOM     15  C   UNL     1     -23.286 -41.428  23.560  1.00  0.00     0.278 C 
ENDBRANCH   6  14
BRANCH   8  16
ATOM     16  O   UNL     1     -20.739 -40.837  21.169  1.00  0.00    -0.493 OA
ATOM     17  C   UNL     1     -20.996 -41.883  20.241  1.00  0.00     0.278 C 
ENDBRANCH   8  16
ENDBRANCH   3   5
ENDBRANCH   2   3
ENDBRANCH   1   2
BRANCH   1  18
ATOM     18  C   UNL     1     -12.751 -43.931  27.446  1.00  0.00    -0.036 A 
ATOM     19  C   UNL     1     -13.252 -45.097  28.025  1.00  0.00     0.074 A 
ATOM     20  C   UNL     1     -11.543 -43.419  27.921  1.00  0.00     0.074 A 
ATOM     21  C   UNL     1     -12.541 -45.725  29.041  1.00  0.00     0.309 A 
ATOM     22  C   UNL     1     -10.862 -44.081  28.936  1.00  0.00     0.309 A 
ATOM     23  N   UNL     1     -11.365 -45.213  29.482  1.00  0.00    -0.198 N 
BRANCH  23  24
ATOM     24  C   UNL     1     -10.617 -45.912  30.556  1.00  0.00     0.432 C 
BRANCH  24  25
ATOM     25  C   UNL     1      -9.959 -44.924  31.453  1.00  0.00     0.176 A 
ATOM     26  C   UNL     1      -8.644 -44.570  31.696  1.00  0.00     0.060 A 
ATOM     27  O   UNL     1     -10.795 -44.166  32.224  1.00  0.00    -0.399 OA
ATOM     28  C   UNL     1      -8.672 -43.538  32.675  1.00  0.00     0.134 A 
ATOM     29  C   UNL     1     -10.002 -43.336  32.958  1.00  0.00     0.433 A 
BRANCH  29  30
ATOM     30  N   UNL     1     -10.675 -42.449  33.855  1.00  0.00     0.102 N 
ATOM     31  O   UNL     1     -11.823 -42.102  33.546  1.00  0.00    -0.256 OA
ATOM     32  O   UNL     1     -10.051 -42.112  34.866  1.00  0.00    -0.256 OA
ENDBRANCH  29  30
ENDBRANCH  24  25
ENDBRANCH  23  24
ENDBRANCH   1  18
TORSDOF 9
ENDMDL
MODEL 8
REMARK VINA RESULT:   -10.089      4.119     10.508
REMARK INTER + INTRA:         -16.029
REMARK INTER:                 -15.242
REMARK INTRA:                  -0.787
REMARK UNBOUND:                -0.631
REMARK SMILES COc1cc2cc(C(=O)CCc3cc[n+](Cc4ccc([N+](=O)[O-])o4)cc3)sc2cc1OC
REMARK SMILES IDX 11 1 10 2 8 3 9 4 7 5 3 6 4 7 30 8 5 9 29 10 6 11 28 12
REMARK SMILES IDX 27 13 2 14 1 15 31 16 32 17 12 18 13 19 26 20 14 21 25 22
REMARK SMILES IDX 15 23 16 24 17 25 18 26 24 27 19 28 20 29 21 30 22 31 23 32
REMARK H PARENT
ROOT
ATOM      1  C   UNL     1     -13.342 -44.102  26.540  1.00  0.00     0.044 C 
ENDROOT
BRANCH   1   2
ATOM      2  C   UNL     1     -13.384 -45.584  26.916  1.00  0.00     0.087 C 
BRANCH   2   3
ATOM      3  C   UNL     1     -12.364 -45.911  28.001  1.00  0.00     0.173 C 
ATOM      4  O   UNL     1     -11.529 -46.795  27.806  1.00  0.00    -0.293 OA
BRANCH   3   5
ATOM      5  C   UNL     1     -12.452 -45.134  29.234  1.00  0.00     0.071 A 
ATOM      6  C   UNL     1     -13.512 -42.783  33.255  1.00  0.00     0.161 A 
ATOM      7  C   UNL     1     -14.048 -43.572  32.226  1.00  0.00     0.060 A 
ATOM      8  C   UNL     1     -12.145 -42.466  33.255  1.00  0.00     0.162 A 
ATOM      9  C   UNL     1     -13.222 -44.055  31.182  1.00  0.00    -0.003 A 
ATOM     10  C   UNL     1     -11.313 -42.936  32.231  1.00  0.00     0.070 A 
ATOM     11  C   UNL     1     -13.541 -44.867  30.039  1.00  0.00     0.032 A 
ATOM     12  C   UNL     1     -11.869 -43.727  31.204  1.00  0.00     0.039 A 
ATOM     13  S   UNL     1     -11.038 -44.403  29.859  1.00  0.00    -0.132 S 
BRANCH   6  14
ATOM     14  O   UNL     1     -14.245 -42.279  34.301  1.00  0.00    -0.493 OA
ATOM     15  C   UNL     1     -15.230 -41.297  34.015  1.00  0.00     0.278 C 
ENDBRANCH   6  14
BRANCH   8  16
ATOM     16  O   UNL     1     -11.710 -41.691  34.302  1.00  0.00    -0.493 OA
ATOM     17  C   UNL     1     -10.314 -41.651  34.566  1.00  0.00     0.278 C 
ENDBRANCH   8  16
ENDBRANCH   3   5
ENDBRANCH   2   3
ENDBRANCH   1   2
BRANCH   1  18
ATOM     18  C   UNL     1     -14.642 -43.617  25.943  1.00  0.00    -0.036 A 
ATOM     19  C   UNL     1     -14.886 -43.734  24.574  1.00  0.00     0.074 A 
ATOM     20  C   UNL     1     -15.631 -43.054  26.749  1.00  0.00     0.074 A 
ATOM     21  C   UNL     1     -16.099 -43.303  24.050  1.00  0.00     0.309 A 
ATOM     22  C   UNL     1     -16.832 -42.641  26.183  1.00  0.00     0.309 A 
ATOM     23  N   UNL     1     -17.049 -42.766  24.853  1.00  0.00    -0.198 N 
BRANCH  23  24
ATOM     24  C   UNL     1     -18.342 -42.329  24.271  1.00  0.00     0.432 C 
BRANCH  24  25
ATOM     25  C   UNL     1     -19.393 -42.285  25.322  1.00  0.00     0.176 A 
ATOM     26  C   UNL     1     -20.103 -41.267  25.933  1.00  0.00     0.060 A 
ATOM     27  O   UNL     1     -19.786 -43.494  25.826  1.00  0.00    -0.399 OA
ATOM     28  C   UNL     1     -20.981 -41.884  26.868  1.00  0.00     0.134 A 
ATOM     29  C   UNL     1     -20.744 -43.234  26.760  1.00  0.00     0.433 A 
BRANCH  29  30
ATOM     30  N   UNL     1     -21.297 -44.368  27.430  1.00  0.00     0.102 N 
ATOM     31  O   UNL     1     -21.789 -45.255  26.720  1.00  0.00    -0.256 OA
ATOM     32  O   UNL     1     -21.229 -44.365  28.664  1.00  0.00    -0.256 OA
ENDBRANCH  29  30
ENDBRANCH  24  25
ENDBRANCH  23  24
ENDBRANCH   1  18
TORSDOF 9
ENDMDL
MODEL 9
REMARK VINA RESULT:    -9.768      2.561      3.875
REMARK INTER + INTRA:         -15.539
REMARK INTER:                 -14.683
REMARK INTRA:                  -0.856
REMARK UNBOUND:                -0.631
REMARK SMILES COc1cc2cc(C(=O)CCc3cc[n+](Cc4ccc([N+](=O)[O-])o4)cc3)sc2cc1OC
REMARK SMILES IDX 11 1 10 2 8 3 9 4 7 5 3 6 4 7 30 8 5 9 29 10 6 11 28 12
REMARK SMILES IDX 27 13 2 14 1 15 31 16 32 17 12 18 13 19 26 20 14 21 25 22
REMARK SMILES IDX 15 23 16 24 17 25 18 26 24 27 19 28 20 29 21 30 22 31 23 32
REMARK H PARENT
ROOT
ATOM      1  C   UNL     1     -15.965 -42.425  23.736  1.00  0.00     0.044 C 
ENDROOT
BRANCH   1   2
ATOM      2  C   UNL     1     -17.400 -42.846  23.420  1.00  0.00     0.087 C 
BRANCH   2   3
ATOM      3  C   UNL     1     -18.254 -41.649  23.016  1.00  0.00     0.173 C 
ATOM      4  O   UNL     1     -17.929 -40.969  22.043  1.00  0.00    -0.293 OA
BRANCH   3   5
ATOM      5  C   UNL     1     -19.430 -41.380  23.839  1.00  0.00     0.071 A 
ATOM      6  C   UNL     1     -22.882 -40.886  27.103  1.00  0.00     0.161 A 
ATOM      7  C   UNL     1     -21.603 -41.412  26.875  1.00  0.00     0.060 A 
ATOM      8  C   UNL     1     -23.554 -40.208  26.073  1.00  0.00     0.162 A 
ATOM      9  C   UNL     1     -20.976 -41.268  25.613  1.00  0.00    -0.003 A 
ATOM     10  C   UNL     1     -22.950 -40.055  24.820  1.00  0.00     0.070 A 
ATOM     11  C   UNL     1     -19.690 -41.716  25.153  1.00  0.00     0.032 A 
ATOM     12  C   UNL     1     -21.664 -40.591  24.608  1.00  0.00     0.039 A 
ATOM     13  S   UNL     1     -20.743 -40.521  23.158  1.00  0.00    -0.132 S 
BRANCH   6  14
ATOM     14  O   UNL     1     -23.555 -40.983  28.296  1.00  0.00    -0.493 OA
ATOM     15  C   UNL     1     -24.395 -42.110  28.501  1.00  0.00     0.278 C 
ENDBRANCH   6  14
BRANCH   8  16
ATOM     16  O   UNL     1     -24.802 -39.727  26.389  1.00  0.00    -0.493 OA
ATOM     17  C   UNL     1     -24.959 -38.319  26.514  1.00  0.00     0.278 C 
ENDBRANCH   8  16
ENDBRANCH   3   5
ENDBRANCH   2   3
ENDBRANCH   1   2
BRANCH   1  18
ATOM     18  C   UNL     1     -15.445 -43.044  25.011  1.00  0.00    -0.036 A 
ATOM     19  C   UNL     1     -15.890 -42.597  26.255  1.00  0.00     0.074 A 
ATOM     20  C   UNL     1     -14.517 -44.085  24.972  1.00  0.00     0.074 A 
ATOM     21  C   UNL     1     -15.417 -43.198  27.416  1.00  0.00     0.309 A 
ATOM     22  C   UNL     1     -14.072 -44.661  26.157  1.00  0.00     0.309 A 
ATOM     23  N   UNL     1     -14.520 -44.213  27.353  1.00  0.00    -0.198 N 
BRANCH  23  24
ATOM     24  C   UNL     1     -14.043 -44.849  28.606  1.00  0.00     0.432 C 
BRANCH  24  25
ATOM     25  C   UNL     1     -12.557 -44.837  28.658  1.00  0.00     0.176 A 
ATOM     26  C   UNL     1     -11.586 -45.821  28.710  1.00  0.00     0.060 A 
ATOM     27  O   UNL     1     -11.968 -43.603  28.646  1.00  0.00    -0.399 OA
ATOM     28  C   UNL     1     -10.329 -45.155  28.734  1.00  0.00     0.134 A 
ATOM     29  C   UNL     1     -10.623 -43.813  28.695  1.00  0.00     0.433 A 
BRANCH  29  30
ATOM     30  N   UNL     1      -9.801 -42.644  28.702  1.00  0.00     0.102 N 
ATOM     31  O   UNL     1     -10.212 -41.664  28.064  1.00  0.00    -0.256 OA
ATOM     32  O   UNL     1      -8.753 -42.712  29.352  1.00  0.00    -0.256 OA
ENDBRANCH  29  30
ENDBRANCH  24  25
ENDBRANCH  23  24
ENDBRANCH   1  18
TORSDOF 9
ENDMDL
