MODEL 1
REMARK VINA RESULT:   -12.173      0.000      0.000
REMARK INTER + INTRA:         -17.094
REMARK INTER:                 -16.443
REMARK INTRA:                  -0.650
REMARK UNBOUND:                -0.650
REMARK SMILES COc1cc2c(cc1OC)C(=O)/C(=C/c1cc[n+](Cc3cccc(F)c3)cc1)C2
REMARK SMILES IDX 15 1 16 2 17 3 18 4 27 5 28 6 14 7 13 8 3 9 4 10 8 11 5 12
REMARK SMILES IDX 7 13 6 14 29 15 11 16 12 17 2 18 1 19 9 20 10 21 19 22 20 23
REMARK SMILES IDX 21 24 26 25 22 26 24 27 23 28 25 29
REMARK H PARENT
ROOT
ATOM      1  C   UNL     1     -12.984 -44.291  27.720  1.00  0.00    -0.013 A 
ATOM      2  C   UNL     1     -13.641 -45.106  28.638  1.00  0.00     0.079 A 
ATOM      3  C   UNL     1     -13.149 -45.223  29.933  1.00  0.00     0.309 A 
ATOM      4  N   UNL     1     -12.043 -44.543  30.314  1.00  0.00    -0.201 N 
ATOM      5  C   UNL     1     -11.392 -43.741  29.437  1.00  0.00     0.309 A 
ATOM      6  C   UNL     1     -11.850 -43.597  28.131  1.00  0.00     0.079 A 
ENDROOT
BRANCH   1   7
ATOM      7  C   UNL     1     -13.543 -44.136  26.377  1.00  0.00     0.016 C 
BRANCH   7   8
ATOM      8  C   UNL     1     -14.758 -43.650  26.093  1.00  0.00     0.005 C 
ATOM      9  C   UNL     1     -18.987 -41.777  25.203  1.00  0.00     0.161 A 
ATOM     10  C   UNL     1     -18.148 -42.109  26.279  1.00  0.00     0.055 A 
ATOM     11  C   UNL     1     -18.579 -42.025  23.863  1.00  0.00     0.161 A 
ATOM     12  C   UNL     1     -16.915 -42.682  26.005  1.00  0.00    -0.028 A 
ATOM     13  C   UNL     1     -17.334 -42.604  23.603  1.00  0.00     0.063 A 
ATOM     14  C   UNL     1     -16.534 -42.917  24.686  1.00  0.00     0.030 A 
ATOM     15  C   UNL     1     -15.861 -43.121  26.977  1.00  0.00     0.076 C 
ATOM     16  C   UNL     1     -15.200 -43.520  24.669  1.00  0.00     0.189 C 
ATOM     17  O   UNL     1     -14.568 -43.847  23.684  1.00  0.00    -0.289 OA
BRANCH   9  18
ATOM     18  O   UNL     1     -20.229 -41.205  25.346  1.00  0.00    -0.493 OA
ATOM     19  C   UNL     1     -20.827 -41.217  26.633  1.00  0.00     0.278 C 
ENDBRANCH   9  18
BRANCH  11  20
ATOM     20  O   UNL     1     -19.477 -41.662  22.888  1.00  0.00    -0.493 OA
ATOM     21  C   UNL     1     -19.119 -40.595  22.021  1.00  0.00     0.278 C 
ENDBRANCH  11  20
ENDBRANCH   7   8
ENDBRANCH   1   7
BRANCH   4  22
ATOM     22  C   UNL     1     -11.532 -44.678  31.702  1.00  0.00     0.393 C 
BRANCH  22  23
ATOM     23  C   UNL     1     -10.049 -44.940  31.712  1.00  0.00     0.020 A 
ATOM     24  C   UNL     1      -9.528 -46.167  31.265  1.00  0.00     0.010 A 
ATOM     25  C   UNL     1      -9.158 -43.958  32.170  1.00  0.00     0.049 A 
ATOM     26  C   UNL     1      -8.151 -46.406  31.288  1.00  0.00     0.004 A 
ATOM     27  C   UNL     1      -7.789 -44.210  32.188  1.00  0.00     0.123 A 
ATOM     28  C   UNL     1      -7.278 -45.425  31.754  1.00  0.00     0.039 A 
ATOM     29  F   UNL     1      -6.958 -43.263  32.637  1.00  0.00    -0.207 F 
ENDBRANCH  22  23
ENDBRANCH   4  22
TORSDOF 6
ENDMDL
MODEL 2
REMARK VINA RESULT:   -11.640      0.933      1.310
REMARK INTER + INTRA:         -16.374
REMARK INTER:                 -16.023
REMARK INTRA:                  -0.351
REMARK UNBOUND:                -0.650
REMARK SMILES COc1cc2c(cc1OC)C(=O)/C(=C/c1cc[n+](Cc3cccc(F)c3)cc1)C2
REMARK SMILES IDX 15 1 16 2 17 3 18 4 27 5 28 6 14 7 13 8 3 9 4 10 8 11 5 12
REMARK SMILES IDX 7 13 6 14 29 15 11 16 12 17 2 18 1 19 9 20 10 21 19 22 20 23
REMARK SMILES IDX 21 24 26 25 22 26 24 27 23 28 25 29
REMARK H PARENT
ROOT
ATOM      1  C   UNL     1     -12.959 -44.002  27.301  1.00  0.00    -0.013 A 
ATOM      2  C   UNL     1     -13.543 -45.196  27.719  1.00  0.00     0.079 A 
ATOM      3  C   UNL     1     -12.994 -45.893  28.790  1.00  0.00     0.309 A 
ATOM      4  N   UNL     1     -11.906 -45.418  29.438  1.00  0.00    -0.201 N 
ATOM      5  C   UNL     1     -11.327 -44.256  29.050  1.00  0.00     0.309 A 
ATOM      6  C   UNL     1     -11.842 -43.527  27.983  1.00  0.00     0.079 A 
ENDROOT
BRANCH   1   7
ATOM      7  C   UNL     1     -13.576 -43.251  26.208  1.00  0.00     0.016 C 
BRANCH   7   8
ATOM      8  C   UNL     1     -14.892 -43.065  26.040  1.00  0.00     0.005 C 
ATOM      9  C   UNL     1     -19.503 -42.237  25.553  1.00  0.00     0.161 A 
ATOM     10  C   UNL     1     -18.514 -42.339  26.544  1.00  0.00     0.055 A 
ATOM     11  C   UNL     1     -19.174 -42.421  24.180  1.00  0.00     0.161 A 
ATOM     12  C   UNL     1     -17.213 -42.621  26.156  1.00  0.00    -0.028 A 
ATOM     13  C   UNL     1     -17.858 -42.705  23.804  1.00  0.00     0.063 A 
ATOM     14  C   UNL     1     -16.912 -42.797  24.807  1.00  0.00     0.030 A 
ATOM     15  C   UNL     1     -16.001 -42.780  27.024  1.00  0.00     0.076 C 
ATOM     16  C   UNL     1     -15.482 -43.078  24.664  1.00  0.00     0.189 C 
ATOM     17  O   UNL     1     -14.885 -43.278  23.625  1.00  0.00    -0.289 OA
BRANCH   9  18
ATOM     18  O   UNL     1     -20.824 -41.962  25.812  1.00  0.00    -0.493 OA
ATOM     19  C   UNL     1     -21.124 -40.954  26.764  1.00  0.00     0.278 C 
ENDBRANCH   9  18
BRANCH  11  20
ATOM     20  O   UNL     1     -20.218 -42.300  23.295  1.00  0.00    -0.493 OA
ATOM     21  C   UNL     1     -19.956 -41.687  22.040  1.00  0.00     0.278 C 
ENDBRANCH  11  20
ENDBRANCH   7   8
ENDBRANCH   1   7
BRANCH   4  22
ATOM     22  C   UNL     1     -11.336 -46.176  30.581  1.00  0.00     0.393 C 
BRANCH  22  23
ATOM     23  C   UNL     1     -10.259 -45.382  31.274  1.00  0.00     0.020 A 
ATOM     24  C   UNL     1     -10.572 -44.226  32.010  1.00  0.00     0.010 A 
ATOM     25  C   UNL     1      -8.918 -45.788  31.196  1.00  0.00     0.049 A 
ATOM     26  C   UNL     1      -9.565 -43.489  32.640  1.00  0.00     0.004 A 
ATOM     27  C   UNL     1      -7.925 -45.045  31.828  1.00  0.00     0.123 A 
ATOM     28  C   UNL     1      -8.236 -43.899  32.547  1.00  0.00     0.039 A 
ATOM     29  F   UNL     1      -6.653 -45.444  31.735  1.00  0.00    -0.207 F 
ENDBRANCH  22  23
ENDBRANCH   4  22
TORSDOF 6
ENDMDL
MODEL 3
REMARK VINA RESULT:   -10.605      2.741      4.272
REMARK INTER + INTRA:         -14.976
REMARK INTER:                 -14.388
REMARK INTRA:                  -0.587
REMARK UNBOUND:                -0.650
REMARK SMILES COc1cc2c(cc1OC)C(=O)/C(=C/c1cc[n+](Cc3cccc(F)c3)cc1)C2
REMARK SMILES IDX 15 1 16 2 17 3 18 4 27 5 28 6 14 7 13 8 3 9 4 10 8 11 5 12
REMARK SMILES IDX 7 13 6 14 29 15 11 16 12 17 2 18 1 19 9 20 10 21 19 22 20 23
REMARK SMILES IDX 21 24 26 25 22 26 24 27 23 28 25 29
REMARK H PARENT
ROOT
ATOM      1  C   UNL     1     -15.466 -43.053  24.666  1.00  0.00    -0.013 A 
ATOM      2  C   UNL     1     -14.604 -44.146  24.730  1.00  0.00     0.079 A 
ATOM      3  C   UNL     1     -14.217 -44.648  25.968  1.00  0.00     0.309 A 
ATOM      4  N   UNL     1     -14.679 -44.092  27.112  1.00  0.00    -0.201 N 
ATOM      5  C   UNL     1     -15.522 -43.032  27.071  1.00  0.00     0.309 A 
ATOM      6  C   UNL     1     -15.933 -42.498  25.855  1.00  0.00     0.079 A 
ENDROOT
BRANCH   1   7
ATOM      7  C   UNL     1     -15.907 -42.568  23.359  1.00  0.00     0.016 C 
BRANCH   7   8
ATOM      8  C   UNL     1     -17.108 -42.039  23.092  1.00  0.00     0.005 C 
ATOM      9  C   UNL     1     -21.348 -40.127  22.346  1.00  0.00     0.161 A 
ATOM     10  C   UNL     1     -20.710 -41.082  23.155  1.00  0.00     0.055 A 
ATOM     11  C   UNL     1     -20.613 -39.403  21.366  1.00  0.00     0.161 A 
ATOM     12  C   UNL     1     -19.352 -41.301  22.978  1.00  0.00    -0.028 A 
ATOM     13  C   UNL     1     -19.245 -39.635  21.198  1.00  0.00     0.063 A 
ATOM     14  C   UNL     1     -18.651 -40.581  22.013  1.00  0.00     0.030 A 
ATOM     15  C   UNL     1     -18.465 -42.261  23.712  1.00  0.00     0.076 C 
ATOM     16  C   UNL     1     -17.246 -40.992  22.030  1.00  0.00     0.189 C 
ATOM     17  O   UNL     1     -16.359 -40.562  21.321  1.00  0.00    -0.289 OA
BRANCH   9  18
ATOM     18  O   UNL     1     -22.685 -39.822  22.427  1.00  0.00    -0.493 OA
ATOM     19  C   UNL     1     -23.471 -40.507  23.389  1.00  0.00     0.278 C 
ENDBRANCH   9  18
BRANCH  11  20
ATOM     20  O   UNL     1     -21.335 -38.494  20.630  1.00  0.00    -0.493 OA
ATOM     21  C   UNL     1     -21.371 -38.663  19.220  1.00  0.00     0.278 C 
ENDBRANCH  11  20
ENDBRANCH   7   8
ENDBRANCH   1   7
BRANCH   4  22
ATOM     22  C   UNL     1     -14.257 -44.644  28.425  1.00  0.00     0.393 C 
BRANCH  22  23
ATOM     23  C   UNL     1     -12.776 -44.913  28.450  1.00  0.00     0.020 A 
ATOM     24  C   UNL     1     -12.279 -46.228  28.475  1.00  0.00     0.010 A 
ATOM     25  C   UNL     1     -11.862 -43.848  28.449  1.00  0.00     0.049 A 
ATOM     26  C   UNL     1     -10.902 -46.468  28.510  1.00  0.00     0.004 A 
ATOM     27  C   UNL     1     -10.493 -44.103  28.484  1.00  0.00     0.123 A 
ATOM     28  C   UNL     1     -10.006 -45.402  28.517  1.00  0.00     0.039 A 
ATOM     29  F   UNL     1      -9.639 -43.074  28.491  1.00  0.00    -0.207 F 
ENDBRANCH  22  23
ENDBRANCH   4  22
TORSDOF 6
ENDMDL
MODEL 4
REMARK VINA RESULT:   -10.391      1.466      2.477
REMARK INTER + INTRA:         -14.686
REMARK INTER:                 -15.127
REMARK INTRA:                   0.441
REMARK UNBOUND:                -0.650
REMARK SMILES COc1cc2c(cc1OC)C(=O)/C(=C/c1cc[n+](Cc3cccc(F)c3)cc1)C2
REMARK SMILES IDX 15 1 16 2 17 3 18 4 27 5 28 6 14 7 13 8 3 9 4 10 8 11 5 12
REMARK SMILES IDX 7 13 6 14 29 15 11 16 12 17 2 18 1 19 9 20 10 21 19 22 20 23
REMARK SMILES IDX 21 24 26 25 22 26 24 27 23 28 25 29
REMARK H PARENT
ROOT
ATOM      1  C   UNL     1     -13.086 -43.901  27.121  1.00  0.00    -0.013 A 
ATOM      2  C   UNL     1     -13.673 -45.122  27.446  1.00  0.00     0.079 A 
ATOM      3  C   UNL     1     -13.187 -45.855  28.523  1.00  0.00     0.309 A 
ATOM      4  N   UNL     1     -12.158 -45.389  29.267  1.00  0.00    -0.201 N 
ATOM      5  C   UNL     1     -11.578 -44.201  28.970  1.00  0.00     0.309 A 
ATOM      6  C   UNL     1     -12.030 -43.436  27.901  1.00  0.00     0.079 A 
ENDROOT
BRANCH   1   7
ATOM      7  C   UNL     1     -13.640 -43.115  26.019  1.00  0.00     0.016 C 
BRANCH   7   8
ATOM      8  C   UNL     1     -14.944 -42.915  25.787  1.00  0.00     0.005 C 
ATOM      9  C   UNL     1     -19.531 -42.381  24.856  1.00  0.00     0.161 A 
ATOM     10  C   UNL     1     -18.299 -42.553  24.203  1.00  0.00     0.055 A 
ATOM     11  C   UNL     1     -19.594 -42.325  26.277  1.00  0.00     0.161 A 
ATOM     12  C   UNL     1     -17.151 -42.666  24.972  1.00  0.00    -0.028 A 
ATOM     13  C   UNL     1     -18.428 -42.440  27.039  1.00  0.00     0.063 A 
ATOM     14  C   UNL     1     -17.235 -42.608  26.361  1.00  0.00     0.030 A 
ATOM     15  C   UNL     1     -15.738 -42.850  24.505  1.00  0.00     0.076 C 
ATOM     16  C   UNL     1     -15.895 -42.756  26.932  1.00  0.00     0.189 C 
ATOM     17  O   UNL     1     -15.609 -42.757  28.112  1.00  0.00    -0.289 OA
BRANCH   9  18
ATOM     18  O   UNL     1     -20.734 -42.257  24.206  1.00  0.00    -0.493 OA
ATOM     19  C   UNL     1     -20.971 -43.078  23.073  1.00  0.00     0.278 C 
ENDBRANCH   9  18
BRANCH  11  20
ATOM     20  O   UNL     1     -20.848 -42.154  26.812  1.00  0.00    -0.493 OA
ATOM     21  C   UNL     1     -21.331 -40.826  26.958  1.00  0.00     0.278 C 
ENDBRANCH  11  20
ENDBRANCH   7   8
ENDBRANCH   1   7
BRANCH   4  22
ATOM     22  C   UNL     1     -11.654 -46.184  30.416  1.00  0.00     0.393 C 
BRANCH  22  23
ATOM     23  C   UNL     1     -10.573 -45.442  31.157  1.00  0.00     0.020 A 
ATOM     24  C   UNL     1     -10.872 -44.303  31.923  1.00  0.00     0.010 A 
ATOM     25  C   UNL     1      -9.241 -45.880  31.093  1.00  0.00     0.049 A 
ATOM     26  C   UNL     1      -9.860 -43.613  32.598  1.00  0.00     0.004 A 
ATOM     27  C   UNL     1      -8.244 -45.184  31.770  1.00  0.00     0.123 A 
ATOM     28  C   UNL     1      -8.541 -44.054  32.519  1.00  0.00     0.039 A 
ATOM     29  F   UNL     1      -6.980 -45.614  31.689  1.00  0.00    -0.207 F 
ENDBRANCH  22  23
ENDBRANCH   4  22
TORSDOF 6
ENDMDL
MODEL 5
REMARK VINA RESULT:   -10.358      4.459     10.034
REMARK INTER + INTRA:         -14.642
REMARK INTER:                 -13.864
REMARK INTRA:                  -0.778
REMARK UNBOUND:                -0.650
REMARK SMILES COc1cc2c(cc1OC)C(=O)/C(=C/c1cc[n+](Cc3cccc(F)c3)cc1)C2
REMARK SMILES IDX 15 1 16 2 17 3 18 4 27 5 28 6 14 7 13 8 3 9 4 10 8 11 5 12
REMARK SMILES IDX 7 13 6 14 29 15 11 16 12 17 2 18 1 19 9 20 10 21 19 22 20 23
REMARK SMILES IDX 21 24 26 25 22 26 24 27 23 28 25 29
REMARK H PARENT
ROOT
ATOM      1  C   UNL     1     -15.168 -43.141  25.781  1.00  0.00    -0.013 A 
ATOM      2  C   UNL     1     -15.734 -42.915  27.034  1.00  0.00     0.079 A 
ATOM      3  C   UNL     1     -17.068 -42.532  27.129  1.00  0.00     0.309 A 
ATOM      4  N   UNL     1     -17.825 -42.388  26.017  1.00  0.00    -0.201 N 
ATOM      5  C   UNL     1     -17.294 -42.609  24.790  1.00  0.00     0.309 A 
ATOM      6  C   UNL     1     -15.965 -42.991  24.649  1.00  0.00     0.079 A 
ENDROOT
BRANCH   1   7
ATOM      7  C   UNL     1     -13.780 -43.594  25.697  1.00  0.00     0.016 C 
BRANCH   7   8
ATOM      8  C   UNL     1     -12.941 -43.720  26.734  1.00  0.00     0.005 C 
ATOM      9  C   UNL     1     -10.078 -44.001  30.463  1.00  0.00     0.161 A 
ATOM     10  C   UNL     1     -10.514 -43.086  29.492  1.00  0.00     0.055 A 
ATOM     11  C   UNL     1     -10.562 -45.340  30.466  1.00  0.00     0.161 A 
ATOM     12  C   UNL     1     -11.425 -43.515  28.538  1.00  0.00    -0.028 A 
ATOM     13  C   UNL     1     -11.480 -45.758  29.498  1.00  0.00     0.063 A 
ATOM     14  C   UNL     1     -11.887 -44.829  28.558  1.00  0.00     0.030 A 
ATOM     15  C   UNL     1     -12.026 -42.729  27.412  1.00  0.00     0.076 C 
ATOM     16  C   UNL     1     -12.834 -45.025  27.459  1.00  0.00     0.189 C 
ATOM     17  O   UNL     1     -13.427 -46.050  27.191  1.00  0.00    -0.289 OA
BRANCH   9  18
ATOM     18  O   UNL     1      -9.180 -43.697  31.457  1.00  0.00    -0.493 OA
ATOM     19  C   UNL     1      -7.826 -43.476  31.092  1.00  0.00     0.278 C 
ENDBRANCH   9  18
BRANCH  11  20
ATOM     20  O   UNL     1     -10.070 -46.151  31.460  1.00  0.00    -0.493 OA
ATOM     21  C   UNL     1      -8.907 -46.915  31.176  1.00  0.00     0.278 C 
ENDBRANCH  11  20
ENDBRANCH   7   8
ENDBRANCH   1   7
BRANCH   4  22
ATOM     22  C   UNL     1     -19.248 -41.982  26.138  1.00  0.00     0.393 C 
BRANCH  22  23
ATOM     23  C   UNL     1     -20.144 -43.182  26.297  1.00  0.00     0.020 A 
ATOM     24  C   UNL     1     -20.545 -43.939  25.182  1.00  0.00     0.010 A 
ATOM     25  C   UNL     1     -20.595 -43.567  27.569  1.00  0.00     0.049 A 
ATOM     26  C   UNL     1     -21.386 -45.045  25.338  1.00  0.00     0.004 A 
ATOM     27  C   UNL     1     -21.432 -44.670  27.709  1.00  0.00     0.123 A 
ATOM     28  C   UNL     1     -21.833 -45.410  26.606  1.00  0.00     0.039 A 
ATOM     29  F   UNL     1     -21.857 -45.015  28.929  1.00  0.00    -0.207 F 
ENDBRANCH  22  23
ENDBRANCH   4  22
TORSDOF 6
ENDMDL
MODEL 6
REMARK VINA RESULT:    -9.710      4.609     10.540
REMARK INTER + INTRA:         -13.767
REMARK INTER:                 -13.222
REMARK INTRA:                  -0.545
REMARK UNBOUND:                -0.650
REMARK SMILES COc1cc2c(cc1OC)C(=O)/C(=C/c1cc[n+](Cc3cccc(F)c3)cc1)C2
REMARK SMILES IDX 15 1 16 2 17 3 18 4 27 5 28 6 14 7 13 8 3 9 4 10 8 11 5 12
REMARK SMILES IDX 7 13 6 14 29 15 11 16 12 17 2 18 1 19 9 20 10 21 19 22 20 23
REMARK SMILES IDX 21 24 26 25 22 26 24 27 23 28 25 29
REMARK H PARENT
ROOT
ATOM      1  C   UNL     1     -15.374 -43.498  25.863  1.00  0.00    -0.013 A 
ATOM      2  C   UNL     1     -15.923 -43.172  27.102  1.00  0.00     0.079 A 
ATOM      3  C   UNL     1     -17.165 -42.551  27.164  1.00  0.00     0.309 A 
ATOM      4  N   UNL     1     -17.853 -42.270  26.033  1.00  0.00    -0.201 N 
ATOM      5  C   UNL     1     -17.339 -42.584  24.819  1.00  0.00     0.309 A 
ATOM      6  C   UNL     1     -16.098 -43.204  24.711  1.00  0.00     0.079 A 
ENDROOT
BRANCH   1   7
ATOM      7  C   UNL     1     -14.091 -44.198  25.814  1.00  0.00     0.016 C 
BRANCH   7   8
ATOM      8  C   UNL     1     -13.321 -44.483  26.873  1.00  0.00     0.005 C 
ATOM      9  C   UNL     1     -10.532 -45.637  30.489  1.00  0.00     0.161 A 
ATOM     10  C   UNL     1     -11.474 -46.205  29.616  1.00  0.00     0.055 A 
ATOM     11  C   UNL     1     -10.189 -44.259  30.387  1.00  0.00     0.161 A 
ATOM     12  C   UNL     1     -12.060 -45.394  28.655  1.00  0.00    -0.028 A 
ATOM     13  C   UNL     1     -10.789 -43.455  29.414  1.00  0.00     0.063 A 
ATOM     14  C   UNL     1     -11.711 -44.048  28.572  1.00  0.00     0.030 A 
ATOM     15  C   UNL     1     -13.084 -45.769  27.626  1.00  0.00     0.076 C 
ATOM     16  C   UNL     1     -12.461 -43.421  27.483  1.00  0.00     0.189 C 
ATOM     17  O   UNL     1     -12.393 -42.259  27.135  1.00  0.00    -0.289 OA
BRANCH   9  18
ATOM     18  O   UNL     1      -9.885 -46.335  31.479  1.00  0.00    -0.493 OA
ATOM     19  C   UNL     1      -8.693 -47.027  31.141  1.00  0.00     0.278 C 
ENDBRANCH   9  18
BRANCH  11  20
ATOM     20  O   UNL     1      -9.257 -43.808  31.291  1.00  0.00    -0.493 OA
ATOM     21  C   UNL     1      -7.954 -43.515  30.808  1.00  0.00     0.278 C 
ENDBRANCH  11  20
ENDBRANCH   7   8
ENDBRANCH   1   7
BRANCH   4  22
ATOM     22  C   UNL     1     -19.180 -41.609  26.118  1.00  0.00     0.393 C 
BRANCH  22  23
ATOM     23  C   UNL     1     -20.087 -42.068  25.007  1.00  0.00     0.020 A 
ATOM     24  C   UNL     1     -20.434 -41.207  23.952  1.00  0.00     0.010 A 
ATOM     25  C   UNL     1     -20.604 -43.373  25.008  1.00  0.00     0.049 A 
ATOM     26  C   UNL     1     -21.286 -41.638  22.931  1.00  0.00     0.004 A 
ATOM     27  C   UNL     1     -21.452 -43.789  23.985  1.00  0.00     0.123 A 
ATOM     28  C   UNL     1     -21.799 -42.934  22.949  1.00  0.00     0.039 A 
ATOM     29  F   UNL     1     -21.940 -45.034  24.009  1.00  0.00    -0.207 F 
ENDBRANCH  22  23
ENDBRANCH   4  22
TORSDOF 6
ENDMDL
MODEL 7
REMARK VINA RESULT:    -9.496      2.245      3.707
REMARK INTER + INTRA:         -13.477
REMARK INTER:                 -12.566
REMARK INTRA:                  -0.911
REMARK UNBOUND:                -0.650
REMARK SMILES COc1cc2c(cc1OC)C(=O)/C(=C/c1cc[n+](Cc3cccc(F)c3)cc1)C2
REMARK SMILES IDX 15 1 16 2 17 3 18 4 27 5 28 6 14 7 13 8 3 9 4 10 8 11 5 12
REMARK SMILES IDX 7 13 6 14 29 15 11 16 12 17 2 18 1 19 9 20 10 21 19 22 20 23
REMARK SMILES IDX 21 24 26 25 22 26 24 27 23 28 25 29
REMARK H PARENT
ROOT
ATOM      1  C   UNL     1     -15.049 -43.506  26.676  1.00  0.00    -0.013 A 
ATOM      2  C   UNL     1     -14.970 -43.647  28.060  1.00  0.00     0.079 A 
ATOM      3  C   UNL     1     -14.158 -44.634  28.607  1.00  0.00     0.309 A 
ATOM      4  N   UNL     1     -13.434 -45.452  27.808  1.00  0.00    -0.201 N 
ATOM      5  C   UNL     1     -13.493 -45.327  26.460  1.00  0.00     0.309 A 
ATOM      6  C   UNL     1     -14.294 -44.354  25.872  1.00  0.00     0.079 A 
ENDROOT
BRANCH   1   7
ATOM      7  C   UNL     1     -15.866 -42.430  26.116  1.00  0.00     0.016 C 
BRANCH   7   8
ATOM      8  C   UNL     1     -17.165 -42.525  25.800  1.00  0.00     0.005 C 
ATOM      9  C   UNL     1     -21.692 -43.040  24.608  1.00  0.00     0.161 A 
ATOM     10  C   UNL     1     -20.406 -43.083  24.046  1.00  0.00     0.055 A 
ATOM     11  C   UNL     1     -21.868 -42.756  25.992  1.00  0.00     0.161 A 
ATOM     12  C   UNL     1     -19.315 -42.843  24.867  1.00  0.00    -0.028 A 
ATOM     13  C   UNL     1     -20.758 -42.515  26.807  1.00  0.00     0.063 A 
ATOM     14  C   UNL     1     -19.509 -42.566  26.218  1.00  0.00     0.030 A 
ATOM     15  C   UNL     1     -17.862 -42.831  24.497  1.00  0.00     0.076 C 
ATOM     16  C   UNL     1     -18.209 -42.357  26.859  1.00  0.00     0.189 C 
ATOM     17  O   UNL     1     -18.014 -42.102  28.030  1.00  0.00    -0.289 OA
BRANCH   9  18
ATOM     18  O   UNL     1     -22.849 -43.260  23.900  1.00  0.00    -0.493 OA
ATOM     19  C   UNL     1     -22.737 -43.714  22.559  1.00  0.00     0.278 C 
ENDBRANCH   9  18
BRANCH  11  20
ATOM     20  O   UNL     1     -23.168 -42.738  26.437  1.00  0.00    -0.493 OA
ATOM     21  C   UNL     1     -23.545 -41.708  27.340  1.00  0.00     0.278 C 
ENDBRANCH  11  20
ENDBRANCH   7   8
ENDBRANCH   1   7
BRANCH   4  22
ATOM     22  C   UNL     1     -12.569 -46.499  28.410  1.00  0.00     0.393 C 
BRANCH  22  23
ATOM     23  C   UNL     1     -11.521 -45.889  29.304  1.00  0.00     0.020 A 
ATOM     24  C   UNL     1     -11.482 -46.183  30.678  1.00  0.00     0.010 A 
ATOM     25  C   UNL     1     -10.562 -45.012  28.775  1.00  0.00     0.049 A 
ATOM     26  C   UNL     1     -10.513 -45.603  31.503  1.00  0.00     0.004 A 
ATOM     27  C   UNL     1      -9.603 -44.442  29.608  1.00  0.00     0.123 A 
ATOM     28  C   UNL     1      -9.572 -44.727  30.966  1.00  0.00     0.039 A 
ATOM     29  F   UNL     1      -8.703 -43.602  29.086  1.00  0.00    -0.207 F 
ENDBRANCH  22  23
ENDBRANCH   4  22
TORSDOF 6
ENDMDL
MODEL 8
REMARK VINA RESULT:    -9.368      2.752      5.023
REMARK INTER + INTRA:         -13.305
REMARK INTER:                 -12.896
REMARK INTRA:                  -0.408
REMARK UNBOUND:                -0.650
REMARK SMILES COc1cc2c(cc1OC)C(=O)/C(=C/c1cc[n+](Cc3cccc(F)c3)cc1)C2
REMARK SMILES IDX 15 1 16 2 17 3 18 4 27 5 28 6 14 7 13 8 3 9 4 10 8 11 5 12
REMARK SMILES IDX 7 13 6 14 29 15 11 16 12 17 2 18 1 19 9 20 10 21 19 22 20 23
REMARK SMILES IDX 21 24 26 25 22 26 24 27 23 28 25 29
REMARK H PARENT
ROOT
ATOM      1  C   UNL     1     -16.518 -42.800  24.865  1.00  0.00    -0.013 A 
ATOM      2  C   UNL     1     -15.389 -43.001  24.075  1.00  0.00     0.079 A 
ATOM      3  C   UNL     1     -14.133 -43.059  24.668  1.00  0.00     0.309 A 
ATOM      4  N   UNL     1     -13.998 -42.934  26.008  1.00  0.00    -0.201 N 
ATOM      5  C   UNL     1     -15.084 -42.744  26.795  1.00  0.00     0.309 A 
ATOM      6  C   UNL     1     -16.359 -42.677  26.243  1.00  0.00     0.079 A 
ENDROOT
BRANCH   1   7
ATOM      7  C   UNL     1     -17.838 -42.794  24.235  1.00  0.00     0.016 C 
BRANCH   7   8
ATOM      8  C   UNL     1     -18.941 -42.234  24.748  1.00  0.00     0.005 C 
ATOM      9  C   UNL     1     -22.703 -40.146  26.666  1.00  0.00     0.161 A 
ATOM     10  C   UNL     1     -21.524 -40.815  27.032  1.00  0.00     0.055 A 
ATOM     11  C   UNL     1     -23.026 -39.947  25.294  1.00  0.00     0.161 A 
ATOM     12  C   UNL     1     -20.684 -41.276  26.029  1.00  0.00    -0.028 A 
ATOM     13  C   UNL     1     -22.170 -40.418  24.295  1.00  0.00     0.063 A 
ATOM     14  C   UNL     1     -21.019 -41.072  24.693  1.00  0.00     0.030 A 
ATOM     15  C   UNL     1     -19.387 -42.014  26.173  1.00  0.00     0.076 C 
ATOM     16  C   UNL     1     -19.975 -41.645  23.840  1.00  0.00     0.189 C 
ATOM     17  O   UNL     1     -19.950 -41.638  22.626  1.00  0.00    -0.289 OA
BRANCH   9  18
ATOM     18  O   UNL     1     -23.612 -39.644  27.566  1.00  0.00    -0.493 OA
ATOM     19  C   UNL     1     -24.331 -40.563  28.374  1.00  0.00     0.278 C 
ENDBRANCH   9  18
BRANCH  11  20
ATOM     20  O   UNL     1     -24.202 -39.281  25.049  1.00  0.00    -0.493 OA
ATOM     21  C   UNL     1     -25.313 -40.042  24.594  1.00  0.00     0.278 C 
ENDBRANCH  11  20
ENDBRANCH   7   8
ENDBRANCH   1   7
BRANCH   4  22
ATOM     22  C   UNL     1     -12.648 -43.002  26.626  1.00  0.00     0.393 C 
BRANCH  22  23
ATOM     23  C   UNL     1     -12.570 -44.113  27.639  1.00  0.00     0.020 A 
ATOM     24  C   UNL     1     -12.947 -45.425  27.304  1.00  0.00     0.010 A 
ATOM     25  C   UNL     1     -12.117 -43.855  28.941  1.00  0.00     0.049 A 
ATOM     26  C   UNL     1     -12.883 -46.449  28.255  1.00  0.00     0.004 A 
ATOM     27  C   UNL     1     -12.058 -44.883  29.878  1.00  0.00     0.123 A 
ATOM     28  C   UNL     1     -12.439 -46.176  29.547  1.00  0.00     0.039 A 
ATOM     29  F   UNL     1     -11.630 -44.614  31.116  1.00  0.00    -0.207 F 
ENDBRANCH  22  23
ENDBRANCH   4  22
TORSDOF 6
ENDMDL
