MODEL 1
REMARK VINA RESULT:    -9.117      0.000      0.000
REMARK INTER + INTRA:         -13.933
REMARK INTER:                 -12.582
REMARK INTRA:                  -1.351
REMARK UNBOUND:                -1.351
REMARK SMILES COc1ccc([C@H]2CC(c3cc(F)cc(F)c3)=NN2c2ccc(S(N)(=O)=O)cc2)cc1OC
REMARK SMILES IDX 20 1 21 2 22 3 23 4 28 5 29 6 19 7 7 8 8 9 9 10 18 11 6 12
REMARK SMILES IDX 3 13 4 14 31 15 5 16 30 17 2 18 1 19 32 20 33 21 10 22 11 23
REMARK SMILES IDX 17 24 12 25 15 26 14 27 13 28 16 29 24 30 26 31 27 32 25 33
REMARK H PARENT 25 34 25 35
ROOT
ATOM      1  C   UNL     1     -20.096 -40.969  23.745  1.00  0.00     0.060 A 
ATOM      2  C   UNL     1     -21.420 -40.521  23.901  1.00  0.00     0.029 A 
ATOM      3  C   UNL     1     -22.093 -39.837  22.882  1.00  0.00     0.024 A 
ATOM      4  C   UNL     1     -21.445 -39.594  21.673  1.00  0.00     0.082 A 
ATOM      5  C   UNL     1     -20.129 -40.009  21.484  1.00  0.00     0.024 A 
ATOM      6  C   UNL     1     -19.473 -40.694  22.512  1.00  0.00     0.029 A 
ENDROOT
BRANCH   1   7
ATOM      7  N   UNL     1     -19.416 -41.656  24.748  1.00  0.00    -0.257 N 
ATOM      8  C   UNL     1     -19.964 -42.035  26.053  1.00  0.00     0.144 C 
ATOM      9  C   UNL     1     -18.710 -42.369  26.864  1.00  0.00     0.091 C 
ATOM     10  C   UNL     1     -17.677 -42.381  25.771  1.00  0.00     0.071 C 
ATOM     11  N   UNL     1     -18.089 -41.951  24.618  1.00  0.00    -0.176 NA
BRANCH   8  12
ATOM     12  C   UNL     1     -20.902 -43.230  25.984  1.00  0.00    -0.019 A 
ATOM     13  C   UNL     1     -22.680 -45.442  25.939  1.00  0.00     0.160 A 
ATOM     14  C   UNL     1     -21.581 -45.381  25.073  1.00  0.00     0.051 A 
ATOM     15  C   UNL     1     -22.869 -44.399  26.861  1.00  0.00     0.161 A 
ATOM     16  C   UNL     1     -20.701 -44.294  25.099  1.00  0.00     0.010 A 
ATOM     17  C   UNL     1     -21.992 -43.301  26.863  1.00  0.00     0.056 A 
BRANCH  13  18
ATOM     18  O   UNL     1     -23.596 -46.460  25.925  1.00  0.00    -0.493 OA
ATOM     19  C   UNL     1     -24.679 -46.373  25.007  1.00  0.00     0.278 C 
ENDBRANCH  13  18
BRANCH  15  20
ATOM     20  O   UNL     1     -23.873 -44.273  27.788  1.00  0.00    -0.493 OA
ATOM     21  C   UNL     1     -23.555 -44.600  29.135  1.00  0.00     0.278 C 
ENDBRANCH  15  20
ENDBRANCH   8  12
BRANCH  10  22
ATOM     22  C   UNL     1     -16.284 -42.822  26.014  1.00  0.00     0.004 A 
ATOM     23  C   UNL     1     -15.281 -42.631  25.060  1.00  0.00     0.049 A 
ATOM     24  C   UNL     1     -15.973 -43.445  27.229  1.00  0.00     0.049 A 
ATOM     25  C   UNL     1     -13.985 -43.061  25.334  1.00  0.00     0.126 A 
ATOM     26  C   UNL     1     -14.670 -43.865  27.475  1.00  0.00     0.126 A 
ATOM     27  C   UNL     1     -13.666 -43.678  26.536  1.00  0.00     0.078 A 
ATOM     28  F   UNL     1     -13.027 -42.875  24.417  1.00  0.00    -0.207 F 
ATOM     29  F   UNL     1     -14.378 -44.458  28.640  1.00  0.00    -0.207 F 
ENDBRANCH  10  22
ENDBRANCH   1   7
BRANCH   4  30
ATOM     30  S   UNL     1     -22.284 -38.737  20.370  1.00  0.00     0.238 S 
ATOM     31  O   UNL     1     -23.228 -39.639  19.758  1.00  0.00    -0.207 OA
ATOM     32  O   UNL     1     -21.308 -37.993  19.606  1.00  0.00    -0.207 OA
BRANCH  30  33
ATOM     33  N   UNL     1     -23.154 -37.583  21.236  1.00  0.00    -0.225 NA
ATOM     34  H   UNL     1     -24.148 -37.706  21.038  1.00  0.00     0.137 HD
ATOM     35  H   UNL     1     -22.845 -36.628  21.052  1.00  0.00     0.137 HD
ENDBRANCH  30  33
ENDBRANCH   4  30
TORSDOF 7
ENDMDL
MODEL 2
REMARK VINA RESULT:    -9.116      0.183      1.667
REMARK INTER + INTRA:         -13.931
REMARK INTER:                 -12.660
REMARK INTRA:                  -1.271
REMARK UNBOUND:                -1.351
REMARK SMILES COc1ccc([C@H]2CC(c3cc(F)cc(F)c3)=NN2c2ccc(S(N)(=O)=O)cc2)cc1OC
REMARK SMILES IDX 20 1 21 2 22 3 23 4 28 5 29 6 19 7 7 8 8 9 9 10 18 11 6 12
REMARK SMILES IDX 3 13 4 14 31 15 5 16 30 17 2 18 1 19 32 20 33 21 10 22 11 23
REMARK SMILES IDX 17 24 12 25 15 26 14 27 13 28 16 29 24 30 26 31 27 32 25 33
REMARK H PARENT 25 34 25 35
ROOT
ATOM      1  C   UNL     1     -20.036 -40.982  23.689  1.00  0.00     0.060 A 
ATOM      2  C   UNL     1     -19.436 -40.737  22.441  1.00  0.00     0.029 A 
ATOM      3  C   UNL     1     -20.113 -40.065  21.416  1.00  0.00     0.024 A 
ATOM      4  C   UNL     1     -21.414 -39.615  21.632  1.00  0.00     0.082 A 
ATOM      5  C   UNL     1     -22.047 -39.850  22.850  1.00  0.00     0.024 A 
ATOM      6  C   UNL     1     -21.355 -40.521  23.863  1.00  0.00     0.029 A 
ENDROOT
BRANCH   1   7
ATOM      7  N   UNL     1     -19.372 -41.644  24.721  1.00  0.00    -0.257 N 
ATOM      8  C   UNL     1     -19.932 -41.958  26.039  1.00  0.00     0.144 C 
ATOM      9  C   UNL     1     -18.686 -42.287  26.865  1.00  0.00     0.091 C 
ATOM     10  C   UNL     1     -17.652 -42.367  25.777  1.00  0.00     0.071 C 
ATOM     11  N   UNL     1     -18.053 -41.974  24.606  1.00  0.00    -0.176 NA
BRANCH   8  12
ATOM     12  C   UNL     1     -20.896 -43.132  26.016  1.00  0.00    -0.019 A 
ATOM     13  C   UNL     1     -22.725 -45.304  26.055  1.00  0.00     0.160 A 
ATOM     14  C   UNL     1     -21.627 -45.300  25.184  1.00  0.00     0.051 A 
ATOM     15  C   UNL     1     -22.887 -44.223  26.938  1.00  0.00     0.161 A 
ATOM     16  C   UNL     1     -20.722 -44.232  25.169  1.00  0.00     0.010 A 
ATOM     17  C   UNL     1     -21.986 -43.147  26.898  1.00  0.00     0.056 A 
BRANCH  13  18
ATOM     18  O   UNL     1     -23.664 -46.301  26.079  1.00  0.00    -0.493 OA
ATOM     19  C   UNL     1     -24.035 -46.900  24.844  1.00  0.00     0.278 C 
ENDBRANCH  13  18
BRANCH  15  20
ATOM     20  O   UNL     1     -23.885 -44.041  27.862  1.00  0.00    -0.493 OA
ATOM     21  C   UNL     1     -23.740 -44.705  29.111  1.00  0.00     0.278 C 
ENDBRANCH  15  20
ENDBRANCH   8  12
BRANCH  10  22
ATOM     22  C   UNL     1     -16.270 -42.829  26.040  1.00  0.00     0.004 A 
ATOM     23  C   UNL     1     -15.925 -43.453  27.242  1.00  0.00     0.049 A 
ATOM     24  C   UNL     1     -15.291 -42.630  25.059  1.00  0.00     0.049 A 
ATOM     25  C   UNL     1     -14.612 -43.871  27.444  1.00  0.00     0.126 A 
ATOM     26  C   UNL     1     -13.988 -43.059  25.289  1.00  0.00     0.126 A 
ATOM     27  C   UNL     1     -13.635 -43.682  26.477  1.00  0.00     0.078 A 
ATOM     28  F   UNL     1     -14.288 -44.469  28.598  1.00  0.00    -0.207 F 
ATOM     29  F   UNL     1     -13.056 -42.868  24.345  1.00  0.00    -0.207 F 
ENDBRANCH  10  22
ENDBRANCH   1   7
BRANCH   4  30
ATOM     30  S   UNL     1     -22.283 -38.757  20.349  1.00  0.00     0.238 S 
ATOM     31  O   UNL     1     -23.205 -39.674  19.725  1.00  0.00    -0.207 OA
ATOM     32  O   UNL     1     -21.332 -37.973  19.594  1.00  0.00    -0.207 OA
BRANCH  30  33
ATOM     33  N   UNL     1     -23.179 -37.644  21.241  1.00  0.00    -0.225 NA
ATOM     34  H   UNL     1     -24.032 -38.099  21.570  1.00  0.00     0.137 HD
ATOM     35  H   UNL     1     -23.381 -36.788  20.723  1.00  0.00     0.137 HD
ENDBRANCH  30  33
ENDBRANCH   4  30
TORSDOF 7
ENDMDL
MODEL 3
REMARK VINA RESULT:    -8.841      3.963      6.548
REMARK INTER + INTRA:         -13.551
REMARK INTER:                 -12.080
REMARK INTRA:                  -1.471
REMARK UNBOUND:                -1.351
REMARK SMILES COc1ccc([C@H]2CC(c3cc(F)cc(F)c3)=NN2c2ccc(S(N)(=O)=O)cc2)cc1OC
REMARK SMILES IDX 20 1 21 2 22 3 23 4 28 5 29 6 19 7 7 8 8 9 9 10 18 11 6 12
REMARK SMILES IDX 3 13 4 14 31 15 5 16 30 17 2 18 1 19 32 20 33 21 10 22 11 23
REMARK SMILES IDX 17 24 12 25 15 26 14 27 13 28 16 29 24 30 26 31 27 32 25 33
REMARK H PARENT 25 34 25 35
ROOT
ATOM      1  C   UNL     1     -23.274 -40.121  27.317  1.00  0.00     0.060 A 
ATOM      2  C   UNL     1     -24.187 -40.795  28.146  1.00  0.00     0.029 A 
ATOM      3  C   UNL     1     -25.210 -40.118  28.822  1.00  0.00     0.024 A 
ATOM      4  C   UNL     1     -25.339 -38.740  28.668  1.00  0.00     0.082 A 
ATOM      5  C   UNL     1     -24.447 -38.034  27.866  1.00  0.00     0.024 A 
ATOM      6  C   UNL     1     -23.432 -38.727  27.197  1.00  0.00     0.029 A 
ENDROOT
BRANCH   1   7
ATOM      7  N   UNL     1     -22.255 -40.782  26.633  1.00  0.00    -0.257 N 
ATOM      8  C   UNL     1     -22.401 -41.511  25.370  1.00  0.00     0.144 C 
ATOM      9  C   UNL     1     -21.121 -42.349  25.314  1.00  0.00     0.091 C 
ATOM     10  C   UNL     1     -20.341 -41.729  26.439  1.00  0.00     0.071 C 
ATOM     11  N   UNL     1     -21.005 -40.888  27.172  1.00  0.00    -0.176 NA
BRANCH   8  12
ATOM     12  C   UNL     1     -22.508 -40.597  24.160  1.00  0.00    -0.019 A 
ATOM     13  C   UNL     1     -22.619 -38.871  21.909  1.00  0.00     0.160 A 
ATOM     14  C   UNL     1     -23.776 -39.192  22.631  1.00  0.00     0.051 A 
ATOM     15  C   UNL     1     -21.389 -39.394  22.342  1.00  0.00     0.161 A 
ATOM     16  C   UNL     1     -23.720 -40.038  23.745  1.00  0.00     0.010 A 
ATOM     17  C   UNL     1     -21.348 -40.260  23.447  1.00  0.00     0.056 A 
BRANCH  13  18
ATOM     18  O   UNL     1     -22.624 -38.086  20.787  1.00  0.00    -0.493 OA
ATOM     19  C   UNL     1     -23.018 -38.680  19.557  1.00  0.00     0.278 C 
ENDBRANCH  13  18
BRANCH  15  20
ATOM     20  O   UNL     1     -20.153 -39.200  21.779  1.00  0.00    -0.493 OA
ATOM     21  C   UNL     1     -19.733 -40.140  20.798  1.00  0.00     0.278 C 
ENDBRANCH  15  20
ENDBRANCH   8  12
BRANCH  10  22
ATOM     22  C   UNL     1     -18.928 -42.085  26.704  1.00  0.00     0.004 A 
ATOM     23  C   UNL     1     -18.039 -42.368  25.664  1.00  0.00     0.049 A 
ATOM     24  C   UNL     1     -18.482 -42.141  28.030  1.00  0.00     0.049 A 
ATOM     25  C   UNL     1     -16.719 -42.698  25.962  1.00  0.00     0.126 A 
ATOM     26  C   UNL     1     -17.157 -42.473  28.298  1.00  0.00     0.126 A 
ATOM     27  C   UNL     1     -16.265 -42.753  27.273  1.00  0.00     0.078 A 
ATOM     28  F   UNL     1     -15.871 -42.966  24.961  1.00  0.00    -0.207 F 
ATOM     29  F   UNL     1     -16.735 -42.522  29.568  1.00  0.00    -0.207 F 
ENDBRANCH  10  22
ENDBRANCH   1   7
BRANCH   4  30
ATOM     30  S   UNL     1     -26.632 -37.869  29.509  1.00  0.00     0.238 S 
ATOM     31  O   UNL     1     -27.163 -38.721  30.546  1.00  0.00    -0.207 OA
ATOM     32  O   UNL     1     -27.470 -37.225  28.524  1.00  0.00    -0.207 OA
BRANCH  30  33
ATOM     33  N   UNL     1     -25.769 -36.625  30.249  1.00  0.00    -0.225 NA
ATOM     34  H   UNL     1     -26.052 -35.737  29.832  1.00  0.00     0.137 HD
ATOM     35  H   UNL     1     -24.758 -36.760  30.207  1.00  0.00     0.137 HD
ENDBRANCH  30  33
ENDBRANCH   4  30
TORSDOF 7
ENDMDL
MODEL 4
REMARK VINA RESULT:    -8.799      4.786      7.664
REMARK INTER + INTRA:         -13.493
REMARK INTER:                 -12.272
REMARK INTRA:                  -1.221
REMARK UNBOUND:                -1.351
REMARK SMILES COc1ccc([C@H]2CC(c3cc(F)cc(F)c3)=NN2c2ccc(S(N)(=O)=O)cc2)cc1OC
REMARK SMILES IDX 20 1 21 2 22 3 23 4 28 5 29 6 19 7 7 8 8 9 9 10 18 11 6 12
REMARK SMILES IDX 3 13 4 14 31 15 5 16 30 17 2 18 1 19 32 20 33 21 10 22 11 23
REMARK SMILES IDX 17 24 12 25 15 26 14 27 13 28 16 29 24 30 26 31 27 32 25 33
REMARK H PARENT 25 34 25 35
ROOT
ATOM      1  C   UNL     1     -18.735 -42.257  23.718  1.00  0.00     0.060 A 
ATOM      2  C   UNL     1     -18.574 -42.254  25.115  1.00  0.00     0.029 A 
ATOM      3  C   UNL     1     -17.339 -42.524  25.716  1.00  0.00     0.024 A 
ATOM      4  C   UNL     1     -16.231 -42.797  24.916  1.00  0.00     0.082 A 
ATOM      5  C   UNL     1     -16.353 -42.823  23.529  1.00  0.00     0.024 A 
ATOM      6  C   UNL     1     -17.594 -42.549  22.946  1.00  0.00     0.029 A 
ENDROOT
BRANCH   1   7
ATOM      7  N   UNL     1     -19.958 -41.985  23.105  1.00  0.00    -0.257 N 
ATOM      8  C   UNL     1     -21.240 -42.614  23.432  1.00  0.00     0.144 C 
ATOM      9  C   UNL     1     -22.107 -42.264  22.220  1.00  0.00     0.091 C 
ATOM     10  C   UNL     1     -21.227 -41.252  21.540  1.00  0.00     0.071 C 
ATOM     11  N   UNL     1     -20.031 -41.142  22.034  1.00  0.00    -0.176 NA
BRANCH   8  12
ATOM     12  C   UNL     1     -21.858 -42.082  24.715  1.00  0.00    -0.019 A 
ATOM     13  C   UNL     1     -23.039 -41.173  27.132  1.00  0.00     0.160 A 
ATOM     14  C   UNL     1     -22.798 -40.292  26.069  1.00  0.00     0.051 A 
ATOM     15  C   UNL     1     -22.716 -42.530  26.966  1.00  0.00     0.161 A 
ATOM     16  C   UNL     1     -22.222 -40.741  24.876  1.00  0.00     0.010 A 
ATOM     17  C   UNL     1     -22.117 -42.965  25.773  1.00  0.00     0.056 A 
BRANCH  13  18
ATOM     18  O   UNL     1     -23.558 -40.777  28.336  1.00  0.00    -0.493 OA
ATOM     19  C   UNL     1     -24.806 -40.096  28.335  1.00  0.00     0.278 C 
ENDBRANCH  13  18
BRANCH  15  20
ATOM     20  O   UNL     1     -22.874 -43.544  27.877  1.00  0.00    -0.493 OA
ATOM     21  C   UNL     1     -21.818 -44.491  27.982  1.00  0.00     0.278 C 
ENDBRANCH  15  20
ENDBRANCH   8  12
BRANCH  10  22
ATOM     22  C   UNL     1     -21.689 -40.469  20.372  1.00  0.00     0.004 A 
ATOM     23  C   UNL     1     -21.201 -39.185  20.113  1.00  0.00     0.049 A 
ATOM     24  C   UNL     1     -22.640 -41.033  19.513  1.00  0.00     0.049 A 
ATOM     25  C   UNL     1     -21.666 -38.487  19.001  1.00  0.00     0.126 A 
ATOM     26  C   UNL     1     -23.086 -40.312  18.410  1.00  0.00     0.126 A 
ATOM     27  C   UNL     1     -22.606 -39.038  18.142  1.00  0.00     0.078 A 
ATOM     28  F   UNL     1     -21.193 -37.258  18.758  1.00  0.00    -0.207 F 
ATOM     29  F   UNL     1     -23.994 -40.857  17.590  1.00  0.00    -0.207 F 
ENDBRANCH  10  22
ENDBRANCH   1   7
BRANCH   4  30
ATOM     30  S   UNL     1     -14.659 -43.133  25.659  1.00  0.00     0.238 S 
ATOM     31  O   UNL     1     -14.597 -44.536  25.992  1.00  0.00    -0.207 OA
ATOM     32  O   UNL     1     -14.370 -42.092  26.619  1.00  0.00    -0.207 OA
BRANCH  30  33
ATOM     33  N   UNL     1     -13.613 -42.858  24.367  1.00  0.00    -0.225 NA
ATOM     34  H   UNL     1     -12.716 -42.537  24.735  1.00  0.00     0.137 HD
ATOM     35  H   UNL     1     -13.994 -42.212  23.676  1.00  0.00     0.137 HD
ENDBRANCH  30  33
ENDBRANCH   4  30
TORSDOF 7
ENDMDL
MODEL 5
REMARK VINA RESULT:    -8.790      1.417      1.986
REMARK INTER + INTRA:         -13.481
REMARK INTER:                 -12.321
REMARK INTRA:                  -1.160
REMARK UNBOUND:                -1.351
REMARK SMILES COc1ccc([C@H]2CC(c3cc(F)cc(F)c3)=NN2c2ccc(S(N)(=O)=O)cc2)cc1OC
REMARK SMILES IDX 20 1 21 2 22 3 23 4 28 5 29 6 19 7 7 8 8 9 9 10 18 11 6 12
REMARK SMILES IDX 3 13 4 14 31 15 5 16 30 17 2 18 1 19 32 20 33 21 10 22 11 23
REMARK SMILES IDX 17 24 12 25 15 26 14 27 13 28 16 29 24 30 26 31 27 32 25 33
REMARK H PARENT 25 34 25 35
ROOT
ATOM      1  C   UNL     1     -20.608 -40.431  23.135  1.00  0.00     0.060 A 
ATOM      2  C   UNL     1     -22.009 -40.324  23.092  1.00  0.00     0.029 A 
ATOM      3  C   UNL     1     -22.664 -39.607  22.084  1.00  0.00     0.024 A 
ATOM      4  C   UNL     1     -21.916 -38.984  21.087  1.00  0.00     0.082 A 
ATOM      5  C   UNL     1     -20.526 -39.054  21.103  1.00  0.00     0.024 A 
ATOM      6  C   UNL     1     -19.888 -39.777  22.117  1.00  0.00     0.029 A 
ENDROOT
BRANCH   1   7
ATOM      7  N   UNL     1     -19.942 -41.146  24.129  1.00  0.00    -0.257 N 
ATOM      8  C   UNL     1     -20.375 -41.286  25.523  1.00  0.00     0.144 C 
ATOM      9  C   UNL     1     -19.110 -41.790  26.221  1.00  0.00     0.091 C 
ATOM     10  C   UNL     1     -18.251 -42.110  25.029  1.00  0.00     0.071 C 
ATOM     11  N   UNL     1     -18.724 -41.713  23.887  1.00  0.00    -0.176 NA
BRANCH   8  12
ATOM     12  C   UNL     1     -21.522 -42.269  25.697  1.00  0.00    -0.019 A 
ATOM     13  C   UNL     1     -23.646 -44.136  25.942  1.00  0.00     0.160 A 
ATOM     14  C   UNL     1     -23.614 -42.973  26.721  1.00  0.00     0.051 A 
ATOM     15  C   UNL     1     -22.619 -44.347  25.006  1.00  0.00     0.161 A 
ATOM     16  C   UNL     1     -22.571 -42.049  26.596  1.00  0.00     0.010 A 
ATOM     17  C   UNL     1     -21.565 -43.425  24.906  1.00  0.00     0.056 A 
BRANCH  13  18
ATOM     18  O   UNL     1     -24.619 -45.094  26.056  1.00  0.00    -0.493 OA
ATOM     19  C   UNL     1     -24.691 -45.832  27.269  1.00  0.00     0.278 C 
ENDBRANCH  13  18
BRANCH  15  20
ATOM     20  O   UNL     1     -22.471 -45.413  24.154  1.00  0.00    -0.493 OA
ATOM     21  C   UNL     1     -21.887 -46.594  24.690  1.00  0.00     0.278 C 
ENDBRANCH  15  20
ENDBRANCH   8  12
BRANCH  10  22
ATOM     22  C   UNL     1     -16.947 -42.797  25.164  1.00  0.00     0.004 A 
ATOM     23  C   UNL     1     -16.289 -43.340  24.057  1.00  0.00     0.049 A 
ATOM     24  C   UNL     1     -16.367 -42.904  26.434  1.00  0.00     0.049 A 
ATOM     25  C   UNL     1     -15.063 -43.977  24.234  1.00  0.00     0.126 A 
ATOM     26  C   UNL     1     -15.141 -43.545  26.580  1.00  0.00     0.126 A 
ATOM     27  C   UNL     1     -14.478 -44.085  25.488  1.00  0.00     0.078 A 
ATOM     28  F   UNL     1     -14.437 -44.494  23.169  1.00  0.00    -0.207 F 
ATOM     29  F   UNL     1     -14.589 -43.642  27.797  1.00  0.00    -0.207 F 
ENDBRANCH  10  22
ENDBRANCH   1   7
BRANCH   4  30
ATOM     30  S   UNL     1     -22.729 -38.078  19.800  1.00  0.00     0.238 S 
ATOM     31  O   UNL     1     -24.029 -37.670  20.275  1.00  0.00    -0.207 OA
ATOM     32  O   UNL     1     -22.540 -38.782  18.552  1.00  0.00    -0.207 OA
BRANCH  30  33
ATOM     33  N   UNL     1     -21.758 -36.705  19.695  1.00  0.00    -0.225 NA
ATOM     34  H   UNL     1     -20.830 -36.932  20.055  1.00  0.00     0.137 HD
ATOM     35  H   UNL     1     -22.161 -35.894  20.166  1.00  0.00     0.137 HD
ENDBRANCH  30  33
ENDBRANCH   4  30
TORSDOF 7
ENDMDL
MODEL 6
REMARK VINA RESULT:    -8.671      4.586      7.346
REMARK INTER + INTRA:         -13.318
REMARK INTER:                 -11.914
REMARK INTRA:                  -1.404
REMARK UNBOUND:                -1.351
REMARK SMILES COc1ccc([C@H]2CC(c3cc(F)cc(F)c3)=NN2c2ccc(S(N)(=O)=O)cc2)cc1OC
REMARK SMILES IDX 20 1 21 2 22 3 23 4 28 5 29 6 19 7 7 8 8 9 9 10 18 11 6 12
REMARK SMILES IDX 3 13 4 14 31 15 5 16 30 17 2 18 1 19 32 20 33 21 10 22 11 23
REMARK SMILES IDX 17 24 12 25 15 26 14 27 13 28 16 29 24 30 26 31 27 32 25 33
REMARK H PARENT 25 34 25 35
ROOT
ATOM      1  C   UNL     1     -17.905 -42.702  24.845  1.00  0.00     0.060 A 
ATOM      2  C   UNL     1     -17.749 -42.535  26.232  1.00  0.00     0.029 A 
ATOM      3  C   UNL     1     -16.549 -42.848  26.883  1.00  0.00     0.024 A 
ATOM      4  C   UNL     1     -15.472 -43.331  26.143  1.00  0.00     0.082 A 
ATOM      5  C   UNL     1     -15.591 -43.523  24.769  1.00  0.00     0.024 A 
ATOM      6  C   UNL     1     -16.797 -43.203  24.135  1.00  0.00     0.029 A 
ENDROOT
BRANCH   1   7
ATOM      7  N   UNL     1     -19.091 -42.390  24.182  1.00  0.00    -0.257 N 
ATOM      8  C   UNL     1     -20.244 -43.280  24.020  1.00  0.00     0.144 C 
ATOM      9  C   UNL     1     -21.041 -42.602  22.903  1.00  0.00     0.091 C 
ATOM     10  C   UNL     1     -20.323 -41.283  22.821  1.00  0.00     0.071 C 
ATOM     11  N   UNL     1     -19.230 -41.206  23.516  1.00  0.00    -0.176 NA
BRANCH   8  12
ATOM     12  C   UNL     1     -21.080 -43.412  25.283  1.00  0.00    -0.019 A 
ATOM     13  C   UNL     1     -22.642 -43.569  27.649  1.00  0.00     0.160 A 
ATOM     14  C   UNL     1     -21.873 -44.658  27.217  1.00  0.00     0.051 A 
ATOM     15  C   UNL     1     -22.598 -42.378  26.904  1.00  0.00     0.161 A 
ATOM     16  C   UNL     1     -21.098 -44.579  26.055  1.00  0.00     0.010 A 
ATOM     17  C   UNL     1     -21.835 -42.317  25.727  1.00  0.00     0.056 A 
BRANCH  13  18
ATOM     18  O   UNL     1     -23.451 -43.608  28.753  1.00  0.00    -0.493 OA
ATOM     19  C   UNL     1     -24.029 -44.855  29.115  1.00  0.00     0.278 C 
ENDBRANCH  13  18
BRANCH  15  20
ATOM     20  O   UNL     1     -23.270 -41.208  27.158  1.00  0.00    -0.493 OA
ATOM     21  C   UNL     1     -22.993 -40.105  26.305  1.00  0.00     0.278 C 
ENDBRANCH  15  20
ENDBRANCH   8  12
BRANCH  10  22
ATOM     22  C   UNL     1     -20.820 -40.172  21.977  1.00  0.00     0.004 A 
ATOM     23  C   UNL     1     -20.100 -39.719  20.869  1.00  0.00     0.049 A 
ATOM     24  C   UNL     1     -22.038 -39.565  22.307  1.00  0.00     0.049 A 
ATOM     25  C   UNL     1     -20.608 -38.670  20.105  1.00  0.00     0.126 A 
ATOM     26  C   UNL     1     -22.521 -38.520  21.525  1.00  0.00     0.126 A 
ATOM     27  C   UNL     1     -21.816 -38.064  20.420  1.00  0.00     0.078 A 
ATOM     28  F   UNL     1     -19.915 -38.241  19.043  1.00  0.00    -0.207 F 
ATOM     29  F   UNL     1     -23.688 -37.945  21.843  1.00  0.00    -0.207 F 
ENDBRANCH  10  22
ENDBRANCH   1   7
BRANCH   4  30
ATOM     30  S   UNL     1     -13.945 -43.724  26.948  1.00  0.00     0.238 S 
ATOM     31  O   UNL     1     -13.120 -42.541  26.975  1.00  0.00    -0.207 OA
ATOM     32  O   UNL     1     -13.471 -44.993  26.443  1.00  0.00    -0.207 OA
BRANCH  30  33
ATOM     33  N   UNL     1     -14.466 -44.031  28.521  1.00  0.00    -0.225 NA
ATOM     34  H   UNL     1     -15.472 -43.861  28.571  1.00  0.00     0.137 HD
ATOM     35  H   UNL     1     -13.954 -43.496  29.222  1.00  0.00     0.137 HD
ENDBRANCH  30  33
ENDBRANCH   4  30
TORSDOF 7
ENDMDL
MODEL 7
REMARK VINA RESULT:    -8.535      4.440      7.788
REMARK INTER + INTRA:         -13.129
REMARK INTER:                 -11.879
REMARK INTRA:                  -1.250
REMARK UNBOUND:                -1.351
REMARK SMILES COc1ccc([C@H]2CC(c3cc(F)cc(F)c3)=NN2c2ccc(S(N)(=O)=O)cc2)cc1OC
REMARK SMILES IDX 20 1 21 2 22 3 23 4 28 5 29 6 19 7 7 8 8 9 9 10 18 11 6 12
REMARK SMILES IDX 3 13 4 14 31 15 5 16 30 17 2 18 1 19 32 20 33 21 10 22 11 23
REMARK SMILES IDX 17 24 12 25 15 26 14 27 13 28 16 29 24 30 26 31 27 32 25 33
REMARK H PARENT 25 34 25 35
ROOT
ATOM      1  C   UNL     1     -19.256 -42.443  25.650  1.00  0.00     0.060 A 
ATOM      2  C   UNL     1     -18.230 -42.391  26.610  1.00  0.00     0.029 A 
ATOM      3  C   UNL     1     -16.884 -42.554  26.260  1.00  0.00     0.024 A 
ATOM      4  C   UNL     1     -16.541 -42.766  24.927  1.00  0.00     0.082 A 
ATOM      5  C   UNL     1     -17.529 -42.837  23.949  1.00  0.00     0.024 A 
ATOM      6  C   UNL     1     -18.869 -42.670  24.315  1.00  0.00     0.029 A 
ENDROOT
BRANCH   1   7
ATOM      7  N   UNL     1     -20.600 -42.276  25.982  1.00  0.00    -0.257 N 
ATOM      8  C   UNL     1     -21.400 -41.071  25.744  1.00  0.00     0.144 C 
ATOM      9  C   UNL     1     -22.616 -41.289  26.649  1.00  0.00     0.091 C 
ATOM     10  C   UNL     1     -22.412 -42.727  27.035  1.00  0.00     0.071 C 
ATOM     11  N   UNL     1     -21.273 -43.238  26.679  1.00  0.00    -0.176 NA
BRANCH   8  12
ATOM     12  C   UNL     1     -21.823 -40.910  24.293  1.00  0.00    -0.019 A 
ATOM     13  C   UNL     1     -22.558 -40.539  21.576  1.00  0.00     0.160 A 
ATOM     14  C   UNL     1     -23.390 -41.239  22.460  1.00  0.00     0.051 A 
ATOM     15  C   UNL     1     -21.362 -39.990  22.069  1.00  0.00     0.161 A 
ATOM     16  C   UNL     1     -23.031 -41.417  23.801  1.00  0.00     0.010 A 
ATOM     17  C   UNL     1     -21.001 -40.195  23.411  1.00  0.00     0.056 A 
BRANCH  13  18
ATOM     18  O   UNL     1     -22.840 -40.375  20.246  1.00  0.00    -0.493 OA
ATOM     19  C   UNL     1     -22.536 -41.445  19.361  1.00  0.00     0.278 C 
ENDBRANCH  13  18
BRANCH  15  20
ATOM     20  O   UNL     1     -20.421 -39.275  21.373  1.00  0.00    -0.493 OA
ATOM     21  C   UNL     1     -19.385 -40.014  20.738  1.00  0.00     0.278 C 
ENDBRANCH  15  20
ENDBRANCH   8  12
BRANCH  10  22
ATOM     22  C   UNL     1     -23.430 -43.486  27.797  1.00  0.00     0.004 A 
ATOM     23  C   UNL     1     -23.365 -44.877  27.919  1.00  0.00     0.049 A 
ATOM     24  C   UNL     1     -24.481 -42.787  28.404  1.00  0.00     0.049 A 
ATOM     25  C   UNL     1     -24.346 -45.547  28.646  1.00  0.00     0.126 A 
ATOM     26  C   UNL     1     -25.447 -43.484  29.124  1.00  0.00     0.126 A 
ATOM     27  C   UNL     1     -25.390 -44.864  29.254  1.00  0.00     0.078 A 
ATOM     28  F   UNL     1     -24.277 -46.879  28.760  1.00  0.00    -0.207 F 
ATOM     29  F   UNL     1     -26.448 -42.810  29.705  1.00  0.00    -0.207 F 
ENDBRANCH  10  22
ENDBRANCH   1   7
BRANCH   4  30
ATOM     30  S   UNL     1     -14.843 -42.966  24.466  1.00  0.00     0.238 S 
ATOM     31  O   UNL     1     -14.735 -44.111  23.594  1.00  0.00    -0.207 OA
ATOM     32  O   UNL     1     -14.023 -42.805  25.645  1.00  0.00    -0.207 OA
BRANCH  30  33
ATOM     33  N   UNL     1     -14.582 -41.582  23.542  1.00  0.00    -0.225 NA
ATOM     34  H   UNL     1     -14.897 -41.762  22.587  1.00  0.00     0.137 HD
ATOM     35  H   UNL     1     -13.614 -41.261  23.569  1.00  0.00     0.137 HD
ENDBRANCH  30  33
ENDBRANCH   4  30
TORSDOF 7
ENDMDL
MODEL 8
REMARK VINA RESULT:    -8.437      3.597      6.329
REMARK INTER + INTRA:         -12.995
REMARK INTER:                 -11.597
REMARK INTRA:                  -1.398
REMARK UNBOUND:                -1.351
REMARK SMILES COc1ccc([C@H]2CC(c3cc(F)cc(F)c3)=NN2c2ccc(S(N)(=O)=O)cc2)cc1OC
REMARK SMILES IDX 20 1 21 2 22 3 23 4 28 5 29 6 19 7 7 8 8 9 9 10 18 11 6 12
REMARK SMILES IDX 3 13 4 14 31 15 5 16 30 17 2 18 1 19 32 20 33 21 10 22 11 23
REMARK SMILES IDX 17 24 12 25 15 26 14 27 13 28 16 29 24 30 26 31 27 32 25 33
REMARK H PARENT 25 34 25 35
ROOT
ATOM      1  C   UNL     1     -23.208 -40.375  26.556  1.00  0.00     0.060 A 
ATOM      2  C   UNL     1     -24.058 -41.045  27.452  1.00  0.00     0.029 A 
ATOM      3  C   UNL     1     -25.199 -40.432  27.986  1.00  0.00     0.024 A 
ATOM      4  C   UNL     1     -25.512 -39.125  27.618  1.00  0.00     0.082 A 
ATOM      5  C   UNL     1     -24.687 -38.423  26.743  1.00  0.00     0.024 A 
ATOM      6  C   UNL     1     -23.552 -39.052  26.218  1.00  0.00     0.029 A 
ENDROOT
BRANCH   1   7
ATOM      7  N   UNL     1     -22.073 -40.974  26.012  1.00  0.00    -0.257 N 
ATOM      8  C   UNL     1     -21.998 -41.653  24.715  1.00  0.00     0.144 C 
ATOM      9  C   UNL     1     -20.694 -42.447  24.823  1.00  0.00     0.091 C 
ATOM     10  C   UNL     1     -20.117 -41.852  26.078  1.00  0.00     0.071 C 
ATOM     11  N   UNL     1     -20.916 -41.065  26.731  1.00  0.00    -0.176 NA
BRANCH   8  12
ATOM     12  C   UNL     1     -21.953 -40.691  23.538  1.00  0.00    -0.019 A 
ATOM     13  C   UNL     1     -21.948 -38.930  21.311  1.00  0.00     0.160 A 
ATOM     14  C   UNL     1     -20.764 -39.228  21.999  1.00  0.00     0.051 A 
ATOM     15  C   UNL     1     -23.140 -39.549  21.724  1.00  0.00     0.161 A 
ATOM     16  C   UNL     1     -20.766 -40.101  23.093  1.00  0.00     0.010 A 
ATOM     17  C   UNL     1     -23.133 -40.405  22.837  1.00  0.00     0.056 A 
BRANCH  13  18
ATOM     18  O   UNL     1     -22.009 -38.050  20.264  1.00  0.00    -0.493 OA
ATOM     19  C   UNL     1     -21.773 -38.550  18.954  1.00  0.00     0.278 C 
ENDBRANCH  13  18
BRANCH  15  20
ATOM     20  O   UNL     1     -24.392 -39.394  21.185  1.00  0.00    -0.493 OA
ATOM     21  C   UNL     1     -25.489 -39.386  22.090  1.00  0.00     0.278 C 
ENDBRANCH  15  20
ENDBRANCH   8  12
BRANCH  10  22
ATOM     22  C   UNL     1     -18.749 -42.176  26.542  1.00  0.00     0.004 A 
ATOM     23  C   UNL     1     -18.429 -42.211  27.902  1.00  0.00     0.049 A 
ATOM     24  C   UNL     1     -17.759 -42.449  25.590  1.00  0.00     0.049 A 
ATOM     25  C   UNL     1     -17.127 -42.521  28.290  1.00  0.00     0.126 A 
ATOM     26  C   UNL     1     -16.468 -42.756  26.008  1.00  0.00     0.126 A 
ATOM     27  C   UNL     1     -16.139 -42.797  27.356  1.00  0.00     0.078 A 
ATOM     28  F   UNL     1     -16.826 -42.555  29.594  1.00  0.00    -0.207 F 
ATOM     29  F   UNL     1     -15.525 -43.019  25.094  1.00  0.00    -0.207 F 
ENDBRANCH  10  22
ENDBRANCH   1   7
BRANCH   4  30
ATOM     30  S   UNL     1     -26.954 -38.337  28.277  1.00  0.00     0.238 S 
ATOM     31  O   UNL     1     -27.297 -38.974  29.526  1.00  0.00    -0.207 OA
ATOM     32  O   UNL     1     -27.909 -38.154  27.208  1.00  0.00    -0.207 OA
BRANCH  30  33
ATOM     33  N   UNL     1     -26.364 -36.797  28.624  1.00  0.00    -0.225 NA
ATOM     34  H   UNL     1     -26.772 -36.134  27.963  1.00  0.00     0.137 HD
ATOM     35  H   UNL     1     -25.345 -36.752  28.628  1.00  0.00     0.137 HD
ENDBRANCH  30  33
ENDBRANCH   4  30
TORSDOF 7
ENDMDL
MODEL 9
REMARK VINA RESULT:    -8.434      5.111      7.508
REMARK INTER + INTRA:         -12.991
REMARK INTER:                 -11.654
REMARK INTRA:                  -1.337
REMARK UNBOUND:                -1.351
REMARK SMILES COc1ccc([C@H]2CC(c3cc(F)cc(F)c3)=NN2c2ccc(S(N)(=O)=O)cc2)cc1OC
REMARK SMILES IDX 20 1 21 2 22 3 23 4 28 5 29 6 19 7 7 8 8 9 9 10 18 11 6 12
REMARK SMILES IDX 3 13 4 14 31 15 5 16 30 17 2 18 1 19 32 20 33 21 10 22 11 23
REMARK SMILES IDX 17 24 12 25 15 26 14 27 13 28 16 29 24 30 26 31 27 32 25 33
REMARK H PARENT 25 34 25 35
ROOT
ATOM      1  C   UNL     1     -19.360 -41.890  26.229  1.00  0.00     0.060 A 
ATOM      2  C   UNL     1     -18.602 -42.167  25.078  1.00  0.00     0.029 A 
ATOM      3  C   UNL     1     -17.265 -42.576  25.157  1.00  0.00     0.024 A 
ATOM      4  C   UNL     1     -16.663 -42.722  26.404  1.00  0.00     0.082 A 
ATOM      5  C   UNL     1     -17.376 -42.444  27.567  1.00  0.00     0.024 A 
ATOM      6  C   UNL     1     -18.712 -42.039  27.471  1.00  0.00     0.029 A 
ENDROOT
BRANCH   1   7
ATOM      7  N   UNL     1     -20.694 -41.488  26.167  1.00  0.00    -0.257 N 
ATOM      8  C   UNL     1     -21.514 -41.420  24.955  1.00  0.00     0.144 C 
ATOM      9  C   UNL     1     -22.696 -40.552  25.394  1.00  0.00     0.091 C 
ATOM     10  C   UNL     1     -22.464 -40.510  26.879  1.00  0.00     0.071 C 
ATOM     11  N   UNL     1     -21.332 -41.008  27.274  1.00  0.00    -0.176 NA
BRANCH   8  12
ATOM     12  C   UNL     1     -21.988 -42.783  24.476  1.00  0.00    -0.019 A 
ATOM     13  C   UNL     1     -22.864 -45.359  23.666  1.00  0.00     0.160 A 
ATOM     14  C   UNL     1     -22.338 -44.451  22.738  1.00  0.00     0.051 A 
ATOM     15  C   UNL     1     -22.920 -44.983  25.019  1.00  0.00     0.161 A 
ATOM     16  C   UNL     1     -21.900 -43.183  23.139  1.00  0.00     0.010 A 
ATOM     17  C   UNL     1     -22.499 -43.701  25.405  1.00  0.00     0.056 A 
BRANCH  13  18
ATOM     18  O   UNL     1     -23.348 -46.594  23.321  1.00  0.00    -0.493 OA
ATOM     19  C   UNL     1     -22.460 -47.702  23.389  1.00  0.00     0.278 C 
ENDBRANCH  13  18
BRANCH  15  20
ATOM     20  O   UNL     1     -23.394 -45.723  26.073  1.00  0.00    -0.493 OA
ATOM     21  C   UNL     1     -23.133 -45.227  27.380  1.00  0.00     0.278 C 
ENDBRANCH  15  20
ENDBRANCH   8  12
BRANCH  10  22
ATOM     22  C   UNL     1     -23.447 -39.910  27.810  1.00  0.00     0.004 A 
ATOM     23  C   UNL     1     -23.518 -38.528  28.006  1.00  0.00     0.049 A 
ATOM     24  C   UNL     1     -24.321 -40.754  28.507  1.00  0.00     0.049 A 
ATOM     25  C   UNL     1     -24.461 -38.011  28.892  1.00  0.00     0.126 A 
ATOM     26  C   UNL     1     -25.252 -40.208  29.385  1.00  0.00     0.126 A 
ATOM     27  C   UNL     1     -25.333 -38.838  29.585  1.00  0.00     0.078 A 
ATOM     28  F   UNL     1     -24.525 -36.686  29.075  1.00  0.00    -0.207 F 
ATOM     29  F   UNL     1     -26.087 -41.019  30.047  1.00  0.00    -0.207 F 
ENDBRANCH  10  22
ENDBRANCH   1   7
BRANCH   4  30
ATOM     30  S   UNL     1     -14.975 -43.245  26.522  1.00  0.00     0.238 S 
ATOM     31  O   UNL     1     -14.131 -42.075  26.543  1.00  0.00    -0.207 OA
ATOM     32  O   UNL     1     -14.766 -44.340  25.602  1.00  0.00    -0.207 OA
BRANCH  30  33
ATOM     33  N   UNL     1     -14.946 -43.936  28.059  1.00  0.00    -0.225 NA
ATOM     34  H   UNL     1     -15.828 -43.725  28.529  1.00  0.00     0.137 HD
ATOM     35  H   UNL     1     -14.141 -43.643  28.613  1.00  0.00     0.137 HD
ENDBRANCH  30  33
ENDBRANCH   4  30
TORSDOF 7
ENDMDL
