MODEL 1
REMARK VINA RESULT:   -11.872      0.000      0.000
REMARK INTER + INTRA:         -16.870
REMARK INTER:                 -16.036
REMARK INTRA:                  -0.833
REMARK UNBOUND:                -0.833
REMARK SMILES c1ccc(C[N@H+]2CC[C@@H](CCc3noc4cc(N5CCOCC5)ccc34)CC2)cc1
REMARK SMILES IDX 10 1 9 2 6 3 28 4 7 5 27 6 8 7 5 9 4 10 3 11 29 12 2 13
REMARK SMILES IDX 30 14 1 15 11 16 12 17 13 18 26 19 14 20 25 21 15 22 24 23
REMARK SMILES IDX 16 24 17 25 18 26 19 27 23 28 20 29 22 30 21 31
REMARK H PARENT 6 8
ROOT
ATOM      1  C   UNL     1     -14.217 -44.317  27.200  1.00  0.00     0.010 C 
ENDROOT
BRANCH   1   2
ATOM      2  C   UNL     1     -12.793 -44.900  27.363  1.00  0.00     0.000 C 
ATOM      3  N   UNL     1     -11.501 -45.248  29.994  1.00  0.00    -0.331 N 
ATOM      4  C   UNL     1     -12.594 -46.202  29.589  1.00  0.00     0.262 C 
ATOM      5  C   UNL     1     -11.723 -43.857  29.461  1.00  0.00     0.262 C 
ATOM      6  C   UNL     1     -12.713 -46.258  28.070  1.00  0.00     0.065 C 
ATOM      7  C   UNL     1     -11.784 -43.897  27.945  1.00  0.00     0.065 C 
ATOM      8  H   UNL     1     -10.625 -45.602  29.588  1.00  0.00     0.348 HD
BRANCH   3   9
ATOM      9  C   UNL     1     -11.274 -45.223  31.496  1.00  0.00     0.299 C 
BRANCH   9  10
ATOM     10  C   UNL     1      -9.900 -44.743  31.877  1.00  0.00     0.006 A 
ATOM     11  C   UNL     1      -9.737 -43.554  32.605  1.00  0.00     0.009 A 
ATOM     12  C   UNL     1      -8.763 -45.487  31.524  1.00  0.00     0.009 A 
ATOM     13  C   UNL     1      -8.463 -43.126  32.979  1.00  0.00     0.001 A 
ATOM     14  C   UNL     1      -7.492 -45.054  31.901  1.00  0.00     0.001 A 
ATOM     15  C   UNL     1      -7.342 -43.875  32.629  1.00  0.00     0.000 A 
ENDBRANCH   9  10
ENDBRANCH   3   9
ENDBRANCH   1   2
BRANCH   1  16
ATOM     16  C   UNL     1     -14.344 -42.872  26.716  1.00  0.00     0.061 C 
BRANCH  16  17
ATOM     17  C   UNL     1     -15.067 -42.774  25.419  1.00  0.00     0.091 A 
ATOM     18  N   UNL     1     -14.369 -42.869  24.278  1.00  0.00    -0.084 NA
ATOM     19  C   UNL     1     -16.451 -42.598  25.176  1.00  0.00     0.045 A 
ATOM     20  O   UNL     1     -15.306 -42.758  23.261  1.00  0.00    -0.356 OA
ATOM     21  C   UNL     1     -17.626 -42.457  25.922  1.00  0.00     0.016 A 
ATOM     22  C   UNL     1     -16.544 -42.593  23.799  1.00  0.00     0.169 A 
ATOM     23  C   UNL     1     -18.844 -42.311  25.228  1.00  0.00     0.027 A 
ATOM     24  C   UNL     1     -17.737 -42.448  23.092  1.00  0.00     0.076 A 
ATOM     25  C   UNL     1     -18.931 -42.285  23.822  1.00  0.00     0.041 A 
BRANCH  25  26
ATOM     26  N   UNL     1     -20.141 -42.162  23.137  1.00  0.00    -0.367 N 
ATOM     27  C   UNL     1     -20.148 -41.337  21.901  1.00  0.00     0.145 C 
ATOM     28  C   UNL     1     -21.431 -42.045  23.855  1.00  0.00     0.145 C 
ATOM     29  C   UNL     1     -20.521 -39.883  22.238  1.00  0.00     0.181 C 
ATOM     30  C   UNL     1     -21.780 -40.570  24.118  1.00  0.00     0.181 C 
ATOM     31  O   UNL     1     -21.794 -39.805  22.901  1.00  0.00    -0.378 OA
ENDBRANCH  25  26
ENDBRANCH  16  17
ENDBRANCH   1  16
TORSDOF 6
ENDMDL
MODEL 2
REMARK VINA RESULT:   -11.708      1.449      1.809
REMARK INTER + INTRA:         -16.648
REMARK INTER:                 -15.991
REMARK INTRA:                  -0.658
REMARK UNBOUND:                -0.833
REMARK SMILES c1ccc(C[N@H+]2CC[C@@H](CCc3noc4cc(N5CCOCC5)ccc34)CC2)cc1
REMARK SMILES IDX 10 1 9 2 6 3 28 4 7 5 27 6 8 7 5 9 4 10 3 11 29 12 2 13
REMARK SMILES IDX 30 14 1 15 11 16 12 17 13 18 26 19 14 20 25 21 15 22 24 23
REMARK SMILES IDX 16 24 17 25 18 26 19 27 23 28 20 29 22 30 21 31
REMARK H PARENT 6 8
ROOT
ATOM      1  C   UNL     1     -14.076 -44.171  27.172  1.00  0.00     0.010 C 
ENDROOT
BRANCH   1   2
ATOM      2  C   UNL     1     -12.759 -44.954  27.382  1.00  0.00     0.000 C 
ATOM      3  N   UNL     1     -11.520 -45.315  30.037  1.00  0.00    -0.331 N 
ATOM      4  C   UNL     1     -12.750 -46.115  29.694  1.00  0.00     0.262 C 
ATOM      5  C   UNL     1     -11.527 -43.947  29.409  1.00  0.00     0.262 C 
ATOM      6  C   UNL     1     -12.886 -46.256  28.181  1.00  0.00     0.065 C 
ATOM      7  C   UNL     1     -11.603 -44.081  27.898  1.00  0.00     0.065 C 
ATOM      8  H   UNL     1     -10.712 -45.828  29.661  1.00  0.00     0.348 HD
BRANCH   3   9
ATOM      9  C   UNL     1     -11.284 -45.222  31.535  1.00  0.00     0.299 C 
BRANCH   9  10
ATOM     10  C   UNL     1      -9.900 -44.747  31.885  1.00  0.00     0.006 A 
ATOM     11  C   UNL     1      -9.717 -43.564  32.617  1.00  0.00     0.009 A 
ATOM     12  C   UNL     1      -8.774 -45.490  31.498  1.00  0.00     0.009 A 
ATOM     13  C   UNL     1      -8.434 -43.140  32.962  1.00  0.00     0.001 A 
ATOM     14  C   UNL     1      -7.493 -45.062  31.847  1.00  0.00     0.001 A 
ATOM     15  C   UNL     1      -7.323 -43.889  32.580  1.00  0.00     0.000 A 
ENDBRANCH   9  10
ENDBRANCH   3   9
ENDBRANCH   1   2
BRANCH   1  16
ATOM     16  C   UNL     1     -14.043 -42.960  26.238  1.00  0.00     0.061 C 
BRANCH  16  17
ATOM     17  C   UNL     1     -15.221 -42.920  25.329  1.00  0.00     0.091 A 
ATOM     18  N   UNL     1     -15.034 -43.110  24.015  1.00  0.00    -0.084 NA
ATOM     19  C   UNL     1     -16.587 -42.711  25.640  1.00  0.00     0.045 A 
ATOM     20  O   UNL     1     -16.297 -43.032  23.446  1.00  0.00    -0.356 OA
ATOM     21  C   UNL     1     -17.368 -42.483  26.778  1.00  0.00     0.016 A 
ATOM     22  C   UNL     1     -17.219 -42.790  24.416  1.00  0.00     0.169 A 
ATOM     23  C   UNL     1     -18.761 -42.339  26.613  1.00  0.00     0.027 A 
ATOM     24  C   UNL     1     -18.593 -42.649  24.230  1.00  0.00     0.076 A 
ATOM     25  C   UNL     1     -19.399 -42.399  25.359  1.00  0.00     0.041 A 
BRANCH  25  26
ATOM     26  N   UNL     1     -20.780 -42.277  25.200  1.00  0.00    -0.367 N 
ATOM     27  C   UNL     1     -21.381 -40.937  25.424  1.00  0.00     0.145 C 
ATOM     28  C   UNL     1     -21.708 -43.348  25.631  1.00  0.00     0.145 C 
ATOM     29  C   UNL     1     -21.826 -40.795  26.890  1.00  0.00     0.181 C 
ATOM     30  C   UNL     1     -22.162 -43.128  27.084  1.00  0.00     0.181 C 
ATOM     31  O   UNL     1     -22.752 -41.829  27.262  1.00  0.00    -0.378 OA
ENDBRANCH  25  26
ENDBRANCH  16  17
ENDBRANCH   1  16
TORSDOF 6
ENDMDL
MODEL 3
REMARK VINA RESULT:   -11.412      1.406      2.155
REMARK INTER + INTRA:         -16.249
REMARK INTER:                 -15.517
REMARK INTRA:                  -0.732
REMARK UNBOUND:                -0.833
REMARK SMILES c1ccc(C[N@H+]2CC[C@@H](CCc3noc4cc(N5CCOCC5)ccc34)CC2)cc1
REMARK SMILES IDX 10 1 9 2 6 3 28 4 7 5 27 6 8 7 5 9 4 10 3 11 29 12 2 13
REMARK SMILES IDX 30 14 1 15 11 16 12 17 13 18 26 19 14 20 25 21 15 22 24 23
REMARK SMILES IDX 16 24 17 25 18 26 19 27 23 28 20 29 22 30 21 31
REMARK H PARENT 6 8
ROOT
ATOM      1  C   UNL     1     -14.262 -44.282  27.340  1.00  0.00     0.010 C 
ENDROOT
BRANCH   1   2
ATOM      2  C   UNL     1     -12.822 -44.838  27.433  1.00  0.00     0.000 C 
ATOM      3  N   UNL     1     -11.431 -45.253  30.004  1.00  0.00    -0.331 N 
ATOM      4  C   UNL     1     -12.517 -46.216  29.601  1.00  0.00     0.262 C 
ATOM      5  C   UNL     1     -11.701 -43.849  29.531  1.00  0.00     0.262 C 
ATOM      6  C   UNL     1     -12.688 -46.219  28.085  1.00  0.00     0.065 C 
ATOM      7  C   UNL     1     -11.815 -43.834  28.017  1.00  0.00     0.065 C 
ATOM      8  H   UNL     1     -10.563 -45.572  29.555  1.00  0.00     0.348 HD
BRANCH   3   9
ATOM      9  C   UNL     1     -11.153 -45.278  31.497  1.00  0.00     0.299 C 
BRANCH   9  10
ATOM     10  C   UNL     1      -9.735 -44.913  31.839  1.00  0.00     0.006 A 
ATOM     11  C   UNL     1      -8.674 -45.754  31.470  1.00  0.00     0.009 A 
ATOM     12  C   UNL     1      -9.451 -43.716  32.516  1.00  0.00     0.009 A 
ATOM     13  C   UNL     1      -7.357 -45.399  31.766  1.00  0.00     0.001 A 
ATOM     14  C   UNL     1      -8.133 -43.366  32.808  1.00  0.00     0.001 A 
ATOM     15  C   UNL     1      -7.087 -44.206  32.432  1.00  0.00     0.000 A 
ENDBRANCH   9  10
ENDBRANCH   3   9
ENDBRANCH   1   2
BRANCH   1  16
ATOM     16  C   UNL     1     -14.570 -43.285  26.222  1.00  0.00     0.061 C 
BRANCH  16  17
ATOM     17  C   UNL     1     -15.994 -42.855  26.228  1.00  0.00     0.091 A 
ATOM     18  N   UNL     1     -16.629 -42.726  27.402  1.00  0.00    -0.084 NA
ATOM     19  C   UNL     1     -16.838 -42.531  25.137  1.00  0.00     0.045 A 
ATOM     20  O   UNL     1     -17.912 -42.305  27.086  1.00  0.00    -0.356 OA
ATOM     21  C   UNL     1     -16.751 -42.465  23.742  1.00  0.00     0.016 A 
ATOM     22  C   UNL     1     -18.035 -42.194  25.736  1.00  0.00     0.169 A 
ATOM     23  C   UNL     1     -17.893 -42.062  23.021  1.00  0.00     0.027 A 
ATOM     24  C   UNL     1     -19.176 -41.795  25.042  1.00  0.00     0.076 A 
ATOM     25  C   UNL     1     -19.118 -41.739  23.636  1.00  0.00     0.041 A 
BRANCH  25  26
ATOM     26  N   UNL     1     -20.242 -41.320  22.920  1.00  0.00    -0.367 N 
ATOM     27  C   UNL     1     -21.574 -41.558  23.534  1.00  0.00     0.145 C 
ATOM     28  C   UNL     1     -20.312 -41.442  21.447  1.00  0.00     0.145 C 
ATOM     29  C   UNL     1     -22.137 -42.911  23.067  1.00  0.00     0.181 C 
ATOM     30  C   UNL     1     -20.932 -42.790  21.037  1.00  0.00     0.181 C 
ATOM     31  O   UNL     1     -22.225 -42.980  21.635  1.00  0.00    -0.378 OA
ENDBRANCH  25  26
ENDBRANCH  16  17
ENDBRANCH   1  16
TORSDOF 6
ENDMDL
MODEL 4
REMARK VINA RESULT:   -10.844      2.738     11.571
REMARK INTER + INTRA:         -15.481
REMARK INTER:                 -15.261
REMARK INTRA:                  -0.220
REMARK UNBOUND:                -0.833
REMARK SMILES c1ccc(C[N@H+]2CC[C@@H](CCc3noc4cc(N5CCOCC5)ccc34)CC2)cc1
REMARK SMILES IDX 10 1 9 2 6 3 28 4 7 5 27 6 8 7 5 9 4 10 3 11 29 12 2 13
REMARK SMILES IDX 30 14 1 15 11 16 12 17 13 18 26 19 14 20 25 21 15 22 24 23
REMARK SMILES IDX 16 24 17 25 18 26 19 27 23 28 20 29 22 30 21 31
REMARK H PARENT 6 8
ROOT
ATOM      1  C   UNL     1     -14.306 -43.750  24.905  1.00  0.00     0.010 C 
ENDROOT
BRANCH   1   2
ATOM      2  C   UNL     1     -15.098 -42.424  24.998  1.00  0.00     0.000 C 
ATOM      3  N   UNL     1     -17.806 -42.099  23.870  1.00  0.00    -0.331 N 
ATOM      4  C   UNL     1     -17.639 -42.891  25.140  1.00  0.00     0.262 C 
ATOM      5  C   UNL     1     -16.634 -42.248  22.937  1.00  0.00     0.262 C 
ATOM      6  C   UNL     1     -16.363 -42.471  25.863  1.00  0.00     0.065 C 
ATOM      7  C   UNL     1     -15.368 -41.776  23.630  1.00  0.00     0.065 C 
ATOM      8  H   UNL     1     -17.868 -41.108  24.138  1.00  0.00     0.348 HD
BRANCH   3   9
ATOM      9  C   UNL     1     -19.111 -42.411  23.155  1.00  0.00     0.299 C 
BRANCH   9  10
ATOM     10  C   UNL     1     -19.863 -41.177  22.736  1.00  0.00     0.006 A 
ATOM     11  C   UNL     1     -19.359 -40.344  21.725  1.00  0.00     0.009 A 
ATOM     12  C   UNL     1     -21.087 -40.851  23.340  1.00  0.00     0.009 A 
ATOM     13  C   UNL     1     -20.072 -39.215  21.321  1.00  0.00     0.001 A 
ATOM     14  C   UNL     1     -21.796 -39.721  22.931  1.00  0.00     0.001 A 
ATOM     15  C   UNL     1     -21.290 -38.905  21.922  1.00  0.00     0.000 A 
ENDBRANCH   9  10
ENDBRANCH   3   9
ENDBRANCH   1   2
BRANCH   1  16
ATOM     16  C   UNL     1     -14.183 -44.596  26.174  1.00  0.00     0.061 C 
BRANCH  16  17
ATOM     17  C   UNL     1     -13.146 -44.069  27.102  1.00  0.00     0.091 A 
ATOM     18  N   UNL     1     -12.755 -42.792  26.982  1.00  0.00    -0.084 NA
ATOM     19  C   UNL     1     -12.473 -44.727  28.160  1.00  0.00     0.045 A 
ATOM     20  O   UNL     1     -11.810 -42.599  27.978  1.00  0.00    -0.356 OA
ATOM     21  C   UNL     1     -12.461 -45.994  28.754  1.00  0.00     0.016 A 
ATOM     22  C   UNL     1     -11.641 -43.754  28.676  1.00  0.00     0.169 A 
ATOM     23  C   UNL     1     -11.596 -46.212  29.845  1.00  0.00     0.027 A 
ATOM     24  C   UNL     1     -10.777 -43.948  29.752  1.00  0.00     0.076 A 
ATOM     25  C   UNL     1     -10.734 -45.221  30.355  1.00  0.00     0.041 A 
BRANCH  25  26
ATOM     26  N   UNL     1      -9.893 -45.433  31.449  1.00  0.00    -0.367 N 
ATOM     27  C   UNL     1      -9.502 -44.247  32.253  1.00  0.00     0.145 C 
ATOM     28  C   UNL     1      -8.794 -46.424  31.402  1.00  0.00     0.145 C 
ATOM     29  C   UNL     1      -8.183 -43.659  31.719  1.00  0.00     0.181 C 
ATOM     30  C   UNL     1      -7.489 -45.771  30.913  1.00  0.00     0.181 C 
ATOM     31  O   UNL     1      -7.131 -44.638  31.722  1.00  0.00    -0.378 OA
ENDBRANCH  25  26
ENDBRANCH  16  17
ENDBRANCH   1  16
TORSDOF 6
ENDMDL
MODEL 5
REMARK VINA RESULT:   -10.540      1.391      2.236
REMARK INTER + INTRA:         -15.071
REMARK INTER:                 -14.650
REMARK INTRA:                  -0.421
REMARK UNBOUND:                -0.833
REMARK SMILES c1ccc(C[N@H+]2CC[C@@H](CCc3noc4cc(N5CCOCC5)ccc34)CC2)cc1
REMARK SMILES IDX 10 1 9 2 6 3 28 4 7 5 27 6 8 7 5 9 4 10 3 11 29 12 2 13
REMARK SMILES IDX 30 14 1 15 11 16 12 17 13 18 26 19 14 20 25 21 15 22 24 23
REMARK SMILES IDX 16 24 17 25 18 26 19 27 23 28 20 29 22 30 21 31
REMARK H PARENT 6 8
ROOT
ATOM      1  C   UNL     1     -14.373 -44.303  27.208  1.00  0.00     0.010 C 
ENDROOT
BRANCH   1   2
ATOM      2  C   UNL     1     -12.958 -44.921  27.295  1.00  0.00     0.000 C 
ATOM      3  N   UNL     1     -11.525 -45.279  29.851  1.00  0.00    -0.331 N 
ATOM      4  C   UNL     1     -12.664 -46.208  29.519  1.00  0.00     0.262 C 
ATOM      5  C   UNL     1     -11.742 -43.887  29.318  1.00  0.00     0.262 C 
ATOM      6  C   UNL     1     -12.872 -46.274  28.010  1.00  0.00     0.065 C 
ATOM      7  C   UNL     1     -11.892 -43.939  27.808  1.00  0.00     0.065 C 
ATOM      8  H   UNL     1     -10.684 -45.659  29.399  1.00  0.00     0.348 HD
BRANCH   3   9
ATOM      9  C   UNL     1     -11.212 -45.247  31.338  1.00  0.00     0.299 C 
BRANCH   9  10
ATOM     10  C   UNL     1     -12.052 -44.255  32.095  1.00  0.00     0.006 A 
ATOM     11  C   UNL     1     -13.446 -44.408  32.167  1.00  0.00     0.009 A 
ATOM     12  C   UNL     1     -11.451 -43.171  32.755  1.00  0.00     0.009 A 
ATOM     13  C   UNL     1     -14.218 -43.501  32.892  1.00  0.00     0.001 A 
ATOM     14  C   UNL     1     -12.230 -42.267  33.479  1.00  0.00     0.001 A 
ATOM     15  C   UNL     1     -13.611 -42.433  33.549  1.00  0.00     0.000 A 
ENDBRANCH   9  10
ENDBRANCH   3   9
ENDBRANCH   1   2
BRANCH   1  16
ATOM     16  C   UNL     1     -14.492 -42.864  26.703  1.00  0.00     0.061 C 
BRANCH  16  17
ATOM     17  C   UNL     1     -15.116 -42.790  25.355  1.00  0.00     0.091 A 
ATOM     18  N   UNL     1     -14.338 -42.916  24.270  1.00  0.00    -0.084 NA
ATOM     19  C   UNL     1     -16.477 -42.609  25.006  1.00  0.00     0.045 A 
ATOM     20  O   UNL     1     -15.197 -42.822  23.185  1.00  0.00    -0.356 OA
ATOM     21  C   UNL     1     -17.703 -42.441  25.661  1.00  0.00     0.016 A 
ATOM     22  C   UNL     1     -16.470 -42.634  23.626  1.00  0.00     0.169 A 
ATOM     23  C   UNL     1     -18.865 -42.301  24.876  1.00  0.00     0.027 A 
ATOM     24  C   UNL     1     -17.606 -42.496  22.831  1.00  0.00     0.076 A 
ATOM     25  C   UNL     1     -18.849 -42.308  23.467  1.00  0.00     0.041 A 
BRANCH  25  26
ATOM     26  N   UNL     1     -20.004 -42.190  22.692  1.00  0.00    -0.367 N 
ATOM     27  C   UNL     1     -20.319 -40.852  22.129  1.00  0.00     0.145 C 
ATOM     28  C   UNL     1     -21.244 -42.924  23.033  1.00  0.00     0.145 C 
ATOM     29  C   UNL     1     -21.233 -40.075  23.092  1.00  0.00     0.181 C 
ATOM     30  C   UNL     1     -22.144 -42.080  23.953  1.00  0.00     0.181 C 
ATOM     31  O   UNL     1     -22.442 -40.800  23.371  1.00  0.00    -0.378 OA
ENDBRANCH  25  26
ENDBRANCH  16  17
ENDBRANCH   1  16
TORSDOF 6
ENDMDL
MODEL 6
REMARK VINA RESULT:   -10.382      3.082     11.018
REMARK INTER + INTRA:         -14.857
REMARK INTER:                 -14.346
REMARK INTRA:                  -0.511
REMARK UNBOUND:                -0.833
REMARK SMILES c1ccc(C[N@H+]2CC[C@@H](CCc3noc4cc(N5CCOCC5)ccc34)CC2)cc1
REMARK SMILES IDX 10 1 9 2 6 3 28 4 7 5 27 6 8 7 5 9 4 10 3 11 29 12 2 13
REMARK SMILES IDX 30 14 1 15 11 16 12 17 13 18 26 19 14 20 25 21 15 22 24 23
REMARK SMILES IDX 16 24 17 25 18 26 19 27 23 28 20 29 22 30 21 31
REMARK H PARENT 6 8
ROOT
ATOM      1  C   UNL     1     -13.730 -43.645  25.883  1.00  0.00     0.010 C 
ENDROOT
BRANCH   1   2
ATOM      2  C   UNL     1     -14.553 -42.345  25.720  1.00  0.00     0.000 C 
ATOM      3  N   UNL     1     -17.326 -42.327  24.709  1.00  0.00    -0.331 N 
ATOM      4  C   UNL     1     -17.068 -42.807  26.113  1.00  0.00     0.262 C 
ATOM      5  C   UNL     1     -16.202 -42.667  23.766  1.00  0.00     0.262 C 
ATOM      6  C   UNL     1     -15.768 -42.213  26.646  1.00  0.00     0.065 C 
ATOM      7  C   UNL     1     -14.915 -42.030  24.259  1.00  0.00     0.065 C 
ATOM      8  H   UNL     1     -17.401 -41.302  24.749  1.00  0.00     0.348 HD
BRANCH   3   9
ATOM      9  C   UNL     1     -18.657 -42.813  24.161  1.00  0.00     0.299 C 
BRANCH   9  10
ATOM     10  C   UNL     1     -19.799 -42.606  25.119  1.00  0.00     0.006 A 
ATOM     11  C   UNL     1     -20.558 -43.697  25.569  1.00  0.00     0.009 A 
ATOM     12  C   UNL     1     -20.111 -41.320  25.587  1.00  0.00     0.009 A 
ATOM     13  C   UNL     1     -21.599 -43.504  26.477  1.00  0.00     0.001 A 
ATOM     14  C   UNL     1     -21.153 -41.133  26.495  1.00  0.00     0.001 A 
ATOM     15  C   UNL     1     -21.895 -42.224  26.942  1.00  0.00     0.000 A 
ENDBRANCH   9  10
ENDBRANCH   3   9
ENDBRANCH   1   2
BRANCH   1  16
ATOM     16  C   UNL     1     -14.316 -44.754  26.759  1.00  0.00     0.061 C 
BRANCH  16  17
ATOM     17  C   UNL     1     -13.903 -44.624  28.182  1.00  0.00     0.091 A 
ATOM     18  N   UNL     1     -14.797 -44.189  29.081  1.00  0.00    -0.084 NA
ATOM     19  C   UNL     1     -12.652 -44.909  28.782  1.00  0.00     0.045 A 
ATOM     20  O   UNL     1     -14.131 -44.191  30.298  1.00  0.00    -0.356 OA
ATOM     21  C   UNL     1     -11.395 -45.382  28.387  1.00  0.00     0.016 A 
ATOM     22  C   UNL     1     -12.852 -44.616  30.116  1.00  0.00     0.169 A 
ATOM     23  C   UNL     1     -10.397 -45.529  29.372  1.00  0.00     0.027 A 
ATOM     24  C   UNL     1     -11.880 -44.752  31.105  1.00  0.00     0.076 A 
ATOM     25  C   UNL     1     -10.601 -45.208  30.728  1.00  0.00     0.041 A 
BRANCH  25  26
ATOM     26  N   UNL     1      -9.618 -45.374  31.705  1.00  0.00    -0.367 N 
ATOM     27  C   UNL     1      -9.289 -44.200  32.554  1.00  0.00     0.145 C 
ATOM     28  C   UNL     1      -8.415 -46.202  31.461  1.00  0.00     0.145 C 
ATOM     29  C   UNL     1      -8.128 -43.406  31.930  1.00  0.00     0.181 C 
ATOM     30  C   UNL     1      -7.269 -45.348  30.889  1.00  0.00     0.181 C 
ATOM     31  O   UNL     1      -6.967 -44.231  31.742  1.00  0.00    -0.378 OA
ENDBRANCH  25  26
ENDBRANCH  16  17
ENDBRANCH   1  16
TORSDOF 6
ENDMDL
MODEL 7
REMARK VINA RESULT:   -10.136      2.634      4.249
REMARK INTER + INTRA:         -14.524
REMARK INTER:                 -14.629
REMARK INTRA:                   0.105
REMARK UNBOUND:                -0.833
REMARK SMILES c1ccc(C[N@H+]2CC[C@@H](CCc3noc4cc(N5CCOCC5)ccc34)CC2)cc1
REMARK SMILES IDX 10 1 9 2 6 3 28 4 7 5 27 6 8 7 5 9 4 10 3 11 29 12 2 13
REMARK SMILES IDX 30 14 1 15 11 16 12 17 13 18 26 19 14 20 25 21 15 22 24 23
REMARK SMILES IDX 16 24 17 25 18 26 19 27 23 28 20 29 22 30 21 31
REMARK H PARENT 6 8
ROOT
ATOM      1  C   UNL     1     -17.026 -42.911  25.714  1.00  0.00     0.010 C 
ENDROOT
BRANCH   1   2
ATOM      2  C   UNL     1     -15.499 -42.694  25.836  1.00  0.00     0.000 C 
ATOM      3  N   UNL     1     -13.636 -44.847  26.613  1.00  0.00    -0.331 N 
ATOM      4  C   UNL     1     -14.222 -44.858  25.225  1.00  0.00     0.262 C 
ATOM      5  C   UNL     1     -14.592 -44.296  27.638  1.00  0.00     0.262 C 
ATOM      6  C   UNL     1     -14.641 -43.450  24.816  1.00  0.00     0.065 C 
ATOM      7  C   UNL     1     -14.969 -42.873  27.268  1.00  0.00     0.065 C 
ATOM      8  H   UNL     1     -12.814 -44.231  26.590  1.00  0.00     0.348 HD
BRANCH   3   9
ATOM      9  C   UNL     1     -13.114 -46.210  27.037  1.00  0.00     0.299 C 
BRANCH   9  10
ATOM     10  C   UNL     1     -12.352 -46.172  28.334  1.00  0.00     0.006 A 
ATOM     11  C   UNL     1     -13.033 -46.112  29.559  1.00  0.00     0.009 A 
ATOM     12  C   UNL     1     -10.948 -46.211  28.335  1.00  0.00     0.009 A 
ATOM     13  C   UNL     1     -12.322 -46.103  30.760  1.00  0.00     0.001 A 
ATOM     14  C   UNL     1     -10.244 -46.203  29.539  1.00  0.00     0.001 A 
ATOM     15  C   UNL     1     -10.930 -46.151  30.750  1.00  0.00     0.000 A 
ENDBRANCH   9  10
ENDBRANCH   3   9
ENDBRANCH   1   2
BRANCH   1  16
ATOM     16  C   UNL     1     -17.908 -42.435  26.869  1.00  0.00     0.061 C 
BRANCH  16  17
ATOM     17  C   UNL     1     -19.183 -41.834  26.393  1.00  0.00     0.091 A 
ATOM     18  N   UNL     1     -20.116 -41.490  27.292  1.00  0.00    -0.084 NA
ATOM     19  C   UNL     1     -19.595 -41.539  25.070  1.00  0.00     0.045 A 
ATOM     20  O   UNL     1     -21.161 -40.953  26.556  1.00  0.00    -0.356 OA
ATOM     21  C   UNL     1     -19.080 -41.648  23.774  1.00  0.00     0.016 A 
ATOM     22  C   UNL     1     -20.850 -40.987  25.232  1.00  0.00     0.169 A 
ATOM     23  C   UNL     1     -19.873 -41.195  22.700  1.00  0.00     0.027 A 
ATOM     24  C   UNL     1     -21.652 -40.535  24.186  1.00  0.00     0.076 A 
ATOM     25  C   UNL     1     -21.162 -40.652  22.870  1.00  0.00     0.041 A 
BRANCH  25  26
ATOM     26  N   UNL     1     -21.937 -40.184  21.807  1.00  0.00    -0.367 N 
ATOM     27  C   UNL     1     -22.189 -41.117  20.679  1.00  0.00     0.145 C 
ATOM     28  C   UNL     1     -21.827 -38.789  21.322  1.00  0.00     0.145 C 
ATOM     29  C   UNL     1     -21.111 -40.939  19.595  1.00  0.00     0.181 C 
ATOM     30  C   UNL     1     -20.775 -38.679  20.204  1.00  0.00     0.181 C 
ATOM     31  O   UNL     1     -21.057 -39.582  19.123  1.00  0.00    -0.378 OA
ENDBRANCH  25  26
ENDBRANCH  16  17
ENDBRANCH   1  16
TORSDOF 6
ENDMDL
MODEL 8
REMARK VINA RESULT:   -10.045      2.428      4.391
REMARK INTER + INTRA:         -14.401
REMARK INTER:                 -13.520
REMARK INTRA:                  -0.881
REMARK UNBOUND:                -0.833
REMARK SMILES c1ccc(C[N@H+]2CC[C@@H](CCc3noc4cc(N5CCOCC5)ccc34)CC2)cc1
REMARK SMILES IDX 10 1 9 2 6 3 28 4 7 5 27 6 8 7 5 9 4 10 3 11 29 12 2 13
REMARK SMILES IDX 30 14 1 15 11 16 12 17 13 18 26 19 14 20 25 21 15 22 24 23
REMARK SMILES IDX 16 24 17 25 18 26 19 27 23 28 20 29 22 30 21 31
REMARK H PARENT 6 8
ROOT
ATOM      1  C   UNL     1     -17.128 -42.749  24.942  1.00  0.00     0.010 C 
ENDROOT
BRANCH   1   2
ATOM      2  C   UNL     1     -15.665 -42.412  25.317  1.00  0.00     0.000 C 
ATOM      3  N   UNL     1     -13.869 -44.344  26.641  1.00  0.00    -0.331 N 
ATOM      4  C   UNL     1     -14.181 -44.526  25.178  1.00  0.00     0.262 C 
ATOM      5  C   UNL     1     -15.028 -43.770  27.411  1.00  0.00     0.262 C 
ATOM      6  C   UNL     1     -14.591 -43.196  24.554  1.00  0.00     0.065 C 
ATOM      7  C   UNL     1     -15.405 -42.418  26.832  1.00  0.00     0.065 C 
ATOM      8  H   UNL     1     -13.091 -43.675  26.702  1.00  0.00     0.348 HD
BRANCH   3   9
ATOM      9  C   UNL     1     -13.363 -45.620  27.292  1.00  0.00     0.299 C 
BRANCH   9  10
ATOM     10  C   UNL     1     -12.066 -45.431  28.031  1.00  0.00     0.006 A 
ATOM     11  C   UNL     1     -11.629 -44.145  28.385  1.00  0.00     0.009 A 
ATOM     12  C   UNL     1     -11.284 -46.539  28.391  1.00  0.00     0.009 A 
ATOM     13  C   UNL     1     -10.439 -43.975  29.093  1.00  0.00     0.001 A 
ATOM     14  C   UNL     1     -10.095 -46.363  29.100  1.00  0.00     0.001 A 
ATOM     15  C   UNL     1      -9.674 -45.083  29.452  1.00  0.00     0.000 A 
ENDBRANCH   9  10
ENDBRANCH   3   9
ENDBRANCH   1   2
BRANCH   1  16
ATOM     16  C   UNL     1     -17.429 -43.087  23.481  1.00  0.00     0.061 C 
BRANCH  16  17
ATOM     17  C   UNL     1     -17.801 -41.882  22.691  1.00  0.00     0.091 A 
ATOM     18  N   UNL     1     -16.838 -41.195  22.061  1.00  0.00    -0.084 NA
ATOM     19  C   UNL     1     -19.080 -41.313  22.473  1.00  0.00     0.045 A 
ATOM     20  O   UNL     1     -17.487 -40.156  21.411  1.00  0.00    -0.356 OA
ATOM     21  C   UNL     1     -20.407 -41.572  22.836  1.00  0.00     0.016 A 
ATOM     22  C   UNL     1     -18.823 -40.227  21.661  1.00  0.00     0.169 A 
ATOM     23  C   UNL     1     -21.411 -40.706  22.357  1.00  0.00     0.027 A 
ATOM     24  C   UNL     1     -19.799 -39.357  21.179  1.00  0.00     0.076 A 
ATOM     25  C   UNL     1     -21.140 -39.587  21.546  1.00  0.00     0.041 A 
BRANCH  25  26
ATOM     26  N   UNL     1     -22.138 -38.742  21.056  1.00  0.00    -0.367 N 
ATOM     27  C   UNL     1     -23.539 -39.231  21.115  1.00  0.00     0.145 C 
ATOM     28  C   UNL     1     -21.923 -37.902  19.856  1.00  0.00     0.145 C 
ATOM     29  C   UNL     1     -23.904 -39.949  19.803  1.00  0.00     0.181 C 
ATOM     30  C   UNL     1     -22.353 -38.647  18.581  1.00  0.00     0.181 C 
ATOM     31  O   UNL     1     -23.717 -39.092  18.664  1.00  0.00    -0.378 OA
ENDBRANCH  25  26
ENDBRANCH  16  17
ENDBRANCH   1  16
TORSDOF 6
ENDMDL
MODEL 9
REMARK VINA RESULT:   -10.043      3.467      6.805
REMARK INTER + INTRA:         -14.399
REMARK INTER:                 -13.698
REMARK INTRA:                  -0.701
REMARK UNBOUND:                -0.833
REMARK SMILES c1ccc(C[N@H+]2CC[C@@H](CCc3noc4cc(N5CCOCC5)ccc34)CC2)cc1
REMARK SMILES IDX 10 1 9 2 6 3 28 4 7 5 27 6 8 7 5 9 4 10 3 11 29 12 2 13
REMARK SMILES IDX 30 14 1 15 11 16 12 17 13 18 26 19 14 20 25 21 15 22 24 23
REMARK SMILES IDX 16 24 17 25 18 26 19 27 23 28 20 29 22 30 21 31
REMARK H PARENT 6 8
ROOT
ATOM      1  C   UNL     1     -18.033 -41.384  23.057  1.00  0.00     0.010 C 
ENDROOT
BRANCH   1   2
ATOM      2  C   UNL     1     -17.624 -42.751  23.654  1.00  0.00     0.000 C 
ATOM      3  N   UNL     1     -15.387 -43.059  25.556  1.00  0.00    -0.331 N 
ATOM      4  C   UNL     1     -16.678 -42.453  26.043  1.00  0.00     0.262 C 
ATOM      5  C   UNL     1     -15.090 -42.709  24.121  1.00  0.00     0.262 C 
ATOM      6  C   UNL     1     -17.840 -42.903  25.164  1.00  0.00     0.065 C 
ATOM      7  C   UNL     1     -16.217 -43.206  23.233  1.00  0.00     0.065 C 
ATOM      8  H   UNL     1     -15.493 -44.080  25.613  1.00  0.00     0.348 HD
BRANCH   3   9
ATOM      9  C   UNL     1     -14.208 -42.719  26.451  1.00  0.00     0.299 C 
BRANCH   9  10
ATOM     10  C   UNL     1     -13.461 -43.934  26.928  1.00  0.00     0.006 A 
ATOM     11  C   UNL     1     -13.801 -45.211  26.456  1.00  0.00     0.009 A 
ATOM     12  C   UNL     1     -12.401 -43.806  27.841  1.00  0.00     0.009 A 
ATOM     13  C   UNL     1     -13.089 -46.333  26.880  1.00  0.00     0.001 A 
ATOM     14  C   UNL     1     -11.692 -44.931  28.261  1.00  0.00     0.001 A 
ATOM     15  C   UNL     1     -12.034 -46.193  27.780  1.00  0.00     0.000 A 
ENDBRANCH   9  10
ENDBRANCH   3   9
ENDBRANCH   1   2
BRANCH   1  16
ATOM     16  C   UNL     1     -19.517 -41.149  22.769  1.00  0.00     0.061 C 
BRANCH  16  17
ATOM     17  C   UNL     1     -19.730 -40.345  21.535  1.00  0.00     0.091 A 
ATOM     18  N   UNL     1     -18.816 -40.405  20.555  1.00  0.00    -0.084 NA
ATOM     19  C   UNL     1     -20.804 -39.485  21.200  1.00  0.00     0.045 A 
ATOM     20  O   UNL     1     -19.294 -39.575  19.552  1.00  0.00    -0.356 OA
ATOM     21  C   UNL     1     -22.001 -39.047  21.776  1.00  0.00     0.016 A 
ATOM     22  C   UNL     1     -20.476 -39.025  19.940  1.00  0.00     0.169 A 
ATOM     23  C   UNL     1     -22.808 -38.153  21.042  1.00  0.00     0.027 A 
ATOM     24  C   UNL     1     -21.257 -38.141  19.198  1.00  0.00     0.076 A 
ATOM     25  C   UNL     1     -22.458 -37.672  19.765  1.00  0.00     0.041 A 
BRANCH  25  26
ATOM     26  N   UNL     1     -23.269 -36.804  19.031  1.00  0.00    -0.367 N 
ATOM     27  C   UNL     1     -24.594 -36.453  19.604  1.00  0.00     0.145 C 
ATOM     28  C   UNL     1     -23.334 -36.867  17.553  1.00  0.00     0.145 C 
ATOM     29  C   UNL     1     -25.667 -37.429  19.089  1.00  0.00     0.181 C 
ATOM     30  C   UNL     1     -24.457 -37.814  17.094  1.00  0.00     0.181 C 
ATOM     31  O   UNL     1     -25.726 -37.438  17.653  1.00  0.00    -0.378 OA
ENDBRANCH  25  26
ENDBRANCH  16  17
ENDBRANCH   1  16
TORSDOF 6
ENDMDL
