MODEL 1
REMARK VINA RESULT:   -10.409      0.000      0.000
REMARK INTER + INTRA:         -11.890
REMARK INTER:                 -11.626
REMARK INTRA:                  -0.265
REMARK UNBOUND:                -0.265
REMARK SMILES C[N@H+]1CC[C@H](C[C@H]2Cc3ccccc3C2=O)CC1
REMARK SMILES IDX 6 1 5 2 2 3 3 4 18 5 4 6 17 7 1 8 7 10 8 11 15 12 9 13 14 14
REMARK SMILES IDX 10 15 13 16 11 17 12 18 16 19
REMARK H PARENT 2 9
ROOT
ATOM      1  C   UNL     1     -13.793 -45.169  26.736  1.00  0.00     0.016 C 
ENDROOT
BRANCH   1   2
ATOM      2  C   UNL     1     -12.739 -45.153  27.870  1.00  0.00     0.001 C 
ATOM      3  N   UNL     1     -11.334 -46.134  30.236  1.00  0.00    -0.337 N 
ATOM      4  C   UNL     1     -10.661 -46.174  28.882  1.00  0.00     0.262 C 
ATOM      5  C   UNL     1     -12.306 -44.989  30.359  1.00  0.00     0.262 C 
ATOM      6  C   UNL     1     -11.726 -46.300  27.803  1.00  0.00     0.065 C 
ATOM      7  C   UNL     1     -13.371 -45.098  29.270  1.00  0.00     0.065 C 
ATOM      8  C   UNL     1     -10.328 -46.137  31.353  1.00  0.00     0.332 C 
ATOM      9  H   UNL     1     -11.871 -47.009  30.327  1.00  0.00     0.347 HD
ENDBRANCH   1   2
BRANCH   1  10
ATOM     10  C   UNL     1     -14.253 -43.816  26.173  1.00  0.00     0.066 C 
ATOM     11  C   UNL     1     -14.579 -43.904  24.656  1.00  0.00     0.048 C 
ATOM     12  C   UNL     1     -15.556 -43.322  26.788  1.00  0.00     0.166 C 
ATOM     13  C   UNL     1     -15.901 -43.223  24.511  1.00  0.00    -0.036 A 
ATOM     14  C   UNL     1     -16.478 -42.919  25.736  1.00  0.00     0.021 A 
ATOM     15  C   UNL     1     -16.579 -42.929  23.339  1.00  0.00     0.004 A 
ATOM     16  C   UNL     1     -17.720 -42.323  25.858  1.00  0.00     0.012 A 
ATOM     17  C   UNL     1     -17.836 -42.321  23.431  1.00  0.00     0.000 A 
ATOM     18  C   UNL     1     -18.404 -42.021  24.681  1.00  0.00     0.001 A 
ATOM     19  O   UNL     1     -15.806 -43.230  27.978  1.00  0.00    -0.294 OA
ENDBRANCH   1  10
TORSDOF 2
ENDMDL
MODEL 2
REMARK VINA RESULT:   -10.098      1.309      2.030
REMARK INTER + INTRA:         -11.543
REMARK INTER:                 -11.385
REMARK INTRA:                  -0.159
REMARK UNBOUND:                -0.265
REMARK SMILES C[N@H+]1CC[C@H](C[C@H]2Cc3ccccc3C2=O)CC1
REMARK SMILES IDX 6 1 5 2 2 3 3 4 18 5 4 6 17 7 1 8 7 10 8 11 15 12 9 13 14 14
REMARK SMILES IDX 10 15 13 16 11 17 12 18 16 19
REMARK H PARENT 2 9
ROOT
ATOM      1  C   UNL     1     -14.509 -44.297  26.099  1.00  0.00     0.016 C 
ENDROOT
BRANCH   1   2
ATOM      2  C   UNL     1     -13.505 -44.539  27.253  1.00  0.00     0.001 C 
ATOM      3  N   UNL     1     -10.935 -45.204  28.473  1.00  0.00    -0.337 N 
ATOM      4  C   UNL     1     -11.439 -43.779  28.493  1.00  0.00     0.262 C 
ATOM      5  C   UNL     1     -12.059 -46.209  28.488  1.00  0.00     0.262 C 
ATOM      6  C   UNL     1     -12.334 -43.552  27.284  1.00  0.00     0.065 C 
ATOM      7  C   UNL     1     -12.972 -45.980  27.287  1.00  0.00     0.065 C 
ATOM      8  C   UNL     1      -9.944 -45.455  29.575  1.00  0.00     0.332 C 
ATOM      9  H   UNL     1     -10.422 -45.325  27.588  1.00  0.00     0.347 HD
ENDBRANCH   1   2
BRANCH   1  10
ATOM     10  C   UNL     1     -15.285 -42.972  26.098  1.00  0.00     0.066 C 
ATOM     11  C   UNL     1     -16.200 -42.840  24.850  1.00  0.00     0.048 C 
ATOM     12  C   UNL     1     -16.257 -42.845  27.266  1.00  0.00     0.166 C 
ATOM     13  C   UNL     1     -17.521 -42.398  25.391  1.00  0.00    -0.036 A 
ATOM     14  C   UNL     1     -17.564 -42.433  26.777  1.00  0.00     0.021 A 
ATOM     15  C   UNL     1     -18.648 -42.025  24.676  1.00  0.00     0.004 A 
ATOM     16  C   UNL     1     -18.695 -42.107  27.505  1.00  0.00     0.012 A 
ATOM     17  C   UNL     1     -19.805 -41.684  25.386  1.00  0.00     0.000 A 
ATOM     18  C   UNL     1     -19.829 -41.726  26.790  1.00  0.00     0.001 A 
ATOM     19  O   UNL     1     -15.999 -43.019  28.445  1.00  0.00    -0.294 OA
ENDBRANCH   1  10
TORSDOF 2
ENDMDL
MODEL 3
REMARK VINA RESULT:    -9.751      1.526      2.211
REMARK INTER + INTRA:         -11.155
REMARK INTER:                 -10.848
REMARK INTRA:                  -0.307
REMARK UNBOUND:                -0.265
REMARK SMILES C[N@H+]1CC[C@H](C[C@H]2Cc3ccccc3C2=O)CC1
REMARK SMILES IDX 6 1 5 2 2 3 3 4 18 5 4 6 17 7 1 8 7 10 8 11 15 12 9 13 14 14
REMARK SMILES IDX 10 15 13 16 11 17 12 18 16 19
REMARK H PARENT 2 9
ROOT
ATOM      1  C   UNL     1     -13.221 -43.195  26.751  1.00  0.00     0.016 C 
ENDROOT
BRANCH   1   2
ATOM      2  C   UNL     1     -12.439 -43.937  27.861  1.00  0.00     0.001 C 
ATOM      3  N   UNL     1     -10.378 -45.680  28.979  1.00  0.00    -0.337 N 
ATOM      4  C   UNL     1     -10.295 -44.183  29.176  1.00  0.00     0.262 C 
ATOM      5  C   UNL     1     -11.801 -46.166  28.877  1.00  0.00     0.262 C 
ATOM      6  C   UNL     1     -10.981 -43.491  28.008  1.00  0.00     0.065 C 
ATOM      7  C   UNL     1     -12.503 -45.465  27.716  1.00  0.00     0.065 C 
ATOM      8  C   UNL     1      -9.608 -46.420  30.037  1.00  0.00     0.332 C 
ATOM      9  H   UNL     1      -9.913 -45.888  28.083  1.00  0.00     0.347 HD
ENDBRANCH   1   2
BRANCH   1  10
ATOM     10  C   UNL     1     -14.585 -43.770  26.337  1.00  0.00     0.066 C 
ATOM     11  C   UNL     1     -15.750 -43.123  27.135  1.00  0.00     0.048 C 
ATOM     12  C   UNL     1     -14.943 -43.475  24.885  1.00  0.00     0.166 C 
ATOM     13  C   UNL     1     -16.768 -42.765  26.102  1.00  0.00    -0.036 A 
ATOM     14  C   UNL     1     -16.293 -42.936  24.809  1.00  0.00     0.021 A 
ATOM     15  C   UNL     1     -18.045 -42.268  26.306  1.00  0.00     0.004 A 
ATOM     16  C   UNL     1     -17.039 -42.632  23.685  1.00  0.00     0.012 A 
ATOM     17  C   UNL     1     -18.825 -41.956  25.187  1.00  0.00     0.000 A 
ATOM     18  C   UNL     1     -18.326 -42.136  23.885  1.00  0.00     0.001 A 
ATOM     19  O   UNL     1     -14.242 -43.684  23.909  1.00  0.00    -0.294 OA
ENDBRANCH   1  10
TORSDOF 2
ENDMDL
MODEL 4
REMARK VINA RESULT:    -9.644      1.529      2.353
REMARK INTER + INTRA:         -11.036
REMARK INTER:                 -10.702
REMARK INTRA:                  -0.333
REMARK UNBOUND:                -0.265
REMARK SMILES C[N@H+]1CC[C@H](C[C@H]2Cc3ccccc3C2=O)CC1
REMARK SMILES IDX 6 1 5 2 2 3 3 4 18 5 4 6 17 7 1 8 7 10 8 11 15 12 9 13 14 14
REMARK SMILES IDX 10 15 13 16 11 17 12 18 16 19
REMARK H PARENT 2 9
ROOT
ATOM      1  C   UNL     1     -13.754 -42.890  26.535  1.00  0.00     0.016 C 
ENDROOT
BRANCH   1   2
ATOM      2  C   UNL     1     -12.665 -43.853  27.065  1.00  0.00     0.001 C 
ATOM      3  N   UNL     1     -11.131 -45.317  29.075  1.00  0.00    -0.337 N 
ATOM      4  C   UNL     1     -12.101 -46.051  28.177  1.00  0.00     0.262 C 
ATOM      5  C   UNL     1     -10.530 -44.109  28.402  1.00  0.00     0.262 C 
ATOM      6  C   UNL     1     -13.214 -45.098  27.768  1.00  0.00     0.065 C 
ATOM      7  C   UNL     1     -11.641 -43.153  27.973  1.00  0.00     0.065 C 
ATOM      8  C   UNL     1     -10.074 -46.239  29.616  1.00  0.00     0.332 C 
ATOM      9  H   UNL     1     -11.670 -44.985  29.887  1.00  0.00     0.347 HD
ENDBRANCH   1   2
BRANCH   1  10
ATOM     10  C   UNL     1     -15.126 -43.489  26.190  1.00  0.00     0.066 C 
ATOM     11  C   UNL     1     -16.270 -42.812  26.994  1.00  0.00     0.048 C 
ATOM     12  C   UNL     1     -15.531 -43.264  24.738  1.00  0.00     0.166 C 
ATOM     13  C   UNL     1     -17.322 -42.508  25.977  1.00  0.00    -0.036 A 
ATOM     14  C   UNL     1     -16.886 -42.735  24.679  1.00  0.00     0.021 A 
ATOM     15  C   UNL     1     -18.595 -42.007  26.197  1.00  0.00     0.004 A 
ATOM     16  C   UNL     1     -17.668 -42.487  23.566  1.00  0.00     0.012 A 
ATOM     17  C   UNL     1     -19.411 -41.751  25.089  1.00  0.00     0.000 A 
ATOM     18  C   UNL     1     -18.951 -41.988  23.783  1.00  0.00     0.001 A 
ATOM     19  O   UNL     1     -14.859 -43.514  23.752  1.00  0.00    -0.294 OA
ENDBRANCH   1  10
TORSDOF 2
ENDMDL
MODEL 5
REMARK VINA RESULT:    -9.569      2.325      7.176
REMARK INTER + INTRA:         -10.952
REMARK INTER:                 -10.655
REMARK INTRA:                  -0.297
REMARK UNBOUND:                -0.265
REMARK SMILES C[N@H+]1CC[C@H](C[C@H]2Cc3ccccc3C2=O)CC1
REMARK SMILES IDX 6 1 5 2 2 3 3 4 18 5 4 6 17 7 1 8 7 10 8 11 15 12 9 13 14 14
REMARK SMILES IDX 10 15 13 16 11 17 12 18 16 19
REMARK H PARENT 2 9
ROOT
ATOM      1  C   UNL     1     -13.680 -43.794  26.773  1.00  0.00     0.016 C 
ENDROOT
BRANCH   1   2
ATOM      2  C   UNL     1     -14.970 -43.724  25.921  1.00  0.00     0.001 C 
ATOM      3  N   UNL     1     -16.991 -42.478  24.218  1.00  0.00    -0.337 N 
ATOM      4  C   UNL     1     -16.020 -43.480  23.635  1.00  0.00     0.262 C 
ATOM      5  C   UNL     1     -17.294 -42.752  25.670  1.00  0.00     0.262 C 
ATOM      6  C   UNL     1     -14.727 -43.439  24.435  1.00  0.00     0.065 C 
ATOM      7  C   UNL     1     -15.999 -42.729  26.478  1.00  0.00     0.065 C 
ATOM      8  C   UNL     1     -18.244 -42.380  23.394  1.00  0.00     0.332 C 
ATOM      9  H   UNL     1     -16.535 -41.556  24.164  1.00  0.00     0.347 HD
ENDBRANCH   1   2
BRANCH   1  10
ATOM     10  C   UNL     1     -13.439 -45.070  27.594  1.00  0.00     0.066 C 
ATOM     11  C   UNL     1     -12.011 -45.640  27.369  1.00  0.00     0.048 C 
ATOM     12  C   UNL     1     -13.494 -44.835  29.098  1.00  0.00     0.166 C 
ATOM     13  C   UNL     1     -11.492 -45.921  28.742  1.00  0.00    -0.036 A 
ATOM     14  C   UNL     1     -12.328 -45.429  29.735  1.00  0.00     0.021 A 
ATOM     15  C   UNL     1     -10.306 -46.548  29.088  1.00  0.00     0.004 A 
ATOM     16  C   UNL     1     -12.039 -45.533  31.083  1.00  0.00     0.012 A 
ATOM     17  C   UNL     1      -9.989 -46.672  30.446  1.00  0.00     0.000 A 
ATOM     18  C   UNL     1     -10.849 -46.168  31.437  1.00  0.00     0.001 A 
ATOM     19  O   UNL     1     -14.385 -44.272  29.711  1.00  0.00    -0.294 OA
ENDBRANCH   1  10
TORSDOF 2
ENDMDL
MODEL 6
REMARK VINA RESULT:    -9.462      3.156      7.430
REMARK INTER + INTRA:         -10.833
REMARK INTER:                 -10.451
REMARK INTRA:                  -0.382
REMARK UNBOUND:                -0.265
REMARK SMILES C[N@H+]1CC[C@H](C[C@H]2Cc3ccccc3C2=O)CC1
REMARK SMILES IDX 6 1 5 2 2 3 3 4 18 5 4 6 17 7 1 8 7 10 8 11 15 12 9 13 14 14
REMARK SMILES IDX 10 15 13 16 11 17 12 18 16 19
REMARK H PARENT 2 9
ROOT
ATOM      1  C   UNL     1     -15.131 -42.378  24.541  1.00  0.00     0.016 C 
ENDROOT
BRANCH   1   2
ATOM      2  C   UNL     1     -16.375 -41.720  23.898  1.00  0.00     0.001 C 
ATOM      3  N   UNL     1     -18.578 -41.441  21.999  1.00  0.00    -0.337 N 
ATOM      4  C   UNL     1     -18.858 -41.822  23.435  1.00  0.00     0.262 C 
ATOM      5  C   UNL     1     -17.353 -40.572  21.865  1.00  0.00     0.262 C 
ATOM      6  C   UNL     1     -17.652 -42.561  23.995  1.00  0.00     0.065 C 
ATOM      7  C   UNL     1     -16.140 -41.300  22.439  1.00  0.00     0.065 C 
ATOM      8  C   UNL     1     -19.781 -40.817  21.348  1.00  0.00     0.332 C 
ATOM      9  H   UNL     1     -18.395 -42.317  21.489  1.00  0.00     0.347 HD
ENDBRANCH   1   2
BRANCH   1  10
ATOM     10  C   UNL     1     -15.354 -43.634  25.398  1.00  0.00     0.066 C 
ATOM     11  C   UNL     1     -14.233 -44.687  25.180  1.00  0.00     0.048 C 
ATOM     12  C   UNL     1     -15.294 -43.357  26.895  1.00  0.00     0.166 C 
ATOM     13  C   UNL     1     -13.828 -45.103  26.557  1.00  0.00    -0.036 A 
ATOM     14  C   UNL     1     -14.412 -44.317  27.541  1.00  0.00     0.021 A 
ATOM     15  C   UNL     1     -12.943 -46.108  26.913  1.00  0.00     0.004 A 
ATOM     16  C   UNL     1     -14.157 -44.485  28.890  1.00  0.00     0.012 A 
ATOM     17  C   UNL     1     -12.670 -46.304  28.272  1.00  0.00     0.000 A 
ATOM     18  C   UNL     1     -13.271 -45.498  29.254  1.00  0.00     0.001 A 
ATOM     19  O   UNL     1     -15.911 -42.494  27.497  1.00  0.00    -0.294 OA
ENDBRANCH   1  10
TORSDOF 2
ENDMDL
MODEL 7
REMARK VINA RESULT:    -9.378      3.178      5.197
REMARK INTER + INTRA:         -10.740
REMARK INTER:                 -10.476
REMARK INTRA:                  -0.264
REMARK UNBOUND:                -0.265
REMARK SMILES C[N@H+]1CC[C@H](C[C@H]2Cc3ccccc3C2=O)CC1
REMARK SMILES IDX 6 1 5 2 2 3 3 4 18 5 4 6 17 7 1 8 7 10 8 11 15 12 9 13 14 14
REMARK SMILES IDX 10 15 13 16 11 17 12 18 16 19
REMARK H PARENT 2 9
ROOT
ATOM      1  C   UNL     1      -9.955 -45.897  30.409  1.00  0.00     0.016 C 
ENDROOT
BRANCH   1   2
ATOM      2  C   UNL     1      -9.902 -44.591  31.238  1.00  0.00     0.001 C 
ATOM      3  N   UNL     1      -9.955 -42.946  33.652  1.00  0.00    -0.337 N 
ATOM      4  C   UNL     1      -8.657 -43.160  32.908  1.00  0.00     0.262 C 
ATOM      5  C   UNL     1     -11.153 -42.979  32.736  1.00  0.00     0.262 C 
ATOM      6  C   UNL     1      -8.709 -44.503  32.196  1.00  0.00     0.065 C 
ATOM      7  C   UNL     1     -11.205 -44.318  32.005  1.00  0.00     0.065 C 
ATOM      8  C   UNL     1      -9.917 -41.692  34.479  1.00  0.00     0.332 C 
ATOM      9  H   UNL     1     -10.050 -43.728  34.315  1.00  0.00     0.347 HD
ENDBRANCH   1   2
BRANCH   1  10
ATOM     10  C   UNL     1     -10.426 -45.795  28.951  1.00  0.00     0.066 C 
ATOM     11  C   UNL     1     -11.897 -46.268  28.784  1.00  0.00     0.048 C 
ATOM     12  C   UNL     1     -10.453 -44.364  28.428  1.00  0.00     0.166 C 
ATOM     13  C   UNL     1     -12.549 -45.202  27.966  1.00  0.00    -0.036 A 
ATOM     14  C   UNL     1     -11.732 -44.094  27.789  1.00  0.00     0.021 A 
ATOM     15  C   UNL     1     -13.832 -45.203  27.440  1.00  0.00     0.004 A 
ATOM     16  C   UNL     1     -12.133 -42.964  27.100  1.00  0.00     0.012 A 
ATOM     17  C   UNL     1     -14.263 -44.074  26.734  1.00  0.00     0.000 A 
ATOM     18  C   UNL     1     -13.420 -42.962  26.566  1.00  0.00     0.001 A 
ATOM     19  O   UNL     1      -9.543 -43.554  28.487  1.00  0.00    -0.294 OA
ENDBRANCH   1  10
TORSDOF 2
ENDMDL
MODEL 8
REMARK VINA RESULT:    -9.047      2.477      7.499
REMARK INTER + INTRA:         -10.370
REMARK INTER:                 -10.119
REMARK INTRA:                  -0.251
REMARK UNBOUND:                -0.265
REMARK SMILES C[N@H+]1CC[C@H](C[C@H]2Cc3ccccc3C2=O)CC1
REMARK SMILES IDX 6 1 5 2 2 3 3 4 18 5 4 6 17 7 1 8 7 10 8 11 15 12 9 13 14 14
REMARK SMILES IDX 10 15 13 16 11 17 12 18 16 19
REMARK H PARENT 2 9
ROOT
ATOM      1  C   UNL     1     -12.966 -45.335  27.379  1.00  0.00     0.016 C 
ENDROOT
BRANCH   1   2
ATOM      2  C   UNL     1     -13.792 -44.309  26.566  1.00  0.00     0.001 C 
ATOM      3  N   UNL     1     -16.131 -43.263  25.162  1.00  0.00    -0.337 N 
ATOM      4  C   UNL     1     -15.725 -42.684  26.498  1.00  0.00     0.262 C 
ATOM      5  C   UNL     1     -14.950 -43.777  24.378  1.00  0.00     0.262 C 
ATOM      6  C   UNL     1     -15.013 -43.756  27.308  1.00  0.00     0.065 C 
ATOM      7  C   UNL     1     -14.219 -44.844  25.190  1.00  0.00     0.065 C 
ATOM      8  C   UNL     1     -16.951 -42.289  24.363  1.00  0.00     0.332 C 
ATOM      9  H   UNL     1     -16.745 -44.066  25.360  1.00  0.00     0.347 HD
ENDBRANCH   1   2
BRANCH   1  10
ATOM     10  C   UNL     1     -12.614 -44.975  28.830  1.00  0.00     0.066 C 
ATOM     11  C   UNL     1     -12.030 -46.190  29.601  1.00  0.00     0.048 C 
ATOM     12  C   UNL     1     -11.515 -43.925  28.937  1.00  0.00     0.166 C 
ATOM     13  C   UNL     1     -10.811 -45.658  30.283  1.00  0.00    -0.036 A 
ATOM     14  C   UNL     1     -10.497 -44.369  29.877  1.00  0.00     0.021 A 
ATOM     15  C   UNL     1      -9.995 -46.313  31.192  1.00  0.00     0.004 A 
ATOM     16  C   UNL     1      -9.389 -43.682  30.340  1.00  0.00     0.012 A 
ATOM     17  C   UNL     1      -8.870 -45.640  31.681  1.00  0.00     0.000 A 
ATOM     18  C   UNL     1      -8.568 -44.334  31.258  1.00  0.00     0.001 A 
ATOM     19  O   UNL     1     -11.483 -42.848  28.365  1.00  0.00    -0.294 OA
ENDBRANCH   1  10
TORSDOF 2
ENDMDL
MODEL 9
REMARK VINA RESULT:    -9.023      0.988      2.067
REMARK INTER + INTRA:         -10.343
REMARK INTER:                 -10.315
REMARK INTRA:                  -0.027
REMARK UNBOUND:                -0.265
REMARK SMILES C[N@H+]1CC[C@H](C[C@H]2Cc3ccccc3C2=O)CC1
REMARK SMILES IDX 6 1 5 2 2 3 3 4 18 5 4 6 17 7 1 8 7 10 8 11 15 12 9 13 14 14
REMARK SMILES IDX 10 15 13 16 11 17 12 18 16 19
REMARK H PARENT 2 9
ROOT
ATOM      1  C   UNL     1     -13.843 -45.586  28.878  1.00  0.00     0.016 C 
ENDROOT
BRANCH   1   2
ATOM      2  C   UNL     1     -12.491 -46.053  29.468  1.00  0.00     0.001 C 
ATOM      3  N   UNL     1      -9.717 -45.790  30.348  1.00  0.00    -0.337 N 
ATOM      4  C   UNL     1     -10.826 -45.942  31.365  1.00  0.00     0.262 C 
ATOM      5  C   UNL     1     -10.032 -46.488  29.049  1.00  0.00     0.262 C 
ATOM      6  C   UNL     1     -12.111 -45.372  30.786  1.00  0.00     0.065 C 
ATOM      7  C   UNL     1     -11.330 -45.932  28.468  1.00  0.00     0.065 C 
ATOM      8  C   UNL     1      -8.391 -46.221  30.908  1.00  0.00     0.332 C 
ATOM      9  H   UNL     1      -9.634 -44.783  30.148  1.00  0.00     0.347 HD
ENDBRANCH   1   2
BRANCH   1  10
ATOM     10  C   UNL     1     -13.825 -44.373  27.934  1.00  0.00     0.066 C 
ATOM     11  C   UNL     1     -13.573 -44.793  26.460  1.00  0.00     0.048 C 
ATOM     12  C   UNL     1     -15.162 -43.643  27.872  1.00  0.00     0.166 C 
ATOM     13  C   UNL     1     -14.612 -44.061  25.673  1.00  0.00    -0.036 A 
ATOM     14  C   UNL     1     -15.543 -43.429  26.484  1.00  0.00     0.021 A 
ATOM     15  C   UNL     1     -14.744 -44.001  24.295  1.00  0.00     0.004 A 
ATOM     16  C   UNL     1     -16.623 -42.723  25.984  1.00  0.00     0.012 A 
ATOM     17  C   UNL     1     -15.824 -43.289  23.760  1.00  0.00     0.000 A 
ATOM     18  C   UNL     1     -16.758 -42.655  24.598  1.00  0.00     0.001 A 
ATOM     19  O   UNL     1     -15.817 -43.250  28.822  1.00  0.00    -0.294 OA
ENDBRANCH   1  10
TORSDOF 2
ENDMDL
