MODEL 1
REMARK VINA RESULT:   -10.325      0.000      0.000
REMARK INTER + INTRA:         -17.084
REMARK INTER:                 -16.059
REMARK INTRA:                  -1.025
REMARK UNBOUND:                -1.025
REMARK SMILES N#Cc1cc(C#N)c(NCCC[C@H]2CC[N@H+](Cc3ccccc3)CC2)nc1N
REMARK SMILES IDX 11 1 12 2 13 3 15 4 16 5 14 6 24 7 25 8 17 10 18 11 19 12
REMARK SMILES IDX 23 13 20 14 22 15 21 16 10 17 9 18 8 20 5 21 26 22 4 23
REMARK SMILES IDX 27 24 3 25 6 26 7 27 28 28 2 31 1 32
REMARK H PARENT 16 9 9 19 28 29 28 30
ROOT
ATOM      1  C   UNL     1      -9.949 -46.017  29.652  1.00  0.00     0.021 C 
ENDROOT
BRANCH   1   2
ATOM      2  C   UNL     1     -11.198 -46.528  28.925  1.00  0.00     0.006 C 
BRANCH   2   3
ATOM      3  C   UNL     1     -11.743 -45.624  27.801  1.00  0.00     0.000 C 
ATOM      4  C   UNL     1     -13.675 -45.327  26.177  1.00  0.00     0.262 C 
ATOM      5  N   UNL     1     -13.890 -43.946  26.735  1.00  0.00    -0.331 N 
ATOM      6  C   UNL     1     -13.058 -46.209  27.257  1.00  0.00     0.065 C 
ATOM      7  C   UNL     1     -12.594 -43.314  27.172  1.00  0.00     0.262 C 
ATOM      8  C   UNL     1     -11.958 -44.173  28.260  1.00  0.00     0.065 C 
ATOM      9  H   UNL     1     -14.462 -44.054  27.582  1.00  0.00     0.348 HD
BRANCH   5  10
ATOM     10  C   UNL     1     -14.722 -43.052  25.834  1.00  0.00     0.299 C 
BRANCH  10  11
ATOM     11  C   UNL     1     -16.123 -42.767  26.301  1.00  0.00     0.006 A 
ATOM     12  C   UNL     1     -17.163 -42.585  25.375  1.00  0.00     0.009 A 
ATOM     13  C   UNL     1     -16.416 -42.677  27.671  1.00  0.00     0.009 A 
ATOM     14  C   UNL     1     -18.458 -42.302  25.811  1.00  0.00     0.001 A 
ATOM     15  C   UNL     1     -17.712 -42.393  28.102  1.00  0.00     0.001 A 
ATOM     16  C   UNL     1     -18.731 -42.203  27.173  1.00  0.00     0.000 A 
ENDBRANCH  10  11
ENDBRANCH   5  10
ENDBRANCH   2   3
ENDBRANCH   1   2
BRANCH   1  17
ATOM     17  C   UNL     1     -10.024 -46.149  31.175  1.00  0.00     0.114 C 
BRANCH  17  18
ATOM     18  N   UNL     1      -9.757 -44.844  31.773  1.00  0.00    -0.369 N 
ATOM     19  H   UNL     1      -9.151 -44.275  31.183  1.00  0.00     0.162 HD
BRANCH  18  20
ATOM     20  C   UNL     1     -10.897 -44.106  32.145  1.00  0.00     0.146 A 
ATOM     21  C   UNL     1     -10.793 -43.075  33.087  1.00  0.00     0.096 A 
ATOM     22  N   UNL     1     -12.099 -44.455  31.623  1.00  0.00    -0.212 NA
ATOM     23  C   UNL     1     -11.944 -42.374  33.460  1.00  0.00     0.046 A 
ATOM     24  C   UNL     1     -13.210 -43.777  31.989  1.00  0.00     0.143 A 
ATOM     25  C   UNL     1     -13.172 -42.722  32.896  1.00  0.00     0.096 A 
BRANCH  21  26
ATOM     26  C   UNL     1      -9.536 -42.724  33.674  1.00  0.00     0.103 C 
ATOM     27  N   UNL     1      -8.525 -42.427  34.160  1.00  0.00    -0.192 NA
ENDBRANCH  21  26
BRANCH  24  28
ATOM     28  N   UNL     1     -14.373 -44.169  31.339  1.00  0.00    -0.383 N 
ATOM     29  H   UNL     1     -14.943 -43.402  30.995  1.00  0.00     0.158 HD
ATOM     30  H   UNL     1     -14.893 -44.804  31.937  1.00  0.00     0.158 HD
ENDBRANCH  24  28
BRANCH  25  31
ATOM     31  C   UNL     1     -14.354 -42.010  33.269  1.00  0.00     0.103 C 
ATOM     32  N   UNL     1     -15.296 -41.418  33.599  1.00  0.00    -0.192 NA
ENDBRANCH  25  31
ENDBRANCH  18  20
ENDBRANCH  17  18
ENDBRANCH   1  17
TORSDOF 10
ENDMDL
MODEL 2
REMARK VINA RESULT:   -10.221      3.326      9.679
REMARK INTER + INTRA:         -16.923
REMARK INTER:                 -16.263
REMARK INTRA:                  -0.659
REMARK UNBOUND:                -1.025
REMARK SMILES N#Cc1cc(C#N)c(NCCC[C@H]2CC[N@H+](Cc3ccccc3)CC2)nc1N
REMARK SMILES IDX 11 1 12 2 13 3 15 4 16 5 14 6 24 7 25 8 17 10 18 11 19 12
REMARK SMILES IDX 23 13 20 14 22 15 21 16 10 17 9 18 8 20 5 21 26 22 4 23
REMARK SMILES IDX 27 24 3 25 6 26 7 27 28 28 2 31 1 32
REMARK H PARENT 16 9 9 19 28 29 28 30
ROOT
ATOM      1  C   UNL     1     -14.506 -43.728  26.627  1.00  0.00     0.021 C 
ENDROOT
BRANCH   1   2
ATOM      2  C   UNL     1     -13.805 -45.077  26.432  1.00  0.00     0.006 C 
BRANCH   2   3
ATOM      3  C   UNL     1     -13.305 -45.770  27.715  1.00  0.00     0.000 C 
ATOM      4  C   UNL     1     -11.211 -46.514  28.947  1.00  0.00     0.262 C 
ATOM      5  N   UNL     1     -11.662 -45.707  30.136  1.00  0.00    -0.331 N 
ATOM      6  C   UNL     1     -11.770 -45.885  27.677  1.00  0.00     0.065 C 
ATOM      7  C   UNL     1     -13.164 -45.677  30.250  1.00  0.00     0.262 C 
ATOM      8  C   UNL     1     -13.751 -45.043  28.993  1.00  0.00     0.065 C 
ATOM      9  H   UNL     1     -11.362 -44.739  29.966  1.00  0.00     0.348 HD
BRANCH   5  10
ATOM     10  C   UNL     1     -10.967 -46.094  31.428  1.00  0.00     0.299 C 
BRANCH  10  11
ATOM     11  C   UNL     1      -9.680 -45.373  31.724  1.00  0.00     0.006 A 
ATOM     12  C   UNL     1      -8.442 -45.987  31.473  1.00  0.00     0.009 A 
ATOM     13  C   UNL     1      -9.693 -44.075  32.259  1.00  0.00     0.009 A 
ATOM     14  C   UNL     1      -7.250 -45.324  31.766  1.00  0.00     0.001 A 
ATOM     15  C   UNL     1      -8.498 -43.416  32.551  1.00  0.00     0.001 A 
ATOM     16  C   UNL     1      -7.278 -44.041  32.307  1.00  0.00     0.000 A 
ENDBRANCH  10  11
ENDBRANCH   5  10
ENDBRANCH   2   3
ENDBRANCH   1   2
BRANCH   1  17
ATOM     17  C   UNL     1     -15.053 -43.123  25.332  1.00  0.00     0.114 C 
BRANCH  17  18
ATOM     18  N   UNL     1     -16.495 -42.949  25.466  1.00  0.00    -0.369 N 
ATOM     19  H   UNL     1     -16.740 -42.485  26.342  1.00  0.00     0.162 HD
BRANCH  18  20
ATOM     20  C   UNL     1     -17.129 -42.302  24.388  1.00  0.00     0.146 A 
ATOM     21  C   UNL     1     -18.527 -42.248  24.321  1.00  0.00     0.096 A 
ATOM     22  N   UNL     1     -16.363 -41.793  23.392  1.00  0.00    -0.212 NA
ATOM     23  C   UNL     1     -19.132 -41.624  23.227  1.00  0.00     0.046 A 
ATOM     24  C   UNL     1     -16.953 -41.194  22.334  1.00  0.00     0.143 A 
ATOM     25  C   UNL     1     -18.336 -41.078  22.220  1.00  0.00     0.096 A 
BRANCH  21  26
ATOM     26  C   UNL     1     -19.346 -42.815  25.348  1.00  0.00     0.103 C 
ATOM     27  N   UNL     1     -20.025 -43.268  26.173  1.00  0.00    -0.192 NA
ENDBRANCH  21  26
BRANCH  24  28
ATOM     28  N   UNL     1     -16.073 -40.644  21.409  1.00  0.00    -0.383 N 
ATOM     29  H   UNL     1     -16.479 -40.465  20.496  1.00  0.00     0.158 HD
ATOM     30  H   UNL     1     -15.238 -41.218  21.360  1.00  0.00     0.158 HD
ENDBRANCH  24  28
BRANCH  25  31
ATOM     31  C   UNL     1     -18.945 -40.435  21.098  1.00  0.00     0.103 C 
ATOM     32  N   UNL     1     -19.410 -39.918  20.169  1.00  0.00    -0.192 NA
ENDBRANCH  25  31
ENDBRANCH  18  20
ENDBRANCH  17  18
ENDBRANCH   1  17
TORSDOF 10
ENDMDL
MODEL 3
REMARK VINA RESULT:   -10.025      2.914      8.854
REMARK INTER + INTRA:         -16.618
REMARK INTER:                 -15.684
REMARK INTRA:                  -0.934
REMARK UNBOUND:                -1.025
REMARK SMILES N#Cc1cc(C#N)c(NCCC[C@H]2CC[N@H+](Cc3ccccc3)CC2)nc1N
REMARK SMILES IDX 11 1 12 2 13 3 15 4 16 5 14 6 24 7 25 8 17 10 18 11 19 12
REMARK SMILES IDX 23 13 20 14 22 15 21 16 10 17 9 18 8 20 5 21 26 22 4 23
REMARK SMILES IDX 27 24 3 25 6 26 7 27 28 28 2 31 1 32
REMARK H PARENT 16 9 9 19 28 29 28 30
ROOT
ATOM      1  C   UNL     1     -14.192 -44.800  25.488  1.00  0.00     0.021 C 
ENDROOT
BRANCH   1   2
ATOM      2  C   UNL     1     -14.231 -44.353  26.953  1.00  0.00     0.006 C 
BRANCH   2   3
ATOM      3  C   UNL     1     -13.544 -45.292  27.964  1.00  0.00     0.000 C 
ATOM      4  C   UNL     1     -11.280 -46.145  28.744  1.00  0.00     0.262 C 
ATOM      5  N   UNL     1     -11.621 -45.682  30.136  1.00  0.00    -0.331 N 
ATOM      6  C   UNL     1     -12.022 -45.276  27.735  1.00  0.00     0.065 C 
ATOM      7  C   UNL     1     -13.097 -45.796  30.414  1.00  0.00     0.262 C 
ATOM      8  C   UNL     1     -13.864 -44.928  29.423  1.00  0.00     0.065 C 
ATOM      9  H   UNL     1     -11.392 -44.681  30.178  1.00  0.00     0.348 HD
BRANCH   5  10
ATOM     10  C   UNL     1     -10.754 -46.311  31.211  1.00  0.00     0.299 C 
BRANCH  10  11
ATOM     11  C   UNL     1      -9.538 -45.525  31.620  1.00  0.00     0.006 A 
ATOM     12  C   UNL     1      -8.251 -46.059  31.450  1.00  0.00     0.009 A 
ATOM     13  C   UNL     1      -9.669 -44.244  32.180  1.00  0.00     0.009 A 
ATOM     14  C   UNL     1      -7.125 -45.335  31.847  1.00  0.00     0.001 A 
ATOM     15  C   UNL     1      -8.541 -43.524  32.576  1.00  0.00     0.001 A 
ATOM     16  C   UNL     1      -7.271 -44.070  32.412  1.00  0.00     0.000 A 
ENDBRANCH  10  11
ENDBRANCH   5  10
ENDBRANCH   2   3
ENDBRANCH   1   2
BRANCH   1  17
ATOM     17  C   UNL     1     -14.904 -43.841  24.530  1.00  0.00     0.114 C 
BRANCH  17  18
ATOM     18  N   UNL     1     -15.506 -42.762  25.307  1.00  0.00    -0.369 N 
ATOM     19  H   UNL     1     -15.010 -41.881  25.176  1.00  0.00     0.162 HD
BRANCH  18  20
ATOM     20  C   UNL     1     -16.887 -42.571  25.106  1.00  0.00     0.146 A 
ATOM     21  C   UNL     1     -17.744 -42.415  26.203  1.00  0.00     0.096 A 
ATOM     22  N   UNL     1     -17.372 -42.606  23.841  1.00  0.00    -0.212 NA
ATOM     23  C   UNL     1     -19.114 -42.254  25.978  1.00  0.00     0.046 A 
ATOM     24  C   UNL     1     -18.699 -42.454  23.629  1.00  0.00     0.143 A 
ATOM     25  C   UNL     1     -19.602 -42.263  24.671  1.00  0.00     0.096 A 
BRANCH  21  26
ATOM     26  C   UNL     1     -17.247 -42.415  27.544  1.00  0.00     0.103 C 
ATOM     27  N   UNL     1     -16.828 -42.411  28.626  1.00  0.00    -0.192 NA
ENDBRANCH  21  26
BRANCH  24  28
ATOM     28  N   UNL     1     -19.077 -42.433  22.292  1.00  0.00    -0.383 N 
ATOM     29  H   UNL     1     -19.901 -41.873  22.096  1.00  0.00     0.158 HD
ATOM     30  H   UNL     1     -19.163 -43.386  21.953  1.00  0.00     0.158 HD
ENDBRANCH  24  28
BRANCH  25  31
ATOM     31  C   UNL     1     -21.001 -42.096  24.431  1.00  0.00     0.103 C 
ATOM     32  N   UNL     1     -22.138 -41.938  24.264  1.00  0.00    -0.192 NA
ENDBRANCH  25  31
ENDBRANCH  18  20
ENDBRANCH  17  18
ENDBRANCH   1  17
TORSDOF 10
ENDMDL
MODEL 4
REMARK VINA RESULT:    -9.990      2.387      8.392
REMARK INTER + INTRA:         -16.563
REMARK INTER:                 -15.651
REMARK INTRA:                  -0.911
REMARK UNBOUND:                -1.025
REMARK SMILES N#Cc1cc(C#N)c(NCCC[C@H]2CC[N@H+](Cc3ccccc3)CC2)nc1N
REMARK SMILES IDX 11 1 12 2 13 3 15 4 16 5 14 6 24 7 25 8 17 10 18 11 19 12
REMARK SMILES IDX 23 13 20 14 22 15 21 16 10 17 9 18 8 20 5 21 26 22 4 23
REMARK SMILES IDX 27 24 3 25 6 26 7 27 28 28 2 31 1 32
REMARK H PARENT 16 9 9 19 28 29 28 30
ROOT
ATOM      1  C   UNL     1     -13.799 -44.755  27.591  1.00  0.00     0.021 C 
ENDROOT
BRANCH   1   2
ATOM      2  C   UNL     1     -12.852 -45.960  27.615  1.00  0.00     0.006 C 
BRANCH   2   3
ATOM      3  C   UNL     1     -11.542 -45.773  28.406  1.00  0.00     0.000 C 
ATOM      4  C   UNL     1      -9.821 -44.047  29.125  1.00  0.00     0.262 C 
ATOM      5  N   UNL     1     -10.065 -44.448  30.556  1.00  0.00    -0.331 N 
ATOM      6  C   UNL     1     -11.086 -44.307  28.315  1.00  0.00     0.065 C 
ATOM      7  C   UNL     1     -10.406 -45.911  30.674  1.00  0.00     0.262 C 
ATOM      8  C   UNL     1     -11.674 -46.197  29.877  1.00  0.00     0.065 C 
ATOM      9  H   UNL     1     -10.893 -43.928  30.872  1.00  0.00     0.348 HD
BRANCH   5  10
ATOM     10  C   UNL     1      -8.963 -44.008  31.503  1.00  0.00     0.299 C 
BRANCH  10  11
ATOM     11  C   UNL     1      -9.407 -43.237  32.716  1.00  0.00     0.006 A 
ATOM     12  C   UNL     1     -10.757 -42.892  32.890  1.00  0.00     0.009 A 
ATOM     13  C   UNL     1      -8.480 -42.849  33.696  1.00  0.00     0.009 A 
ATOM     14  C   UNL     1     -11.164 -42.161  34.007  1.00  0.00     0.001 A 
ATOM     15  C   UNL     1      -8.891 -42.117  34.812  1.00  0.00     0.001 A 
ATOM     16  C   UNL     1     -10.231 -41.772  34.965  1.00  0.00     0.000 A 
ENDBRANCH  10  11
ENDBRANCH   5  10
ENDBRANCH   2   3
ENDBRANCH   1   2
BRANCH   1  17
ATOM     17  C   UNL     1     -14.268 -44.366  26.187  1.00  0.00     0.114 C 
BRANCH  17  18
ATOM     18  N   UNL     1     -14.777 -42.998  26.223  1.00  0.00    -0.369 N 
ATOM     19  H   UNL     1     -14.139 -42.345  25.768  1.00  0.00     0.162 HD
BRANCH  18  20
ATOM     20  C   UNL     1     -16.081 -42.826  25.720  1.00  0.00     0.146 A 
ATOM     21  C   UNL     1     -17.149 -42.586  26.595  1.00  0.00     0.096 A 
ATOM     22  N   UNL     1     -16.288 -42.958  24.387  1.00  0.00    -0.212 NA
ATOM     23  C   UNL     1     -18.437 -42.445  26.073  1.00  0.00     0.046 A 
ATOM     24  C   UNL     1     -17.537 -42.825  23.888  1.00  0.00     0.143 A 
ATOM     25  C   UNL     1     -18.637 -42.556  24.697  1.00  0.00     0.096 A 
BRANCH  21  26
ATOM     26  C   UNL     1     -16.947 -42.483  28.008  1.00  0.00     0.103 C 
ATOM     27  N   UNL     1     -16.777 -42.416  29.153  1.00  0.00    -0.192 NA
ENDBRANCH  21  26
BRANCH  24  28
ATOM     28  N   UNL     1     -17.623 -42.907  22.503  1.00  0.00    -0.383 N 
ATOM     29  H   UNL     1     -18.069 -43.751  22.158  1.00  0.00     0.158 HD
ATOM     30  H   UNL     1     -16.703 -42.759  22.101  1.00  0.00     0.158 HD
ENDBRANCH  24  28
BRANCH  25  31
ATOM     31  C   UNL     1     -19.951 -42.410  24.153  1.00  0.00     0.103 C 
ATOM     32  N   UNL     1     -21.008 -42.313  23.685  1.00  0.00    -0.192 NA
ENDBRANCH  25  31
ENDBRANCH  18  20
ENDBRANCH  17  18
ENDBRANCH   1  17
TORSDOF 10
ENDMDL
MODEL 5
REMARK VINA RESULT:    -9.873      1.678      3.901
REMARK INTER + INTRA:         -16.381
REMARK INTER:                 -16.174
REMARK INTRA:                  -0.207
REMARK UNBOUND:                -1.025
REMARK SMILES N#Cc1cc(C#N)c(NCCC[C@H]2CC[N@H+](Cc3ccccc3)CC2)nc1N
REMARK SMILES IDX 11 1 12 2 13 3 15 4 16 5 14 6 24 7 25 8 17 10 18 11 19 12
REMARK SMILES IDX 23 13 20 14 22 15 21 16 10 17 9 18 8 20 5 21 26 22 4 23
REMARK SMILES IDX 27 24 3 25 6 26 7 27 28 28 2 31 1 32
REMARK H PARENT 16 9 9 19 28 29 28 30
ROOT
ATOM      1  C   UNL     1     -13.376 -45.162  28.935  1.00  0.00     0.021 C 
ENDROOT
BRANCH   1   2
ATOM      2  C   UNL     1     -13.111 -45.287  27.431  1.00  0.00     0.006 C 
BRANCH   2   3
ATOM      3  C   UNL     1     -13.774 -44.219  26.537  1.00  0.00     0.000 C 
ATOM      4  C   UNL     1     -14.961 -43.868  24.318  1.00  0.00     0.262 C 
ATOM      5  N   UNL     1     -16.119 -43.265  25.069  1.00  0.00    -0.331 N 
ATOM      6  C   UNL     1     -14.247 -44.865  25.223  1.00  0.00     0.065 C 
ATOM      7  C   UNL     1     -15.660 -42.533  26.304  1.00  0.00     0.262 C 
ATOM      8  C   UNL     1     -14.947 -43.511  27.232  1.00  0.00     0.065 C 
ATOM      9  H   UNL     1     -16.701 -44.048  25.393  1.00  0.00     0.348 HD
BRANCH   5  10
ATOM     10  C   UNL     1     -17.047 -42.445  24.193  1.00  0.00     0.299 C 
BRANCH  10  11
ATOM     11  C   UNL     1     -18.362 -42.055  24.811  1.00  0.00     0.006 A 
ATOM     12  C   UNL     1     -18.548 -42.126  26.201  1.00  0.00     0.009 A 
ATOM     13  C   UNL     1     -19.427 -41.615  24.009  1.00  0.00     0.009 A 
ATOM     14  C   UNL     1     -19.775 -41.782  26.771  1.00  0.00     0.001 A 
ATOM     15  C   UNL     1     -20.653 -41.272  24.583  1.00  0.00     0.001 A 
ATOM     16  C   UNL     1     -20.827 -41.358  25.962  1.00  0.00     0.000 A 
ENDBRANCH  10  11
ENDBRANCH   5  10
ENDBRANCH   2   3
ENDBRANCH   1   2
BRANCH   1  17
ATOM     17  C   UNL     1     -12.584 -46.159  29.786  1.00  0.00     0.114 C 
BRANCH  17  18
ATOM     18  N   UNL     1     -12.565 -45.686  31.167  1.00  0.00    -0.369 N 
ATOM     19  H   UNL     1     -12.855 -46.415  31.819  1.00  0.00     0.162 HD
BRANCH  18  20
ATOM     20  C   UNL     1     -11.349 -45.116  31.593  1.00  0.00     0.146 A 
ATOM     21  C   UNL     1     -11.329 -43.829  32.144  1.00  0.00     0.096 A 
ATOM     22  N   UNL     1     -10.201 -45.812  31.402  1.00  0.00    -0.212 NA
ATOM     23  C   UNL     1     -10.107 -43.275  32.535  1.00  0.00     0.046 A 
ATOM     24  C   UNL     1      -9.021 -45.270  31.778  1.00  0.00     0.143 A 
ATOM     25  C   UNL     1      -8.933 -44.008  32.359  1.00  0.00     0.096 A 
BRANCH  21  26
ATOM     26  C   UNL     1     -12.530 -43.071  32.315  1.00  0.00     0.103 C 
ATOM     27  N   UNL     1     -13.497 -42.443  32.445  1.00  0.00    -0.192 NA
ENDBRANCH  21  26
BRANCH  24  28
ATOM     28  N   UNL     1      -7.918 -46.097  31.603  1.00  0.00    -0.383 N 
ATOM     29  H   UNL     1      -8.078 -47.070  31.845  1.00  0.00     0.158 HD
ATOM     30  H   UNL     1      -7.121 -45.700  32.091  1.00  0.00     0.158 HD
ENDBRANCH  24  28
BRANCH  25  31
ATOM     31  C   UNL     1      -7.678 -43.452  32.758  1.00  0.00     0.103 C 
ATOM     32  N   UNL     1      -6.643 -43.024  33.061  1.00  0.00    -0.192 NA
ENDBRANCH  25  31
ENDBRANCH  18  20
ENDBRANCH  17  18
ENDBRANCH   1  17
TORSDOF 10
ENDMDL
MODEL 6
REMARK VINA RESULT:    -9.517      3.393      9.532
REMARK INTER + INTRA:         -15.827
REMARK INTER:                 -15.238
REMARK INTRA:                  -0.589
REMARK UNBOUND:                -1.025
REMARK SMILES N#Cc1cc(C#N)c(NCCC[C@H]2CC[N@H+](Cc3ccccc3)CC2)nc1N
REMARK SMILES IDX 11 1 12 2 13 3 15 4 16 5 14 6 24 7 25 8 17 10 18 11 19 12
REMARK SMILES IDX 23 13 20 14 22 15 21 16 10 17 9 18 8 20 5 21 26 22 4 23
REMARK SMILES IDX 27 24 3 25 6 26 7 27 28 28 2 31 1 32
REMARK H PARENT 16 9 9 19 28 29 28 30
ROOT
ATOM      1  C   UNL     1     -14.398 -43.802  25.219  1.00  0.00     0.021 C 
ENDROOT
BRANCH   1   2
ATOM      2  C   UNL     1     -13.760 -43.278  26.510  1.00  0.00     0.006 C 
BRANCH   2   3
ATOM      3  C   UNL     1     -12.966 -44.309  27.337  1.00  0.00     0.000 C 
ATOM      4  C   UNL     1     -10.967 -44.579  28.883  1.00  0.00     0.262 C 
ATOM      5  N   UNL     1     -11.886 -45.177  29.915  1.00  0.00    -0.331 N 
ATOM      6  C   UNL     1     -11.762 -43.620  28.005  1.00  0.00     0.065 C 
ATOM      7  C   UNL     1     -13.011 -45.950  29.276  1.00  0.00     0.262 C 
ATOM      8  C   UNL     1     -13.830 -45.011  28.397  1.00  0.00     0.065 C 
ATOM      9  H   UNL     1     -12.320 -44.391  30.416  1.00  0.00     0.348 HD
BRANCH   5  10
ATOM     10  C   UNL     1     -11.158 -45.955  30.995  1.00  0.00     0.299 C 
BRANCH  10  11
ATOM     11  C   UNL     1      -9.859 -45.363  31.471  1.00  0.00     0.006 A 
ATOM     12  C   UNL     1      -9.840 -44.133  32.147  1.00  0.00     0.009 A 
ATOM     13  C   UNL     1      -8.644 -46.029  31.245  1.00  0.00     0.009 A 
ATOM     14  C   UNL     1      -8.632 -43.577  32.571  1.00  0.00     0.001 A 
ATOM     15  C   UNL     1      -7.439 -45.469  31.670  1.00  0.00     0.001 A 
ATOM     16  C   UNL     1      -7.433 -44.243  32.330  1.00  0.00     0.000 A 
ENDBRANCH  10  11
ENDBRANCH   5  10
ENDBRANCH   2   3
ENDBRANCH   1   2
BRANCH   1  17
ATOM     17  C   UNL     1     -15.372 -42.816  24.568  1.00  0.00     0.114 C 
BRANCH  17  18
ATOM     18  N   UNL     1     -16.712 -43.065  25.089  1.00  0.00    -0.369 N 
ATOM     19  H   UNL     1     -16.743 -42.985  26.105  1.00  0.00     0.162 HD
BRANCH  18  20
ATOM     20  C   UNL     1     -17.738 -42.290  24.515  1.00  0.00     0.146 A 
ATOM     21  C   UNL     1     -18.886 -41.978  25.255  1.00  0.00     0.096 A 
ATOM     22  N   UNL     1     -17.619 -41.909  23.219  1.00  0.00    -0.212 NA
ATOM     23  C   UNL     1     -19.901 -41.230  24.653  1.00  0.00     0.046 A 
ATOM     24  C   UNL     1     -18.607 -41.189  22.640  1.00  0.00     0.143 A 
ATOM     25  C   UNL     1     -19.759 -40.819  23.328  1.00  0.00     0.096 A 
BRANCH  21  26
ATOM     26  C   UNL     1     -19.038 -42.408  26.611  1.00  0.00     0.103 C 
ATOM     27  N   UNL     1     -19.179 -42.762  27.707  1.00  0.00    -0.192 NA
ENDBRANCH  21  26
BRANCH  24  28
ATOM     28  N   UNL     1     -18.349 -40.791  21.334  1.00  0.00    -0.383 N 
ATOM     29  H   UNL     1     -19.140 -40.873  20.704  1.00  0.00     0.158 HD
ATOM     30  H   UNL     1     -17.526 -41.277  20.992  1.00  0.00     0.158 HD
ENDBRANCH  24  28
BRANCH  25  31
ATOM     31  C   UNL     1     -20.791 -40.051  22.705  1.00  0.00     0.103 C 
ATOM     32  N   UNL     1     -21.605 -39.401  22.195  1.00  0.00    -0.192 NA
ENDBRANCH  25  31
ENDBRANCH  18  20
ENDBRANCH  17  18
ENDBRANCH   1  17
TORSDOF 10
ENDMDL
MODEL 7
REMARK VINA RESULT:    -9.514      1.567      2.821
REMARK INTER + INTRA:         -15.823
REMARK INTER:                 -15.480
REMARK INTRA:                  -0.343
REMARK UNBOUND:                -1.025
REMARK SMILES N#Cc1cc(C#N)c(NCCC[C@H]2CC[N@H+](Cc3ccccc3)CC2)nc1N
REMARK SMILES IDX 11 1 12 2 13 3 15 4 16 5 14 6 24 7 25 8 17 10 18 11 19 12
REMARK SMILES IDX 23 13 20 14 22 15 21 16 10 17 9 18 8 20 5 21 26 22 4 23
REMARK SMILES IDX 27 24 3 25 6 26 7 27 28 28 2 31 1 32
REMARK H PARENT 16 9 9 19 28 29 28 30
ROOT
ATOM      1  C   UNL     1     -12.961 -46.155  28.407  1.00  0.00     0.021 C 
ENDROOT
BRANCH   1   2
ATOM      2  C   UNL     1     -13.046 -46.104  26.878  1.00  0.00     0.006 C 
BRANCH   2   3
ATOM      3  C   UNL     1     -13.646 -44.817  26.277  1.00  0.00     0.000 C 
ATOM      4  C   UNL     1     -14.937 -43.904  24.288  1.00  0.00     0.262 C 
ATOM      5  N   UNL     1     -15.966 -43.363  25.245  1.00  0.00    -0.331 N 
ATOM      6  C   UNL     1     -14.277 -45.129  24.909  1.00  0.00     0.065 C 
ATOM      7  C   UNL     1     -15.345 -42.949  26.554  1.00  0.00     0.262 C 
ATOM      8  C   UNL     1     -14.683 -44.160  27.202  1.00  0.00     0.065 C 
ATOM      9  H   UNL     1     -16.607 -44.137  25.458  1.00  0.00     0.348 HD
BRANCH   5  10
ATOM     10  C   UNL     1     -16.856 -42.295  24.636  1.00  0.00     0.299 C 
BRANCH  10  11
ATOM     11  C   UNL     1     -18.185 -42.084  25.309  1.00  0.00     0.006 A 
ATOM     12  C   UNL     1     -19.312 -41.703  24.563  1.00  0.00     0.009 A 
ATOM     13  C   UNL     1     -18.321 -42.262  26.694  1.00  0.00     0.009 A 
ATOM     14  C   UNL     1     -20.539 -41.489  25.192  1.00  0.00     0.001 A 
ATOM     15  C   UNL     1     -19.551 -42.046  27.320  1.00  0.00     0.001 A 
ATOM     16  C   UNL     1     -20.657 -41.658  26.569  1.00  0.00     0.000 A 
ENDBRANCH  10  11
ENDBRANCH   5  10
ENDBRANCH   2   3
ENDBRANCH   1   2
BRANCH   1  17
ATOM     17  C   UNL     1     -11.544 -45.960  28.954  1.00  0.00     0.114 C 
BRANCH  17  18
ATOM     18  N   UNL     1     -11.544 -46.264  30.381  1.00  0.00    -0.369 N 
ATOM     19  H   UNL     1     -10.909 -47.030  30.604  1.00  0.00     0.162 HD
BRANCH  18  20
ATOM     20  C   UNL     1     -11.295 -45.170  31.232  1.00  0.00     0.146 A 
ATOM     21  C   UNL     1     -10.023 -44.987  31.790  1.00  0.00     0.096 A 
ATOM     22  N   UNL     1     -12.321 -44.342  31.547  1.00  0.00    -0.212 NA
ATOM     23  C   UNL     1      -9.808 -43.908  32.653  1.00  0.00     0.046 A 
ATOM     24  C   UNL     1     -12.109 -43.303  32.386  1.00  0.00     0.143 A 
ATOM     25  C   UNL     1     -10.863 -43.045  32.950  1.00  0.00     0.096 A 
BRANCH  21  26
ATOM     26  C   UNL     1      -8.943 -45.876  31.494  1.00  0.00     0.103 C 
ATOM     27  N   UNL     1      -8.071 -46.598  31.237  1.00  0.00    -0.192 NA
ENDBRANCH  21  26
BRANCH  24  28
ATOM     28  N   UNL     1     -13.209 -42.478  32.582  1.00  0.00    -0.383 N 
ATOM     29  H   UNL     1     -13.222 -41.998  33.476  1.00  0.00     0.158 HD
ATOM     30  H   UNL     1     -14.059 -43.007  32.411  1.00  0.00     0.158 HD
ENDBRANCH  24  28
BRANCH  25  31
ATOM     31  C   UNL     1     -10.652 -41.938  33.830  1.00  0.00     0.103 C 
ATOM     32  N   UNL     1     -10.515 -41.042  34.554  1.00  0.00    -0.192 NA
ENDBRANCH  25  31
ENDBRANCH  18  20
ENDBRANCH  17  18
ENDBRANCH   1  17
TORSDOF 10
ENDMDL
MODEL 8
REMARK VINA RESULT:    -9.329      3.166      9.163
REMARK INTER + INTRA:         -15.534
REMARK INTER:                 -14.939
REMARK INTRA:                  -0.595
REMARK UNBOUND:                -1.025
REMARK SMILES N#Cc1cc(C#N)c(NCCC[C@H]2CC[N@H+](Cc3ccccc3)CC2)nc1N
REMARK SMILES IDX 11 1 12 2 13 3 15 4 16 5 14 6 24 7 25 8 17 10 18 11 19 12
REMARK SMILES IDX 23 13 20 14 22 15 21 16 10 17 9 18 8 20 5 21 26 22 4 23
REMARK SMILES IDX 27 24 3 25 6 26 7 27 28 28 2 31 1 32
REMARK H PARENT 16 9 9 19 28 29 28 30
ROOT
ATOM      1  C   UNL     1     -14.720 -43.493  25.274  1.00  0.00     0.021 C 
ENDROOT
BRANCH   1   2
ATOM      2  C   UNL     1     -13.764 -43.020  26.373  1.00  0.00     0.006 C 
BRANCH   2   3
ATOM      3  C   UNL     1     -13.121 -44.128  27.232  1.00  0.00     0.000 C 
ATOM      4  C   UNL     1     -11.175 -44.633  28.787  1.00  0.00     0.262 C 
ATOM      5  N   UNL     1     -12.166 -45.063  29.836  1.00  0.00    -0.331 N 
ATOM      6  C   UNL     1     -11.829 -43.598  27.879  1.00  0.00     0.065 C 
ATOM      7  C   UNL     1     -13.392 -45.686  29.220  1.00  0.00     0.262 C 
ATOM      8  C   UNL     1     -14.072 -44.667  28.312  1.00  0.00     0.065 C 
ATOM      9  H   UNL     1     -12.481 -44.208  30.312  1.00  0.00     0.348 HD
BRANCH   5  10
ATOM     10  C   UNL     1     -11.552 -45.904  30.939  1.00  0.00     0.299 C 
BRANCH  10  11
ATOM     11  C   UNL     1     -10.122 -45.590  31.287  1.00  0.00     0.006 A 
ATOM     12  C   UNL     1      -9.097 -46.503  30.992  1.00  0.00     0.009 A 
ATOM     13  C   UNL     1      -9.788 -44.380  31.915  1.00  0.00     0.009 A 
ATOM     14  C   UNL     1      -7.774 -46.218  31.333  1.00  0.00     0.001 A 
ATOM     15  C   UNL     1      -8.463 -44.099  32.254  1.00  0.00     0.001 A 
ATOM     16  C   UNL     1      -7.459 -45.018  31.966  1.00  0.00     0.000 A 
ENDBRANCH  10  11
ENDBRANCH   5  10
ENDBRANCH   2   3
ENDBRANCH   1   2
BRANCH   1  17
ATOM     17  C   UNL     1     -15.505 -42.359  24.609  1.00  0.00     0.114 C 
BRANCH  17  18
ATOM     18  N   UNL     1     -16.762 -42.895  24.096  1.00  0.00    -0.369 N 
ATOM     19  H   UNL     1     -16.751 -43.915  24.060  1.00  0.00     0.162 HD
BRANCH  18  20
ATOM     20  C   UNL     1     -17.924 -42.450  24.756  1.00  0.00     0.146 A 
ATOM     21  C   UNL     1     -18.847 -41.636  24.087  1.00  0.00     0.096 A 
ATOM     22  N   UNL     1     -18.094 -42.771  26.062  1.00  0.00    -0.212 NA
ATOM     23  C   UNL     1     -19.978 -41.185  24.773  1.00  0.00     0.046 A 
ATOM     24  C   UNL     1     -19.188 -42.328  26.722  1.00  0.00     0.143 A 
ATOM     25  C   UNL     1     -20.160 -41.543  26.109  1.00  0.00     0.096 A 
BRANCH  21  26
ATOM     26  C   UNL     1     -18.657 -41.259  22.720  1.00  0.00     0.103 C 
ATOM     27  N   UNL     1     -18.520 -40.949  21.611  1.00  0.00    -0.192 NA
ENDBRANCH  21  26
BRANCH  24  28
ATOM     28  N   UNL     1     -19.299 -42.777  28.033  1.00  0.00    -0.383 N 
ATOM     29  H   UNL     1     -20.216 -42.644  28.447  1.00  0.00     0.158 HD
ATOM     30  H   UNL     1     -18.556 -42.368  28.590  1.00  0.00     0.158 HD
ENDBRANCH  24  28
BRANCH  25  31
ATOM     31  C   UNL     1     -21.315 -41.089  26.818  1.00  0.00     0.103 C 
ATOM     32  N   UNL     1     -22.273 -40.732  27.366  1.00  0.00    -0.192 NA
ENDBRANCH  25  31
ENDBRANCH  18  20
ENDBRANCH  17  18
ENDBRANCH   1  17
TORSDOF 10
ENDMDL
MODEL 9
REMARK VINA RESULT:    -8.574      4.429      8.146
REMARK INTER + INTRA:         -14.360
REMARK INTER:                 -13.491
REMARK INTRA:                  -0.868
REMARK UNBOUND:                -1.025
REMARK SMILES N#Cc1cc(C#N)c(NCCC[C@H]2CC[N@H+](Cc3ccccc3)CC2)nc1N
REMARK SMILES IDX 11 1 12 2 13 3 15 4 16 5 14 6 24 7 25 8 17 10 18 11 19 12
REMARK SMILES IDX 23 13 20 14 22 15 21 16 10 17 9 18 8 20 5 21 26 22 4 23
REMARK SMILES IDX 27 24 3 25 6 26 7 27 28 28 2 31 1 32
REMARK H PARENT 16 9 9 19 28 29 28 30
ROOT
ATOM      1  C   UNL     1     -18.765 -42.145  27.252  1.00  0.00     0.021 C 
ENDROOT
BRANCH   1   2
ATOM      2  C   UNL     1     -18.898 -42.700  25.830  1.00  0.00     0.006 C 
BRANCH   2   3
ATOM      3  C   UNL     1     -18.809 -41.666  24.690  1.00  0.00     0.000 C 
ATOM      4  C   UNL     1     -17.786 -41.234  22.404  1.00  0.00     0.262 C 
ATOM      5  N   UNL     1     -19.172 -40.994  21.865  1.00  0.00    -0.331 N 
ATOM      6  C   UNL     1     -17.872 -42.191  23.587  1.00  0.00     0.065 C 
ATOM      7  C   UNL     1     -20.073 -40.377  22.902  1.00  0.00     0.262 C 
ATOM      8  C   UNL     1     -20.183 -41.319  24.097  1.00  0.00     0.065 C 
ATOM      9  H   UNL     1     -19.567 -41.917  21.646  1.00  0.00     0.348 HD
BRANCH   5  10
ATOM     10  C   UNL     1     -19.185 -40.256  20.539  1.00  0.00     0.299 C 
BRANCH  10  11
ATOM     11  C   UNL     1     -20.525 -40.135  19.866  1.00  0.00     0.006 A 
ATOM     12  C   UNL     1     -21.014 -38.881  19.465  1.00  0.00     0.009 A 
ATOM     13  C   UNL     1     -21.312 -41.273  19.630  1.00  0.00     0.009 A 
ATOM     14  C   UNL     1     -22.266 -38.770  18.858  1.00  0.00     0.001 A 
ATOM     15  C   UNL     1     -22.563 -41.157  19.023  1.00  0.00     0.001 A 
ATOM     16  C   UNL     1     -23.040 -39.906  18.640  1.00  0.00     0.000 A 
ENDBRANCH  10  11
ENDBRANCH   5  10
ENDBRANCH   2   3
ENDBRANCH   1   2
BRANCH   1  17
ATOM     17  C   UNL     1     -17.464 -42.547  27.952  1.00  0.00     0.114 C 
BRANCH  17  18
ATOM     18  N   UNL     1     -16.436 -42.775  26.941  1.00  0.00    -0.369 N 
ATOM     19  H   UNL     1     -16.112 -41.900  26.529  1.00  0.00     0.162 HD
BRANCH  18  20
ATOM     20  C   UNL     1     -15.335 -43.545  27.362  1.00  0.00     0.146 A 
ATOM     21  C   UNL     1     -14.376 -43.970  26.434  1.00  0.00     0.096 A 
ATOM     22  N   UNL     1     -15.258 -43.915  28.664  1.00  0.00    -0.212 NA
ATOM     23  C   UNL     1     -13.307 -44.756  26.872  1.00  0.00     0.046 A 
ATOM     24  C   UNL     1     -14.224 -44.679  29.082  1.00  0.00     0.143 A 
ATOM     25  C   UNL     1     -13.221 -45.110  28.219  1.00  0.00     0.096 A 
BRANCH  21  26
ATOM     26  C   UNL     1     -14.468 -43.617  25.051  1.00  0.00     0.103 C 
ATOM     27  N   UNL     1     -14.560 -43.337  23.929  1.00  0.00    -0.192 NA
ENDBRANCH  21  26
BRANCH  24  28
ATOM     28  N   UNL     1     -14.205 -44.938  30.447  1.00  0.00    -0.383 N 
ATOM     29  H   UNL     1     -15.054 -44.676  30.938  1.00  0.00     0.158 HD
ATOM     30  H   UNL     1     -13.374 -44.522  30.856  1.00  0.00     0.158 HD
ENDBRANCH  24  28
BRANCH  25  31
ATOM     31  C   UNL     1     -12.129 -45.911  28.677  1.00  0.00     0.103 C 
ATOM     32  N   UNL     1     -11.265 -46.576  29.074  1.00  0.00    -0.192 NA
ENDBRANCH  25  31
ENDBRANCH  18  20
ENDBRANCH  17  18
ENDBRANCH   1  17
TORSDOF 10
ENDMDL
