MODEL 1
REMARK VINA RESULT:    -9.509      0.000      0.000
REMARK INTER + INTRA:         -14.247
REMARK INTER:                 -13.123
REMARK INTRA:                  -1.125
REMARK UNBOUND:                -1.125
REMARK SMILES COc1ccc(OC)c([C@H]2CC(c3cc(F)ccc3F)=NN2c2ccc(S(N)(=O)=O)cc2)c1
REMARK SMILES IDX 23 1 24 2 25 3 26 4 31 5 32 6 22 7 10 8 11 9 12 10 21 11
REMARK SMILES IDX 9 12 3 13 4 14 33 15 5 16 6 17 2 18 1 19 7 20 8 21 13 22
REMARK SMILES IDX 14 23 19 24 15 25 18 26 17 27 20 28 16 29 27 30 29 31 30 32
REMARK SMILES IDX 28 33
REMARK H PARENT 28 34 28 35
ROOT
ATOM      1  C   UNL     1     -20.115 -40.885  23.689  1.00  0.00     0.060 A 
ATOM      2  C   UNL     1     -19.468 -40.542  22.486  1.00  0.00     0.029 A 
ATOM      3  C   UNL     1     -20.123 -39.858  21.455  1.00  0.00     0.024 A 
ATOM      4  C   UNL     1     -21.454 -39.490  21.620  1.00  0.00     0.082 A 
ATOM      5  C   UNL     1     -22.133 -39.819  22.791  1.00  0.00     0.024 A 
ATOM      6  C   UNL     1     -21.460 -40.505  23.813  1.00  0.00     0.029 A 
ENDROOT
BRANCH   1   7
ATOM      7  N   UNL     1     -19.430 -41.576  24.688  1.00  0.00    -0.257 N 
ATOM      8  C   UNL     1     -19.878 -41.789  26.070  1.00  0.00     0.148 C 
ATOM      9  C   UNL     1     -18.602 -42.233  26.786  1.00  0.00     0.091 C 
ATOM     10  C   UNL     1     -17.675 -42.401  25.616  1.00  0.00     0.074 C 
ATOM     11  N   UNL     1     -18.144 -41.988  24.475  1.00  0.00    -0.176 NA
BRANCH   8  12
ATOM     12  C   UNL     1     -21.010 -42.798  26.196  1.00  0.00     0.023 A 
ATOM     13  C   UNL     1     -21.845 -45.049  25.676  1.00  0.00     0.119 A 
ATOM     14  C   UNL     1     -23.039 -44.762  26.331  1.00  0.00     0.050 A 
ATOM     15  C   UNL     1     -20.849 -44.068  25.606  1.00  0.00     0.056 A 
ATOM     16  C   UNL     1     -23.229 -43.507  26.911  1.00  0.00     0.050 A 
ATOM     17  C   UNL     1     -22.219 -42.541  26.857  1.00  0.00     0.124 A 
BRANCH  13  18
ATOM     18  O   UNL     1     -21.527 -46.228  25.059  1.00  0.00    -0.497 OA
ATOM     19  C   UNL     1     -22.431 -46.698  24.068  1.00  0.00     0.278 C 
ENDBRANCH  13  18
BRANCH  17  20
ATOM     20  O   UNL     1     -22.469 -41.301  27.381  1.00  0.00    -0.496 OA
ATOM     21  C   UNL     1     -23.875 -41.044  27.428  1.00  0.00     0.278 C 
ENDBRANCH  17  20
ENDBRANCH   8  12
BRANCH  10  22
ATOM     22  C   UNL     1     -16.320 -42.976  25.753  1.00  0.00     0.037 A 
ATOM     23  C   UNL     1     -15.876 -43.350  27.029  1.00  0.00     0.052 A 
ATOM     24  C   UNL     1     -15.470 -43.157  24.659  1.00  0.00     0.132 A 
ATOM     25  C   UNL     1     -14.602 -43.887  27.185  1.00  0.00     0.124 A 
ATOM     26  C   UNL     1     -14.194 -43.697  24.823  1.00  0.00     0.043 A 
ATOM     27  C   UNL     1     -13.757 -44.064  26.095  1.00  0.00     0.042 A 
ATOM     28  F   UNL     1     -15.854 -42.834  23.416  1.00  0.00    -0.206 F 
ATOM     29  F   UNL     1     -14.181 -44.241  28.405  1.00  0.00    -0.207 F 
ENDBRANCH  10  22
ENDBRANCH   1   7
BRANCH   4  30
ATOM     30  S   UNL     1     -22.302 -38.655  20.315  1.00  0.00     0.238 S 
ATOM     31  O   UNL     1     -21.351 -37.910  19.525  1.00  0.00    -0.207 OA
ATOM     32  O   UNL     1     -23.268 -39.550  19.721  1.00  0.00    -0.207 OA
BRANCH  30  33
ATOM     33  N   UNL     1     -23.198 -37.510  21.157  1.00  0.00    -0.225 NA
ATOM     34  H   UNL     1     -24.051 -37.936  21.518  1.00  0.00     0.137 HD
ATOM     35  H   UNL     1     -23.358 -36.694  20.567  1.00  0.00     0.137 HD
ENDBRANCH  30  33
ENDBRANCH   4  30
TORSDOF 7
ENDMDL
MODEL 2
REMARK VINA RESULT:    -9.155      3.808      7.406
REMARK INTER + INTRA:         -13.758
REMARK INTER:                 -12.182
REMARK INTRA:                  -1.576
REMARK UNBOUND:                -1.125
REMARK SMILES COc1ccc(OC)c([C@H]2CC(c3cc(F)ccc3F)=NN2c2ccc(S(N)(=O)=O)cc2)c1
REMARK SMILES IDX 23 1 24 2 25 3 26 4 31 5 32 6 22 7 10 8 11 9 12 10 21 11
REMARK SMILES IDX 9 12 3 13 4 14 33 15 5 16 6 17 2 18 1 19 7 20 8 21 13 22
REMARK SMILES IDX 14 23 19 24 15 25 18 26 17 27 20 28 16 29 27 30 29 31 30 32
REMARK SMILES IDX 28 33
REMARK H PARENT 28 34 28 35
ROOT
ATOM      1  C   UNL     1     -18.369 -42.366  24.388  1.00  0.00     0.060 A 
ATOM      2  C   UNL     1     -17.214 -42.780  23.697  1.00  0.00     0.029 A 
ATOM      3  C   UNL     1     -16.030 -43.121  24.358  1.00  0.00     0.024 A 
ATOM      4  C   UNL     1     -15.984 -43.063  25.748  1.00  0.00     0.082 A 
ATOM      5  C   UNL     1     -17.102 -42.650  26.469  1.00  0.00     0.024 A 
ATOM      6  C   UNL     1     -18.281 -42.312  25.788  1.00  0.00     0.029 A 
ENDROOT
BRANCH   1   7
ATOM      7  N   UNL     1     -19.528 -42.026  23.691  1.00  0.00    -0.257 N 
ATOM      8  C   UNL     1     -20.733 -42.851  23.540  1.00  0.00     0.148 C 
ATOM      9  C   UNL     1     -21.478 -42.174  22.390  1.00  0.00     0.091 C 
ATOM     10  C   UNL     1     -20.651 -40.930  22.222  1.00  0.00     0.074 C 
ATOM     11  N   UNL     1     -19.556 -40.897  22.921  1.00  0.00    -0.176 NA
BRANCH   8  12
ATOM     12  C   UNL     1     -21.567 -42.952  24.809  1.00  0.00     0.023 A 
ATOM     13  C   UNL     1     -23.115 -41.845  26.362  1.00  0.00     0.119 A 
ATOM     14  C   UNL     1     -23.143 -42.988  27.156  1.00  0.00     0.050 A 
ATOM     15  C   UNL     1     -22.325 -41.832  25.207  1.00  0.00     0.056 A 
ATOM     16  C   UNL     1     -22.390 -44.105  26.792  1.00  0.00     0.050 A 
ATOM     17  C   UNL     1     -21.622 -44.091  25.622  1.00  0.00     0.124 A 
BRANCH  13  18
ATOM     18  O   UNL     1     -23.793 -40.680  26.601  1.00  0.00    -0.497 OA
ATOM     19  C   UNL     1     -23.249 -39.812  27.587  1.00  0.00     0.278 C 
ENDBRANCH  13  18
BRANCH  17  20
ATOM     20  O   UNL     1     -20.848 -45.183  25.333  1.00  0.00    -0.496 OA
ATOM     21  C   UNL     1     -21.659 -46.281  24.906  1.00  0.00     0.278 C 
ENDBRANCH  17  20
ENDBRANCH   8  12
BRANCH  10  22
ATOM     22  C   UNL     1     -21.045 -39.833  21.313  1.00  0.00     0.037 A 
ATOM     23  C   UNL     1     -22.252 -39.163  21.552  1.00  0.00     0.052 A 
ATOM     24  C   UNL     1     -20.257 -39.445  20.226  1.00  0.00     0.132 A 
ATOM     25  C   UNL     1     -22.647 -38.131  20.705  1.00  0.00     0.124 A 
ATOM     26  C   UNL     1     -20.659 -38.409  19.382  1.00  0.00     0.043 A 
ATOM     27  C   UNL     1     -21.863 -37.748  19.623  1.00  0.00     0.042 A 
ATOM     28  F   UNL     1     -19.085 -40.041  19.965  1.00  0.00    -0.206 F 
ATOM     29  F   UNL     1     -23.801 -37.496  20.936  1.00  0.00    -0.207 F 
ENDBRANCH  10  22
ENDBRANCH   1   7
BRANCH   4  30
ATOM     30  S   UNL     1     -14.486 -43.460  26.595  1.00  0.00     0.238 S 
ATOM     31  O   UNL     1     -14.009 -44.747  26.148  1.00  0.00    -0.207 OA
ATOM     32  O   UNL     1     -13.636 -42.293  26.636  1.00  0.00    -0.207 OA
BRANCH  30  33
ATOM     33  N   UNL     1     -15.025 -43.688  28.169  1.00  0.00    -0.225 NA
ATOM     34  H   UNL     1     -15.165 -44.683  28.345  1.00  0.00     0.137 HD
ATOM     35  H   UNL     1     -15.850 -43.114  28.339  1.00  0.00     0.137 HD
ENDBRANCH  30  33
ENDBRANCH   4  30
TORSDOF 7
ENDMDL
MODEL 3
REMARK VINA RESULT:    -9.029      1.384      2.044
REMARK INTER + INTRA:         -13.584
REMARK INTER:                 -12.528
REMARK INTRA:                  -1.056
REMARK UNBOUND:                -1.125
REMARK SMILES COc1ccc(OC)c([C@H]2CC(c3cc(F)ccc3F)=NN2c2ccc(S(N)(=O)=O)cc2)c1
REMARK SMILES IDX 23 1 24 2 25 3 26 4 31 5 32 6 22 7 10 8 11 9 12 10 21 11
REMARK SMILES IDX 9 12 3 13 4 14 33 15 5 16 6 17 2 18 1 19 7 20 8 21 13 22
REMARK SMILES IDX 14 23 19 24 15 25 18 26 17 27 20 28 16 29 27 30 29 31 30 32
REMARK SMILES IDX 28 33
REMARK H PARENT 28 34 28 35
ROOT
ATOM      1  C   UNL     1     -20.518 -40.544  22.892  1.00  0.00     0.060 A 
ATOM      2  C   UNL     1     -21.845 -40.813  22.503  1.00  0.00     0.029 A 
ATOM      3  C   UNL     1     -22.476 -40.114  21.468  1.00  0.00     0.024 A 
ATOM      4  C   UNL     1     -21.773 -39.125  20.786  1.00  0.00     0.082 A 
ATOM      5  C   UNL     1     -20.462 -38.822  21.146  1.00  0.00     0.024 A 
ATOM      6  C   UNL     1     -19.846 -39.533  22.186  1.00  0.00     0.029 A 
ENDROOT
BRANCH   1   7
ATOM      7  N   UNL     1     -19.928 -41.257  23.935  1.00  0.00    -0.257 N 
ATOM      8  C   UNL     1     -20.491 -41.477  25.273  1.00  0.00     0.148 C 
ATOM      9  C   UNL     1     -19.285 -41.951  26.086  1.00  0.00     0.091 C 
ATOM     10  C   UNL     1     -18.269 -42.123  24.992  1.00  0.00     0.074 C 
ATOM     11  N   UNL     1     -18.637 -41.690  23.823  1.00  0.00    -0.176 NA
BRANCH   8  12
ATOM     12  C   UNL     1     -21.647 -42.466  25.295  1.00  0.00     0.023 A 
ATOM     13  C   UNL     1     -22.410 -44.767  24.898  1.00  0.00     0.119 A 
ATOM     14  C   UNL     1     -23.703 -44.406  25.264  1.00  0.00     0.050 A 
ATOM     15  C   UNL     1     -21.399 -43.799  24.907  1.00  0.00     0.056 A 
ATOM     16  C   UNL     1     -23.977 -43.090  25.638  1.00  0.00     0.050 A 
ATOM     17  C   UNL     1     -22.956 -42.134  25.667  1.00  0.00     0.124 A 
BRANCH  13  18
ATOM     18  O   UNL     1     -22.001 -46.012  24.504  1.00  0.00    -0.497 OA
ATOM     19  C   UNL     1     -22.772 -46.652  23.495  1.00  0.00     0.278 C 
ENDBRANCH  13  18
BRANCH  17  20
ATOM     20  O   UNL     1     -23.278 -40.839  25.977  1.00  0.00    -0.496 OA
ATOM     21  C   UNL     1     -23.473 -40.690  27.386  1.00  0.00     0.278 C 
ENDBRANCH  17  20
ENDBRANCH   8  12
BRANCH  10  22
ATOM     22  C   UNL     1     -16.940 -42.724  25.233  1.00  0.00     0.037 A 
ATOM     23  C   UNL     1     -16.275 -43.334  24.160  1.00  0.00     0.052 A 
ATOM     24  C   UNL     1     -16.328 -42.706  26.489  1.00  0.00     0.132 A 
ATOM     25  C   UNL     1     -15.025 -43.912  24.363  1.00  0.00     0.124 A 
ATOM     26  C   UNL     1     -15.075 -43.287  26.684  1.00  0.00     0.043 A 
ATOM     27  C   UNL     1     -14.419 -43.895  25.614  1.00  0.00     0.042 A 
ATOM     28  F   UNL     1     -16.913 -42.119  27.542  1.00  0.00    -0.206 F 
ATOM     29  F   UNL     1     -14.395 -44.495  23.337  1.00  0.00    -0.207 F 
ENDBRANCH  10  22
ENDBRANCH   1   7
BRANCH   4  30
ATOM     30  S   UNL     1     -22.567 -38.213  19.499  1.00  0.00     0.238 S 
ATOM     31  O   UNL     1     -23.195 -39.131  18.578  1.00  0.00    -0.207 OA
ATOM     32  O   UNL     1     -23.273 -37.091  20.073  1.00  0.00    -0.207 OA
BRANCH  30  33
ATOM     33  N   UNL     1     -21.258 -37.557  18.677  1.00  0.00    -0.225 NA
ATOM     34  H   UNL     1     -21.290 -37.837  17.697  1.00  0.00     0.137 HD
ATOM     35  H   UNL     1     -20.391 -37.806  19.153  1.00  0.00     0.137 HD
ENDBRANCH  30  33
ENDBRANCH   4  30
TORSDOF 7
ENDMDL
MODEL 4
REMARK VINA RESULT:    -8.845      4.332      7.574
REMARK INTER + INTRA:         -13.331
REMARK INTER:                 -11.817
REMARK INTRA:                  -1.514
REMARK UNBOUND:                -1.125
REMARK SMILES COc1ccc(OC)c([C@H]2CC(c3cc(F)ccc3F)=NN2c2ccc(S(N)(=O)=O)cc2)c1
REMARK SMILES IDX 23 1 24 2 25 3 26 4 31 5 32 6 22 7 10 8 11 9 12 10 21 11
REMARK SMILES IDX 9 12 3 13 4 14 33 15 5 16 6 17 2 18 1 19 7 20 8 21 13 22
REMARK SMILES IDX 14 23 19 24 15 25 18 26 17 27 20 28 16 29 27 30 29 31 30 32
REMARK SMILES IDX 28 33
REMARK H PARENT 28 34 28 35
ROOT
ATOM      1  C   UNL     1     -19.379 -41.877  26.253  1.00  0.00     0.060 A 
ATOM      2  C   UNL     1     -18.621 -42.138  25.094  1.00  0.00     0.029 A 
ATOM      3  C   UNL     1     -17.288 -42.557  25.153  1.00  0.00     0.024 A 
ATOM      4  C   UNL     1     -16.683 -42.735  26.394  1.00  0.00     0.082 A 
ATOM      5  C   UNL     1     -17.395 -42.479  27.563  1.00  0.00     0.024 A 
ATOM      6  C   UNL     1     -18.731 -42.060  27.484  1.00  0.00     0.029 A 
ENDROOT
BRANCH   1   7
ATOM      7  N   UNL     1     -20.704 -41.453  26.151  1.00  0.00    -0.257 N 
ATOM      8  C   UNL     1     -21.469 -41.263  24.912  1.00  0.00     0.148 C 
ATOM      9  C   UNL     1     -22.671 -40.434  25.368  1.00  0.00     0.091 C 
ATOM     10  C   UNL     1     -22.483 -40.477  26.858  1.00  0.00     0.074 C 
ATOM     11  N   UNL     1     -21.365 -41.006  27.260  1.00  0.00    -0.176 NA
BRANCH   8  12
ATOM     12  C   UNL     1     -21.870 -42.566  24.236  1.00  0.00     0.023 A 
ATOM     13  C   UNL     1     -22.586 -44.901  24.501  1.00  0.00     0.119 A 
ATOM     14  C   UNL     1     -22.610 -45.055  23.118  1.00  0.00     0.050 A 
ATOM     15  C   UNL     1     -22.209 -43.668  25.047  1.00  0.00     0.056 A 
ATOM     16  C   UNL     1     -22.265 -43.983  22.293  1.00  0.00     0.050 A 
ATOM     17  C   UNL     1     -21.913 -42.748  22.847  1.00  0.00     0.124 A 
BRANCH  13  18
ATOM     18  O   UNL     1     -22.891 -45.863  25.425  1.00  0.00    -0.497 OA
ATOM     19  C   UNL     1     -23.923 -45.556  26.353  1.00  0.00     0.278 C 
ENDBRANCH  13  18
BRANCH  17  20
ATOM     20  O   UNL     1     -21.518 -41.741  22.007  1.00  0.00    -0.496 OA
ATOM     21  C   UNL     1     -22.636 -41.215  21.287  1.00  0.00     0.278 C 
ENDBRANCH  17  20
ENDBRANCH   8  12
BRANCH  10  22
ATOM     22  C   UNL     1     -23.487 -39.938  27.800  1.00  0.00     0.037 A 
ATOM     23  C   UNL     1     -23.510 -38.556  28.038  1.00  0.00     0.052 A 
ATOM     24  C   UNL     1     -24.409 -40.756  28.458  1.00  0.00     0.132 A 
ATOM     25  C   UNL     1     -24.442 -38.026  28.926  1.00  0.00     0.124 A 
ATOM     26  C   UNL     1     -25.341 -40.216  29.346  1.00  0.00     0.043 A 
ATOM     27  C   UNL     1     -25.357 -38.842  29.582  1.00  0.00     0.042 A 
ATOM     28  F   UNL     1     -24.441 -42.079  28.250  1.00  0.00    -0.206 F 
ATOM     29  F   UNL     1     -24.459 -36.708  29.152  1.00  0.00    -0.207 F 
ENDBRANCH  10  22
ENDBRANCH   1   7
BRANCH   4  30
ATOM     30  S   UNL     1     -14.991 -43.232  26.483  1.00  0.00     0.238 S 
ATOM     31  O   UNL     1     -14.753 -44.295  25.535  1.00  0.00    -0.207 OA
ATOM     32  O   UNL     1     -14.151 -42.059  26.555  1.00  0.00    -0.207 OA
BRANCH  30  33
ATOM     33  N   UNL     1     -14.915 -43.943  28.003  1.00  0.00    -0.225 NA
ATOM     34  H   UNL     1     -14.639 -43.248  28.696  1.00  0.00     0.137 HD
ATOM     35  H   UNL     1     -14.311 -44.763  27.970  1.00  0.00     0.137 HD
ENDBRANCH  30  33
ENDBRANCH   4  30
TORSDOF 7
ENDMDL
MODEL 5
REMARK VINA RESULT:    -8.769      4.215      7.469
REMARK INTER + INTRA:         -13.225
REMARK INTER:                 -11.836
REMARK INTRA:                  -1.390
REMARK UNBOUND:                -1.125
REMARK SMILES COc1ccc(OC)c([C@H]2CC(c3cc(F)ccc3F)=NN2c2ccc(S(N)(=O)=O)cc2)c1
REMARK SMILES IDX 23 1 24 2 25 3 26 4 31 5 32 6 22 7 10 8 11 9 12 10 21 11
REMARK SMILES IDX 9 12 3 13 4 14 33 15 5 16 6 17 2 18 1 19 7 20 8 21 13 22
REMARK SMILES IDX 14 23 19 24 15 25 18 26 17 27 20 28 16 29 27 30 29 31 30 32
REMARK SMILES IDX 28 33
REMARK H PARENT 28 34 28 35
ROOT
ATOM      1  C   UNL     1     -18.977 -42.042  25.831  1.00  0.00     0.060 A 
ATOM      2  C   UNL     1     -18.261 -42.283  24.642  1.00  0.00     0.029 A 
ATOM      3  C   UNL     1     -16.916 -42.669  24.646  1.00  0.00     0.024 A 
ATOM      4  C   UNL     1     -16.258 -42.836  25.860  1.00  0.00     0.082 A 
ATOM      5  C   UNL     1     -16.928 -42.600  27.059  1.00  0.00     0.024 A 
ATOM      6  C   UNL     1     -18.276 -42.212  27.035  1.00  0.00     0.029 A 
ENDROOT
BRANCH   1   7
ATOM      7  N   UNL     1     -20.314 -41.649  25.784  1.00  0.00    -0.257 N 
ATOM      8  C   UNL     1     -20.963 -40.878  24.716  1.00  0.00     0.148 C 
ATOM      9  C   UNL     1     -22.267 -40.412  25.365  1.00  0.00     0.091 C 
ATOM     10  C   UNL     1     -22.229 -41.193  26.648  1.00  0.00     0.074 C 
ATOM     11  N   UNL     1     -21.119 -41.832  26.874  1.00  0.00    -0.176 NA
BRANCH   8  12
ATOM     12  C   UNL     1     -21.187 -41.673  23.438  1.00  0.00     0.023 A 
ATOM     13  C   UNL     1     -22.056 -43.723  22.401  1.00  0.00     0.119 A 
ATOM     14  C   UNL     1     -21.646 -43.270  21.151  1.00  0.00     0.050 A 
ATOM     15  C   UNL     1     -21.817 -42.931  23.530  1.00  0.00     0.056 A 
ATOM     16  C   UNL     1     -21.007 -42.035  21.035  1.00  0.00     0.050 A 
ATOM     17  C   UNL     1     -20.793 -41.239  22.165  1.00  0.00     0.124 A 
BRANCH  13  18
ATOM     18  O   UNL     1     -22.683 -44.911  22.662  1.00  0.00    -0.497 OA
ATOM     19  C   UNL     1     -22.443 -45.498  23.935  1.00  0.00     0.278 C 
ENDBRANCH  13  18
BRANCH  17  20
ATOM     20  O   UNL     1     -20.106 -40.063  22.020  1.00  0.00    -0.496 OA
ATOM     21  C   UNL     1     -19.402 -40.039  20.775  1.00  0.00     0.278 C 
ENDBRANCH  17  20
ENDBRANCH   8  12
BRANCH  10  22
ATOM     22  C   UNL     1     -23.363 -41.218  27.595  1.00  0.00     0.037 A 
ATOM     23  C   UNL     1     -23.974 -42.448  27.879  1.00  0.00     0.052 A 
ATOM     24  C   UNL     1     -23.847 -40.061  28.212  1.00  0.00     0.132 A 
ATOM     25  C   UNL     1     -25.049 -42.495  28.762  1.00  0.00     0.124 A 
ATOM     26  C   UNL     1     -24.924 -40.118  29.097  1.00  0.00     0.043 A 
ATOM     27  C   UNL     1     -25.530 -41.343  29.374  1.00  0.00     0.042 A 
ATOM     28  F   UNL     1     -23.286 -38.865  27.989  1.00  0.00    -0.206 F 
ATOM     29  F   UNL     1     -25.630 -43.671  29.029  1.00  0.00    -0.207 F 
ENDBRANCH  10  22
ENDBRANCH   1   7
BRANCH   4  30
ATOM     30  S   UNL     1     -14.552 -43.293  25.880  1.00  0.00     0.238 S 
ATOM     31  O   UNL     1     -13.837 -42.437  26.797  1.00  0.00    -0.207 OA
ATOM     32  O   UNL     1     -14.442 -44.732  25.922  1.00  0.00    -0.207 OA
BRANCH  30  33
ATOM     33  N   UNL     1     -14.052 -42.841  24.342  1.00  0.00    -0.225 NA
ATOM     34  H   UNL     1     -13.188 -42.304  24.403  1.00  0.00     0.137 HD
ATOM     35  H   UNL     1     -14.810 -42.358  23.860  1.00  0.00     0.137 HD
ENDBRANCH  30  33
ENDBRANCH   4  30
TORSDOF 7
ENDMDL
MODEL 6
REMARK VINA RESULT:    -8.456      3.408      5.935
REMARK INTER + INTRA:         -12.795
REMARK INTER:                 -11.143
REMARK INTRA:                  -1.651
REMARK UNBOUND:                -1.125
REMARK SMILES COc1ccc(OC)c([C@H]2CC(c3cc(F)ccc3F)=NN2c2ccc(S(N)(=O)=O)cc2)c1
REMARK SMILES IDX 23 1 24 2 25 3 26 4 31 5 32 6 22 7 10 8 11 9 12 10 21 11
REMARK SMILES IDX 9 12 3 13 4 14 33 15 5 16 6 17 2 18 1 19 7 20 8 21 13 22
REMARK SMILES IDX 14 23 19 24 15 25 18 26 17 27 20 28 16 29 27 30 29 31 30 32
REMARK SMILES IDX 28 33
REMARK H PARENT 28 34 28 35
ROOT
ATOM      1  C   UNL     1     -23.087 -40.505  27.309  1.00  0.00     0.060 A 
ATOM      2  C   UNL     1     -24.112 -41.294  27.867  1.00  0.00     0.029 A 
ATOM      3  C   UNL     1     -25.171 -40.738  28.592  1.00  0.00     0.024 A 
ATOM      4  C   UNL     1     -25.230 -39.358  28.763  1.00  0.00     0.082 A 
ATOM      5  C   UNL     1     -24.232 -38.543  28.235  1.00  0.00     0.024 A 
ATOM      6  C   UNL     1     -23.177 -39.119  27.511  1.00  0.00     0.029 A 
ENDROOT
BRANCH   1   7
ATOM      7  N   UNL     1     -22.043 -41.099  26.601  1.00  0.00    -0.257 N 
ATOM      8  C   UNL     1     -22.143 -41.793  25.311  1.00  0.00     0.148 C 
ATOM      9  C   UNL     1     -20.822 -42.558  25.223  1.00  0.00     0.091 C 
ATOM     10  C   UNL     1     -20.095 -41.986  26.406  1.00  0.00     0.074 C 
ATOM     11  N   UNL     1     -20.808 -41.218  27.175  1.00  0.00    -0.176 NA
BRANCH   8  12
ATOM     12  C   UNL     1     -22.368 -40.860  24.131  1.00  0.00     0.023 A 
ATOM     13  C   UNL     1     -21.367 -39.499  22.347  1.00  0.00     0.119 A 
ATOM     14  C   UNL     1     -22.635 -39.099  21.935  1.00  0.00     0.050 A 
ATOM     15  C   UNL     1     -21.243 -40.364  23.441  1.00  0.00     0.056 A 
ATOM     16  C   UNL     1     -23.764 -39.565  22.610  1.00  0.00     0.050 A 
ATOM     17  C   UNL     1     -23.632 -40.448  23.687  1.00  0.00     0.124 A 
BRANCH  13  18
ATOM     18  O   UNL     1     -20.179 -39.117  21.787  1.00  0.00    -0.497 OA
ATOM     19  C   UNL     1     -19.175 -40.117  21.668  1.00  0.00     0.278 C 
ENDBRANCH  13  18
BRANCH  17  20
ATOM     20  O   UNL     1     -24.759 -40.831  24.364  1.00  0.00    -0.496 OA
ATOM     21  C   UNL     1     -25.579 -39.698  24.665  1.00  0.00     0.278 C 
ENDBRANCH  17  20
ENDBRANCH   8  12
BRANCH  10  22
ATOM     22  C   UNL     1     -18.676 -42.292  26.688  1.00  0.00     0.037 A 
ATOM     23  C   UNL     1     -18.276 -42.450  28.023  1.00  0.00     0.052 A 
ATOM     24  C   UNL     1     -17.725 -42.425  25.674  1.00  0.00     0.132 A 
ATOM     25  C   UNL     1     -16.944 -42.730  28.313  1.00  0.00     0.124 A 
ATOM     26  C   UNL     1     -16.392 -42.708  25.973  1.00  0.00     0.043 A 
ATOM     27  C   UNL     1     -15.998 -42.861  27.303  1.00  0.00     0.042 A 
ATOM     28  F   UNL     1     -18.060 -42.303  24.382  1.00  0.00    -0.206 F 
ATOM     29  F   UNL     1     -16.566 -42.878  29.588  1.00  0.00    -0.207 F 
ENDBRANCH  10  22
ENDBRANCH   1   7
BRANCH   4  30
ATOM     30  S   UNL     1     -26.544 -38.645  29.703  1.00  0.00     0.238 S 
ATOM     31  O   UNL     1     -26.267 -38.803  31.111  1.00  0.00    -0.207 OA
ATOM     32  O   UNL     1     -26.910 -37.373  29.126  1.00  0.00    -0.207 OA
BRANCH  30  33
ATOM     33  N   UNL     1     -27.820 -39.684  29.365  1.00  0.00    -0.225 NA
ATOM     34  H   UNL     1     -27.647 -40.169  28.485  1.00  0.00     0.137 HD
ATOM     35  H   UNL     1     -28.700 -39.171  29.392  1.00  0.00     0.137 HD
ENDBRANCH  30  33
ENDBRANCH   4  30
TORSDOF 7
ENDMDL
MODEL 7
REMARK VINA RESULT:    -8.453      3.996      7.612
REMARK INTER + INTRA:         -12.790
REMARK INTER:                 -11.240
REMARK INTRA:                  -1.550
REMARK UNBOUND:                -1.125
REMARK SMILES COc1ccc(OC)c([C@H]2CC(c3cc(F)ccc3F)=NN2c2ccc(S(N)(=O)=O)cc2)c1
REMARK SMILES IDX 23 1 24 2 25 3 26 4 31 5 32 6 22 7 10 8 11 9 12 10 21 11
REMARK SMILES IDX 9 12 3 13 4 14 33 15 5 16 6 17 2 18 1 19 7 20 8 21 13 22
REMARK SMILES IDX 14 23 19 24 15 25 18 26 17 27 20 28 16 29 27 30 29 31 30 32
REMARK SMILES IDX 28 33
REMARK H PARENT 28 34 28 35
ROOT
ATOM      1  C   UNL     1     -21.985 -43.946  23.174  1.00  0.00     0.060 A 
ATOM      2  C   UNL     1     -21.855 -44.697  24.358  1.00  0.00     0.029 A 
ATOM      3  C   UNL     1     -22.168 -46.060  24.417  1.00  0.00     0.024 A 
ATOM      4  C   UNL     1     -22.613 -46.707  23.268  1.00  0.00     0.082 A 
ATOM      5  C   UNL     1     -22.764 -45.998  22.079  1.00  0.00     0.024 A 
ATOM      6  C   UNL     1     -22.446 -44.633  22.039  1.00  0.00     0.029 A 
ENDROOT
BRANCH   1   7
ATOM      7  N   UNL     1     -21.671 -42.587  23.160  1.00  0.00    -0.257 N 
ATOM      8  C   UNL     1     -21.290 -41.765  24.315  1.00  0.00     0.148 C 
ATOM      9  C   UNL     1     -21.456 -40.336  23.795  1.00  0.00     0.091 C 
ATOM     10  C   UNL     1     -21.706 -40.602  22.338  1.00  0.00     0.074 C 
ATOM     11  N   UNL     1     -21.865 -41.854  22.023  1.00  0.00    -0.176 NA
BRANCH   8  12
ATOM     12  C   UNL     1     -19.887 -42.049  24.830  1.00  0.00     0.023 A 
ATOM     13  C   UNL     1     -17.501 -42.308  24.306  1.00  0.00     0.119 A 
ATOM     14  C   UNL     1     -17.233 -42.585  25.643  1.00  0.00     0.050 A 
ATOM     15  C   UNL     1     -18.820 -42.053  23.910  1.00  0.00     0.056 A 
ATOM     16  C   UNL     1     -18.275 -42.602  26.572  1.00  0.00     0.050 A 
ATOM     17  C   UNL     1     -19.585 -42.322  26.171  1.00  0.00     0.124 A 
BRANCH  13  18
ATOM     18  O   UNL     1     -16.584 -42.265  23.291  1.00  0.00    -0.497 OA
ATOM     19  C   UNL     1     -16.771 -41.265  22.299  1.00  0.00     0.278 C 
ENDBRANCH  13  18
BRANCH  17  20
ATOM     20  O   UNL     1     -20.588 -42.412  27.100  1.00  0.00    -0.496 OA
ATOM     21  C   UNL     1     -20.622 -43.718  27.684  1.00  0.00     0.278 C 
ENDBRANCH  17  20
ENDBRANCH   8  12
BRANCH  10  22
ATOM     22  C   UNL     1     -21.786 -39.517  21.337  1.00  0.00     0.037 A 
ATOM     23  C   UNL     1     -22.918 -38.691  21.331  1.00  0.00     0.052 A 
ATOM     24  C   UNL     1     -20.775 -39.290  20.399  1.00  0.00     0.132 A 
ATOM     25  C   UNL     1     -23.019 -37.667  20.393  1.00  0.00     0.124 A 
ATOM     26  C   UNL     1     -20.883 -38.261  19.463  1.00  0.00     0.043 A 
ATOM     27  C   UNL     1     -22.013 -37.445  19.459  1.00  0.00     0.042 A 
ATOM     28  F   UNL     1     -19.664 -40.039  20.375  1.00  0.00    -0.206 F 
ATOM     29  F   UNL     1     -24.103 -36.883  20.389  1.00  0.00    -0.207 F 
ENDBRANCH  10  22
ENDBRANCH   1   7
BRANCH   4  30
ATOM     30  S   UNL     1     -23.042 -48.418  23.335  1.00  0.00     0.238 S 
ATOM     31  O   UNL     1     -22.997 -48.871  24.706  1.00  0.00    -0.207 OA
ATOM     32  O   UNL     1     -24.180 -48.661  22.479  1.00  0.00    -0.207 OA
BRANCH  30  33
ATOM     33  N   UNL     1     -21.733 -49.137  22.568  1.00  0.00    -0.225 NA
ATOM     34  H   UNL     1     -20.865 -48.837  23.012  1.00  0.00     0.137 HD
ATOM     35  H   UNL     1     -21.774 -48.952  21.567  1.00  0.00     0.137 HD
ENDBRANCH  30  33
ENDBRANCH   4  30
TORSDOF 7
ENDMDL
MODEL 8
REMARK VINA RESULT:    -8.323      3.376      5.233
REMARK INTER + INTRA:         -12.611
REMARK INTER:                 -10.994
REMARK INTRA:                  -1.616
REMARK UNBOUND:                -1.125
REMARK SMILES COc1ccc(OC)c([C@H]2CC(c3cc(F)ccc3F)=NN2c2ccc(S(N)(=O)=O)cc2)c1
REMARK SMILES IDX 23 1 24 2 25 3 26 4 31 5 32 6 22 7 10 8 11 9 12 10 21 11
REMARK SMILES IDX 9 12 3 13 4 14 33 15 5 16 6 17 2 18 1 19 7 20 8 21 13 22
REMARK SMILES IDX 14 23 19 24 15 25 18 26 17 27 20 28 16 29 27 30 29 31 30 32
REMARK SMILES IDX 28 33
REMARK H PARENT 28 34 28 35
ROOT
ATOM      1  C   UNL     1     -21.568 -43.438  21.831  1.00  0.00     0.060 A 
ATOM      2  C   UNL     1     -21.463 -43.487  20.427  1.00  0.00     0.029 A 
ATOM      3  C   UNL     1     -22.286 -44.306  19.645  1.00  0.00     0.024 A 
ATOM      4  C   UNL     1     -23.250 -45.094  20.266  1.00  0.00     0.082 A 
ATOM      5  C   UNL     1     -23.379 -45.081  21.653  1.00  0.00     0.024 A 
ATOM      6  C   UNL     1     -22.546 -44.254  22.420  1.00  0.00     0.029 A 
ENDROOT
BRANCH   1   7
ATOM      7  N   UNL     1     -20.722 -42.614  22.574  1.00  0.00    -0.257 N 
ATOM      8  C   UNL     1     -20.550 -41.165  22.415  1.00  0.00     0.148 C 
ATOM      9  C   UNL     1     -19.259 -40.881  23.184  1.00  0.00     0.091 C 
ATOM     10  C   UNL     1     -19.030 -42.214  23.837  1.00  0.00     0.074 C 
ATOM     11  N   UNL     1     -19.827 -43.165  23.447  1.00  0.00    -0.176 NA
BRANCH   8  12
ATOM     12  C   UNL     1     -21.732 -40.351  22.920  1.00  0.00     0.023 A 
ATOM     13  C   UNL     1     -23.260 -39.851  24.777  1.00  0.00     0.119 A 
ATOM     14  C   UNL     1     -23.931 -38.926  23.983  1.00  0.00     0.050 A 
ATOM     15  C   UNL     1     -22.178 -40.559  24.241  1.00  0.00     0.056 A 
ATOM     16  C   UNL     1     -23.518 -38.712  22.667  1.00  0.00     0.050 A 
ATOM     17  C   UNL     1     -22.421 -39.406  22.147  1.00  0.00     0.124 A 
BRANCH  13  18
ATOM     18  O   UNL     1     -23.559 -40.166  26.075  1.00  0.00    -0.497 OA
ATOM     19  C   UNL     1     -22.469 -40.514  26.919  1.00  0.00     0.278 C 
ENDBRANCH  13  18
BRANCH  17  20
ATOM     20  O   UNL     1     -22.087 -39.216  20.832  1.00  0.00    -0.496 OA
ATOM     21  C   UNL     1     -22.792 -38.097  20.287  1.00  0.00     0.278 C 
ENDBRANCH  17  20
ENDBRANCH   8  12
BRANCH  10  22
ATOM     22  C   UNL     1     -17.963 -42.435  24.837  1.00  0.00     0.037 A 
ATOM     23  C   UNL     1     -18.266 -42.253  26.193  1.00  0.00     0.052 A 
ATOM     24  C   UNL     1     -16.668 -42.815  24.475  1.00  0.00     0.132 A 
ATOM     25  C   UNL     1     -17.276 -42.448  27.152  1.00  0.00     0.124 A 
ATOM     26  C   UNL     1     -15.682 -43.010  25.443  1.00  0.00     0.043 A 
ATOM     27  C   UNL     1     -15.987 -42.824  26.790  1.00  0.00     0.042 A 
ATOM     28  F   UNL     1     -16.333 -43.021  23.194  1.00  0.00    -0.206 F 
ATOM     29  F   UNL     1     -17.569 -42.270  28.446  1.00  0.00    -0.207 F 
ENDBRANCH  10  22
ENDBRANCH   1   7
BRANCH   4  30
ATOM     30  S   UNL     1     -24.274 -46.157  19.296  1.00  0.00     0.238 S 
ATOM     31  O   UNL     1     -24.785 -47.221  20.128  1.00  0.00    -0.207 OA
ATOM     32  O   UNL     1     -25.131 -45.357  18.452  1.00  0.00    -0.207 OA
BRANCH  30  33
ATOM     33  N   UNL     1     -23.157 -46.873  18.266  1.00  0.00    -0.225 NA
ATOM     34  H   UNL     1     -23.168 -46.402  17.362  1.00  0.00     0.137 HD
ATOM     35  H   UNL     1     -23.328 -47.877  18.215  1.00  0.00     0.137 HD
ENDBRANCH  30  33
ENDBRANCH   4  30
TORSDOF 7
ENDMDL
MODEL 9
REMARK VINA RESULT:    -8.155      2.976      5.804
REMARK INTER + INTRA:         -12.378
REMARK INTER:                 -10.975
REMARK INTRA:                  -1.404
REMARK UNBOUND:                -1.125
REMARK SMILES COc1ccc(OC)c([C@H]2CC(c3cc(F)ccc3F)=NN2c2ccc(S(N)(=O)=O)cc2)c1
REMARK SMILES IDX 23 1 24 2 25 3 26 4 31 5 32 6 22 7 10 8 11 9 12 10 21 11
REMARK SMILES IDX 9 12 3 13 4 14 33 15 5 16 6 17 2 18 1 19 7 20 8 21 13 22
REMARK SMILES IDX 14 23 19 24 15 25 18 26 17 27 20 28 16 29 27 30 29 31 30 32
REMARK SMILES IDX 28 33
REMARK H PARENT 28 34 28 35
ROOT
ATOM      1  C   UNL     1     -22.144 -41.624  26.289  1.00  0.00     0.060 A 
ATOM      2  C   UNL     1     -22.838 -42.726  26.825  1.00  0.00     0.029 A 
ATOM      3  C   UNL     1     -23.832 -42.580  27.799  1.00  0.00     0.024 A 
ATOM      4  C   UNL     1     -24.160 -41.306  28.252  1.00  0.00     0.082 A 
ATOM      5  C   UNL     1     -23.490 -40.191  27.754  1.00  0.00     0.024 A 
ATOM      6  C   UNL     1     -22.497 -40.357  26.778  1.00  0.00     0.029 A 
ENDROOT
BRANCH   1   7
ATOM      7  N   UNL     1     -21.153 -41.813  25.325  1.00  0.00    -0.257 N 
ATOM      8  C   UNL     1     -21.360 -42.167  23.915  1.00  0.00     0.148 C 
ATOM      9  C   UNL     1     -19.971 -42.622  23.463  1.00  0.00     0.091 C 
ATOM     10  C   UNL     1     -19.153 -42.238  24.663  1.00  0.00     0.074 C 
ATOM     11  N   UNL     1     -19.837 -41.836  25.694  1.00  0.00    -0.176 NA
BRANCH   8  12
ATOM     12  C   UNL     1     -21.915 -41.028  23.074  1.00  0.00     0.023 A 
ATOM     13  C   UNL     1     -21.444 -39.162  21.548  1.00  0.00     0.119 A 
ATOM     14  C   UNL     1     -22.801 -38.863  21.486  1.00  0.00     0.050 A 
ATOM     15  C   UNL     1     -21.012 -40.229  22.343  1.00  0.00     0.056 A 
ATOM     16  C   UNL     1     -23.715 -39.630  22.212  1.00  0.00     0.050 A 
ATOM     17  C   UNL     1     -23.276 -40.710  22.985  1.00  0.00     0.124 A 
BRANCH  13  18
ATOM     18  O   UNL     1     -20.441 -38.494  20.899  1.00  0.00    -0.497 OA
ATOM     19  C   UNL     1     -20.027 -39.019  19.644  1.00  0.00     0.278 C 
ENDBRANCH  13  18
BRANCH  17  20
ATOM     20  O   UNL     1     -24.195 -41.397  23.733  1.00  0.00    -0.496 OA
ATOM     21  C   UNL     1     -25.500 -40.834  23.574  1.00  0.00     0.278 C 
ENDBRANCH  17  20
ENDBRANCH   8  12
BRANCH  10  22
ATOM     22  C   UNL     1     -17.678 -42.329  24.679  1.00  0.00     0.037 A 
ATOM     23  C   UNL     1     -17.046 -42.784  25.845  1.00  0.00     0.052 A 
ATOM     24  C   UNL     1     -16.895 -41.978  23.576  1.00  0.00     0.132 A 
ATOM     25  C   UNL     1     -15.657 -42.872  25.887  1.00  0.00     0.124 A 
ATOM     26  C   UNL     1     -15.504 -42.070  23.625  1.00  0.00     0.043 A 
ATOM     27  C   UNL     1     -14.881 -42.520  24.789  1.00  0.00     0.042 A 
ATOM     28  F   UNL     1     -17.451 -41.556  22.432  1.00  0.00    -0.206 F 
ATOM     29  F   UNL     1     -15.059 -43.304  27.002  1.00  0.00    -0.207 F 
ENDBRANCH  10  22
ENDBRANCH   1   7
BRANCH   4  30
ATOM     30  S   UNL     1     -25.389 -41.109  29.505  1.00  0.00     0.238 S 
ATOM     31  O   UNL     1     -25.653 -42.387  30.123  1.00  0.00    -0.207 OA
ATOM     32  O   UNL     1     -25.100 -39.923  30.278  1.00  0.00    -0.207 OA
BRANCH  30  33
ATOM     33  N   UNL     1     -26.755 -40.743  28.600  1.00  0.00    -0.225 NA
ATOM     34  H   UNL     1     -26.482 -40.296  27.726  1.00  0.00     0.137 HD
ATOM     35  H   UNL     1     -27.406 -40.196  29.162  1.00  0.00     0.137 HD
ENDBRANCH  30  33
ENDBRANCH   4  30
TORSDOF 7
ENDMDL
