MODEL 1
REMARK VINA RESULT:    -9.674      0.000      0.000
REMARK INTER + INTRA:         -14.709
REMARK INTER:                 -13.351
REMARK INTRA:                  -1.359
REMARK UNBOUND:                -1.359
REMARK SMILES COc1ccc(OC)c([C@@H]2C=C(c3cc(F)cc(F)c3)NN2c2ccc(S(N)(=O)=O)cc2)c1
REMARK SMILES IDX 23 1 24 2 25 3 26 4 31 5 32 6 22 7 21 8 12 9 11 10 10 11
REMARK SMILES IDX 13 13 14 14 20 15 15 16 18 17 17 18 16 19 19 20 9 21 33 22
REMARK SMILES IDX 6 23 3 24 5 25 4 26 7 27 8 28 2 29 1 30 27 31 29 32 30 33
REMARK SMILES IDX 28 34
REMARK H PARENT 21 12 28 35 28 36
ROOT
ATOM      1  C   UNL     1     -17.823 -42.520  25.283  1.00  0.00     0.058 A 
ATOM      2  C   UNL     1     -16.802 -43.077  24.488  1.00  0.00     0.029 A 
ATOM      3  C   UNL     1     -15.583 -43.496  25.033  1.00  0.00     0.024 A 
ATOM      4  C   UNL     1     -15.366 -43.360  26.402  1.00  0.00     0.082 A 
ATOM      5  C   UNL     1     -16.363 -42.838  27.223  1.00  0.00     0.024 A 
ATOM      6  C   UNL     1     -17.578 -42.425  26.662  1.00  0.00     0.029 A 
ENDROOT
BRANCH   1   7
ATOM      7  N   UNL     1     -19.040 -42.132  24.699  1.00  0.00    -0.276 N 
ATOM      8  N   UNL     1     -19.104 -41.373  23.531  1.00  0.00    -0.297 N 
ATOM      9  C   UNL     1     -20.302 -40.673  23.476  1.00  0.00     0.060 C 
ATOM     10  C   UNL     1     -20.997 -40.860  24.609  1.00  0.00     0.033 C 
ATOM     11  C   UNL     1     -20.247 -41.811  25.524  1.00  0.00     0.165 C 
ATOM     12  H   UNL     1     -18.955 -41.911  22.675  1.00  0.00     0.188 HD
BRANCH   9  13
ATOM     13  C   UNL     1     -20.688 -39.893  22.299  1.00  0.00     0.005 A 
ATOM     14  C   UNL     1     -19.807 -39.718  21.222  1.00  0.00     0.049 A 
ATOM     15  C   UNL     1     -21.948 -39.284  22.236  1.00  0.00     0.049 A 
ATOM     16  C   UNL     1     -20.192 -38.961  20.118  1.00  0.00     0.126 A 
ATOM     17  C   UNL     1     -22.311 -38.531  21.120  1.00  0.00     0.126 A 
ATOM     18  C   UNL     1     -21.441 -38.362  20.054  1.00  0.00     0.078 A 
ATOM     19  F   UNL     1     -19.336 -38.804  19.099  1.00  0.00    -0.207 F 
ATOM     20  F   UNL     1     -23.523 -37.961  21.079  1.00  0.00    -0.207 F 
ENDBRANCH   9  13
BRANCH  11  21
ATOM     21  C   UNL     1     -21.085 -43.015  25.920  1.00  0.00     0.026 A 
ATOM     22  C   UNL     1     -20.825 -44.246  25.275  1.00  0.00     0.056 A 
ATOM     23  C   UNL     1     -22.083 -42.983  26.907  1.00  0.00     0.124 A 
ATOM     24  C   UNL     1     -21.543 -45.401  25.597  1.00  0.00     0.119 A 
ATOM     25  C   UNL     1     -22.786 -44.142  27.248  1.00  0.00     0.050 A 
ATOM     26  C   UNL     1     -22.522 -45.340  26.587  1.00  0.00     0.050 A 
BRANCH  23  27
ATOM     27  O   UNL     1     -22.319 -41.830  27.609  1.00  0.00    -0.496 OA
ATOM     28  C   UNL     1     -23.595 -41.278  27.282  1.00  0.00     0.278 C 
ENDBRANCH  23  27
BRANCH  24  29
ATOM     29  O   UNL     1     -21.380 -46.636  25.032  1.00  0.00    -0.497 OA
ATOM     30  C   UNL     1     -22.309 -47.019  24.027  1.00  0.00     0.278 C 
ENDBRANCH  24  29
ENDBRANCH  11  21
ENDBRANCH   1   7
BRANCH   4  31
ATOM     31  S   UNL     1     -13.831 -43.889  27.110  1.00  0.00     0.238 S 
ATOM     32  O   UNL     1     -13.463 -45.152  26.519  1.00  0.00    -0.207 OA
ATOM     33  O   UNL     1     -12.932 -42.759  27.156  1.00  0.00    -0.207 OA
BRANCH  31  34
ATOM     34  N   UNL     1     -14.283 -44.177  28.707  1.00  0.00    -0.225 NA
ATOM     35  H   UNL     1     -14.371 -43.325  29.259  1.00  0.00     0.137 HD
ATOM     36  H   UNL     1     -13.617 -44.832  29.122  1.00  0.00     0.137 HD
ENDBRANCH  31  34
ENDBRANCH   4  31
TORSDOF 7
ENDMDL
MODEL 2
REMARK VINA RESULT:    -9.080      1.221      2.705
REMARK INTER + INTRA:         -13.889
REMARK INTER:                 -12.573
REMARK INTRA:                  -1.315
REMARK UNBOUND:                -1.359
REMARK SMILES COc1ccc(OC)c([C@@H]2C=C(c3cc(F)cc(F)c3)NN2c2ccc(S(N)(=O)=O)cc2)c1
REMARK SMILES IDX 23 1 24 2 25 3 26 4 31 5 32 6 22 7 21 8 12 9 11 10 10 11
REMARK SMILES IDX 13 13 14 14 20 15 15 16 18 17 17 18 16 19 19 20 9 21 33 22
REMARK SMILES IDX 6 23 3 24 5 25 4 26 7 27 8 28 2 29 1 30 27 31 29 32 30 33
REMARK SMILES IDX 28 34
REMARK H PARENT 21 12 28 35 28 36
ROOT
ATOM      1  C   UNL     1     -18.114 -42.404  25.247  1.00  0.00     0.058 A 
ATOM      2  C   UNL     1     -17.957 -42.396  26.648  1.00  0.00     0.029 A 
ATOM      3  C   UNL     1     -16.761 -42.781  27.263  1.00  0.00     0.024 A 
ATOM      4  C   UNL     1     -15.689 -43.187  26.473  1.00  0.00     0.082 A 
ATOM      5  C   UNL     1     -15.797 -43.183  25.084  1.00  0.00     0.024 A 
ATOM      6  C   UNL     1     -17.000 -42.792  24.484  1.00  0.00     0.029 A 
ENDROOT
BRANCH   1   7
ATOM      7  N   UNL     1     -19.324 -41.988  24.669  1.00  0.00    -0.276 N 
ATOM      8  N   UNL     1     -19.376 -41.236  23.496  1.00  0.00    -0.297 N 
ATOM      9  C   UNL     1     -20.556 -40.506  23.444  1.00  0.00     0.060 C 
ATOM     10  C   UNL     1     -21.248 -40.667  24.583  1.00  0.00     0.033 C 
ATOM     11  C   UNL     1     -20.516 -41.630  25.500  1.00  0.00     0.165 C 
ATOM     12  H   UNL     1     -19.248 -41.784  22.643  1.00  0.00     0.188 HD
BRANCH   9  13
ATOM     13  C   UNL     1     -20.930 -39.725  22.264  1.00  0.00     0.005 A 
ATOM     14  C   UNL     1     -22.204 -39.151  22.146  1.00  0.00     0.049 A 
ATOM     15  C   UNL     1     -20.020 -39.553  21.212  1.00  0.00     0.049 A 
ATOM     16  C   UNL     1     -22.541 -38.421  21.007  1.00  0.00     0.126 A 
ATOM     17  C   UNL     1     -20.381 -38.819  20.083  1.00  0.00     0.126 A 
ATOM     18  C   UNL     1     -21.639 -38.248  19.969  1.00  0.00     0.078 A 
ATOM     19  F   UNL     1     -23.764 -37.881  20.912  1.00  0.00    -0.207 F 
ATOM     20  F   UNL     1     -19.494 -38.664  19.090  1.00  0.00    -0.207 F 
ENDBRANCH   9  13
BRANCH  11  21
ATOM     21  C   UNL     1     -21.382 -42.809  25.910  1.00  0.00     0.026 A 
ATOM     22  C   UNL     1     -21.921 -42.815  27.218  1.00  0.00     0.056 A 
ATOM     23  C   UNL     1     -21.702 -43.879  25.059  1.00  0.00     0.124 A 
ATOM     24  C   UNL     1     -22.740 -43.856  27.662  1.00  0.00     0.119 A 
ATOM     25  C   UNL     1     -22.541 -44.909  25.493  1.00  0.00     0.050 A 
ATOM     26  C   UNL     1     -23.047 -44.900  26.791  1.00  0.00     0.050 A 
BRANCH  23  27
ATOM     27  O   UNL     1     -21.264 -43.880  23.761  1.00  0.00    -0.496 OA
ATOM     28  C   UNL     1     -22.354 -43.754  22.847  1.00  0.00     0.278 C 
ENDBRANCH  23  27
BRANCH  24  29
ATOM     29  O   UNL     1     -23.304 -43.964  28.903  1.00  0.00    -0.497 OA
ATOM     30  C   UNL     1     -24.109 -45.109  29.153  1.00  0.00     0.278 C 
ENDBRANCH  24  29
ENDBRANCH  11  21
ENDBRANCH   1   7
BRANCH   4  31
ATOM     31  S   UNL     1     -14.165 -43.675  27.234  1.00  0.00     0.238 S 
ATOM     32  O   UNL     1     -13.155 -42.698  26.906  1.00  0.00    -0.207 OA
ATOM     33  O   UNL     1     -14.439 -44.086  28.592  1.00  0.00    -0.207 OA
BRANCH  31  34
ATOM     34  N   UNL     1     -13.810 -45.090  26.392  1.00  0.00    -0.225 NA
ATOM     35  H   UNL     1     -14.095 -45.933  26.887  1.00  0.00     0.137 HD
ATOM     36  H   UNL     1     -12.812 -45.096  26.171  1.00  0.00     0.137 HD
ENDBRANCH  31  34
ENDBRANCH   4  31
TORSDOF 7
ENDMDL
MODEL 3
REMARK VINA RESULT:    -9.046      4.896      7.800
REMARK INTER + INTRA:         -13.842
REMARK INTER:                 -12.506
REMARK INTRA:                  -1.336
REMARK UNBOUND:                -1.359
REMARK SMILES COc1ccc(OC)c([C@@H]2C=C(c3cc(F)cc(F)c3)NN2c2ccc(S(N)(=O)=O)cc2)c1
REMARK SMILES IDX 23 1 24 2 25 3 26 4 31 5 32 6 22 7 21 8 12 9 11 10 10 11
REMARK SMILES IDX 13 13 14 14 20 15 15 16 18 17 17 18 16 19 19 20 9 21 33 22
REMARK SMILES IDX 6 23 3 24 5 25 4 26 7 27 8 28 2 29 1 30 27 31 29 32 30 33
REMARK SMILES IDX 28 34
REMARK H PARENT 21 12 28 35 28 36
ROOT
ATOM      1  C   UNL     1     -21.313 -40.926  25.145  1.00  0.00     0.058 A 
ATOM      2  C   UNL     1     -21.349 -40.929  26.554  1.00  0.00     0.029 A 
ATOM      3  C   UNL     1     -22.412 -40.369  27.271  1.00  0.00     0.024 A 
ATOM      4  C   UNL     1     -23.470 -39.788  26.577  1.00  0.00     0.082 A 
ATOM      5  C   UNL     1     -23.482 -39.789  25.184  1.00  0.00     0.024 A 
ATOM      6  C   UNL     1     -22.411 -40.355  24.481  1.00  0.00     0.029 A 
ENDROOT
BRANCH   1   7
ATOM      7  N   UNL     1     -20.237 -41.518  24.464  1.00  0.00    -0.276 N 
ATOM      8  N   UNL     1     -19.184 -42.147  25.128  1.00  0.00    -0.297 N 
ATOM      9  C   UNL     1     -18.042 -42.139  24.337  1.00  0.00     0.060 C 
ATOM     10  C   UNL     1     -18.267 -41.441  23.212  1.00  0.00     0.033 C 
ATOM     11  C   UNL     1     -19.704 -40.954  23.185  1.00  0.00     0.165 C 
ATOM     12  H   UNL     1     -19.400 -43.093  25.449  1.00  0.00     0.188 HD
BRANCH   9  13
ATOM     13  C   UNL     1     -16.822 -42.842  24.734  1.00  0.00     0.005 A 
ATOM     14  C   UNL     1     -16.045 -43.537  23.796  1.00  0.00     0.049 A 
ATOM     15  C   UNL     1     -16.416 -42.852  26.076  1.00  0.00     0.049 A 
ATOM     16  C   UNL     1     -14.894 -44.210  24.201  1.00  0.00     0.126 A 
ATOM     17  C   UNL     1     -15.260 -43.532  26.456  1.00  0.00     0.126 A 
ATOM     18  C   UNL     1     -14.491 -44.215  25.527  1.00  0.00     0.078 A 
ATOM     19  F   UNL     1     -14.165 -44.869  23.290  1.00  0.00    -0.207 F 
ATOM     20  F   UNL     1     -14.887 -43.524  27.743  1.00  0.00    -0.207 F 
ENDBRANCH   9  13
BRANCH  11  21
ATOM     21  C   UNL     1     -20.443 -41.405  21.936  1.00  0.00     0.026 A 
ATOM     22  C   UNL     1     -20.918 -42.737  21.888  1.00  0.00     0.056 A 
ATOM     23  C   UNL     1     -20.707 -40.570  20.838  1.00  0.00     0.124 A 
ATOM     24  C   UNL     1     -21.620 -43.220  20.781  1.00  0.00     0.119 A 
ATOM     25  C   UNL     1     -21.431 -41.043  19.740  1.00  0.00     0.050 A 
ATOM     26  C   UNL     1     -21.874 -42.364  19.710  1.00  0.00     0.050 A 
BRANCH  23  27
ATOM     27  O   UNL     1     -20.332 -39.253  20.870  1.00  0.00    -0.496 OA
ATOM     28  C   UNL     1     -20.569 -38.617  19.613  1.00  0.00     0.278 C 
ENDBRANCH  23  27
BRANCH  24  29
ATOM     29  O   UNL     1     -22.113 -44.486  20.629  1.00  0.00    -0.497 OA
ATOM     30  C   UNL     1     -22.535 -44.866  19.326  1.00  0.00     0.278 C 
ENDBRANCH  24  29
ENDBRANCH  11  21
ENDBRANCH   1   7
BRANCH   4  31
ATOM     31  S   UNL     1     -24.827 -39.078  27.467  1.00  0.00     0.238 S 
ATOM     32  O   UNL     1     -25.591 -40.144  28.067  1.00  0.00    -0.207 OA
ATOM     33  O   UNL     1     -24.340 -37.947  28.224  1.00  0.00    -0.207 OA
BRANCH  31  34
ATOM     34  N   UNL     1     -25.744 -38.426  26.213  1.00  0.00    -0.225 NA
ATOM     35  H   UNL     1     -26.699 -38.204  26.488  1.00  0.00     0.137 HD
ATOM     36  H   UNL     1     -25.715 -39.069  25.418  1.00  0.00     0.137 HD
ENDBRANCH  31  34
ENDBRANCH   4  31
TORSDOF 7
ENDMDL
MODEL 4
REMARK VINA RESULT:    -8.926      3.114      5.836
REMARK INTER + INTRA:         -13.677
REMARK INTER:                 -12.345
REMARK INTRA:                  -1.332
REMARK UNBOUND:                -1.359
REMARK SMILES COc1ccc(OC)c([C@@H]2C=C(c3cc(F)cc(F)c3)NN2c2ccc(S(N)(=O)=O)cc2)c1
REMARK SMILES IDX 23 1 24 2 25 3 26 4 31 5 32 6 22 7 21 8 12 9 11 10 10 11
REMARK SMILES IDX 13 13 14 14 20 15 15 16 18 17 17 18 16 19 19 20 9 21 33 22
REMARK SMILES IDX 6 23 3 24 5 25 4 26 7 27 8 28 2 29 1 30 27 31 29 32 30 33
REMARK SMILES IDX 28 34
REMARK H PARENT 21 12 28 35 28 36
ROOT
ATOM      1  C   UNL     1     -19.062 -41.969  26.035  1.00  0.00     0.058 A 
ATOM      2  C   UNL     1     -18.478 -42.082  27.312  1.00  0.00     0.029 A 
ATOM      3  C   UNL     1     -17.162 -42.523  27.490  1.00  0.00     0.024 A 
ATOM      4  C   UNL     1     -16.402 -42.863  26.374  1.00  0.00     0.082 A 
ATOM      5  C   UNL     1     -16.936 -42.739  25.094  1.00  0.00     0.024 A 
ATOM      6  C   UNL     1     -18.254 -42.294  24.933  1.00  0.00     0.029 A 
ENDROOT
BRANCH   1   7
ATOM      7  N   UNL     1     -20.379 -41.501  25.899  1.00  0.00    -0.276 N 
ATOM      8  N   UNL     1     -21.074 -40.900  26.948  1.00  0.00    -0.297 N 
ATOM      9  C   UNL     1     -22.443 -41.042  26.764  1.00  0.00     0.060 C 
ATOM     10  C   UNL     1     -22.686 -41.801  25.684  1.00  0.00     0.033 C 
ATOM     11  C   UNL     1     -21.377 -42.189  25.021  1.00  0.00     0.165 C 
ATOM     12  H   UNL     1     -20.826 -39.920  27.105  1.00  0.00     0.188 HD
BRANCH   9  13
ATOM     13  C   UNL     1     -23.413 -40.397  27.651  1.00  0.00     0.005 A 
ATOM     14  C   UNL     1     -23.485 -39.001  27.757  1.00  0.00     0.049 A 
ATOM     15  C   UNL     1     -24.281 -41.171  28.433  1.00  0.00     0.049 A 
ATOM     16  C   UNL     1     -24.408 -38.410  28.617  1.00  0.00     0.126 A 
ATOM     17  C   UNL     1     -25.197 -40.557  29.285  1.00  0.00     0.126 A 
ATOM     18  C   UNL     1     -25.269 -39.176  29.386  1.00  0.00     0.078 A 
ATOM     19  F   UNL     1     -24.461 -37.073  28.704  1.00  0.00    -0.207 F 
ATOM     20  F   UNL     1     -26.020 -41.316  30.021  1.00  0.00    -0.207 F 
ENDBRANCH   9  13
BRANCH  11  21
ATOM     21  C   UNL     1     -21.326 -41.779  23.559  1.00  0.00     0.026 A 
ATOM     22  C   UNL     1     -20.961 -40.447  23.254  1.00  0.00     0.056 A 
ATOM     23  C   UNL     1     -21.592 -42.651  22.491  1.00  0.00     0.124 A 
ATOM     24  C   UNL     1     -20.875 -39.999  21.933  1.00  0.00     0.119 A 
ATOM     25  C   UNL     1     -21.483 -42.213  21.168  1.00  0.00     0.050 A 
ATOM     26  C   UNL     1     -21.137 -40.891  20.895  1.00  0.00     0.050 A 
BRANCH  23  27
ATOM     27  O   UNL     1     -21.877 -43.969  22.735  1.00  0.00    -0.496 OA
ATOM     28  C   UNL     1     -23.258 -44.251  22.501  1.00  0.00     0.278 C 
ENDBRANCH  23  27
BRANCH  24  29
ATOM     29  O   UNL     1     -20.542 -38.736  21.530  1.00  0.00    -0.497 OA
ATOM     30  C   UNL     1     -20.890 -38.365  20.203  1.00  0.00     0.278 C 
ENDBRANCH  24  29
ENDBRANCH  11  21
ENDBRANCH   1   7
BRANCH   4  31
ATOM     31  S   UNL     1     -14.732 -43.419  26.579  1.00  0.00     0.238 S 
ATOM     32  O   UNL     1     -14.498 -44.515  25.670  1.00  0.00    -0.207 OA
ATOM     33  O   UNL     1     -13.866 -42.264  26.645  1.00  0.00    -0.207 OA
BRANCH  31  34
ATOM     34  N   UNL     1     -14.778 -44.045  28.142  1.00  0.00    -0.225 NA
ATOM     35  H   UNL     1     -14.023 -44.701  28.334  1.00  0.00     0.137 HD
ATOM     36  H   UNL     1     -15.697 -44.464  28.300  1.00  0.00     0.137 HD
ENDBRANCH  31  34
ENDBRANCH   4  31
TORSDOF 7
ENDMDL
MODEL 5
REMARK VINA RESULT:    -8.548      2.043      3.253
REMARK INTER + INTRA:         -13.155
REMARK INTER:                 -12.006
REMARK INTRA:                  -1.149
REMARK UNBOUND:                -1.359
REMARK SMILES COc1ccc(OC)c([C@@H]2C=C(c3cc(F)cc(F)c3)NN2c2ccc(S(N)(=O)=O)cc2)c1
REMARK SMILES IDX 23 1 24 2 25 3 26 4 31 5 32 6 22 7 21 8 12 9 11 10 10 11
REMARK SMILES IDX 13 13 14 14 20 15 15 16 18 17 17 18 16 19 19 20 9 21 33 22
REMARK SMILES IDX 6 23 3 24 5 25 4 26 7 27 8 28 2 29 1 30 27 31 29 32 30 33
REMARK SMILES IDX 28 34
REMARK H PARENT 21 12 28 35 28 36
ROOT
ATOM      1  C   UNL     1     -18.603 -41.916  23.735  1.00  0.00     0.058 A 
ATOM      2  C   UNL     1     -17.484 -41.955  22.880  1.00  0.00     0.029 A 
ATOM      3  C   UNL     1     -16.223 -42.367  23.325  1.00  0.00     0.024 A 
ATOM      4  C   UNL     1     -16.062 -42.750  24.653  1.00  0.00     0.082 A 
ATOM      5  C   UNL     1     -17.151 -42.750  25.523  1.00  0.00     0.024 A 
ATOM      6  C   UNL     1     -18.406 -42.337  25.061  1.00  0.00     0.029 A 
ENDROOT
BRANCH   1   7
ATOM      7  N   UNL     1     -19.856 -41.517  23.242  1.00  0.00    -0.276 N 
ATOM      8  N   UNL     1     -20.066 -41.192  21.903  1.00  0.00    -0.297 N 
ATOM      9  C   UNL     1     -21.150 -40.332  21.780  1.00  0.00     0.060 C 
ATOM     10  C   UNL     1     -21.609 -39.994  22.995  1.00  0.00     0.033 C 
ATOM     11  C   UNL     1     -20.811 -40.712  24.067  1.00  0.00     0.165 C 
ATOM     12  H   UNL     1     -20.171 -42.002  21.288  1.00  0.00     0.188 HD
BRANCH   9  13
ATOM     13  C   UNL     1     -21.673 -39.929  20.473  1.00  0.00     0.005 A 
ATOM     14  C   UNL     1     -21.337 -38.691  19.907  1.00  0.00     0.049 A 
ATOM     15  C   UNL     1     -22.542 -40.772  19.768  1.00  0.00     0.049 A 
ATOM     16  C   UNL     1     -21.857 -38.324  18.667  1.00  0.00     0.126 A 
ATOM     17  C   UNL     1     -23.049 -40.383  18.529  1.00  0.00     0.126 A 
ATOM     18  C   UNL     1     -22.713 -39.161  17.968  1.00  0.00     0.078 A 
ATOM     19  F   UNL     1     -21.525 -37.136  18.142  1.00  0.00    -0.207 F 
ATOM     20  F   UNL     1     -23.875 -41.206  17.870  1.00  0.00    -0.207 F 
ENDBRANCH   9  13
BRANCH  11  21
ATOM     21  C   UNL     1     -21.694 -41.530  24.995  1.00  0.00     0.026 A 
ATOM     22  C   UNL     1     -22.181 -40.908  26.168  1.00  0.00     0.056 A 
ATOM     23  C   UNL     1     -22.077 -42.857  24.743  1.00  0.00     0.124 A 
ATOM     24  C   UNL     1     -23.011 -41.589  27.062  1.00  0.00     0.119 A 
ATOM     25  C   UNL     1     -22.927 -43.533  25.623  1.00  0.00     0.050 A 
ATOM     26  C   UNL     1     -23.381 -42.903  26.780  1.00  0.00     0.050 A 
BRANCH  23  27
ATOM     27  O   UNL     1     -21.690 -43.476  23.584  1.00  0.00    -0.496 OA
ATOM     28  C   UNL     1     -22.788 -43.615  22.681  1.00  0.00     0.278 C 
ENDBRANCH  23  27
BRANCH  24  29
ATOM     29  O   UNL     1     -23.529 -41.088  28.224  1.00  0.00    -0.497 OA
ATOM     30  C   UNL     1     -23.911 -39.719  28.227  1.00  0.00     0.278 C 
ENDBRANCH  24  29
ENDBRANCH  11  21
ENDBRANCH   1   7
BRANCH   4  31
ATOM     31  S   UNL     1     -14.475 -43.279  25.235  1.00  0.00     0.238 S 
ATOM     32  O   UNL     1     -14.556 -44.676  25.587  1.00  0.00    -0.207 OA
ATOM     33  O   UNL     1     -13.462 -42.758  24.346  1.00  0.00    -0.207 OA
BRANCH  31  34
ATOM     34  N   UNL     1     -14.329 -42.394  26.660  1.00  0.00    -0.225 NA
ATOM     35  H   UNL     1     -14.164 -41.401  26.501  1.00  0.00     0.137 HD
ATOM     36  H   UNL     1     -13.595 -42.815  27.234  1.00  0.00     0.137 HD
ENDBRANCH  31  34
ENDBRANCH   4  31
TORSDOF 7
ENDMDL
MODEL 6
REMARK VINA RESULT:    -8.415      4.657      7.823
REMARK INTER + INTRA:         -12.972
REMARK INTER:                 -11.604
REMARK INTRA:                  -1.368
REMARK UNBOUND:                -1.359
REMARK SMILES COc1ccc(OC)c([C@@H]2C=C(c3cc(F)cc(F)c3)NN2c2ccc(S(N)(=O)=O)cc2)c1
REMARK SMILES IDX 23 1 24 2 25 3 26 4 31 5 32 6 22 7 21 8 12 9 11 10 10 11
REMARK SMILES IDX 13 13 14 14 20 15 15 16 18 17 17 18 16 19 19 20 9 21 33 22
REMARK SMILES IDX 6 23 3 24 5 25 4 26 7 27 8 28 2 29 1 30 27 31 29 32 30 33
REMARK SMILES IDX 28 34
REMARK H PARENT 21 12 28 35 28 36
ROOT
ATOM      1  C   UNL     1     -21.012 -40.514  22.593  1.00  0.00     0.058 A 
ATOM      2  C   UNL     1     -20.297 -39.432  22.044  1.00  0.00     0.029 A 
ATOM      3  C   UNL     1     -20.806 -38.664  20.990  1.00  0.00     0.024 A 
ATOM      4  C   UNL     1     -22.056 -38.975  20.463  1.00  0.00     0.082 A 
ATOM      5  C   UNL     1     -22.804 -40.022  20.997  1.00  0.00     0.024 A 
ATOM      6  C   UNL     1     -22.282 -40.779  22.053  1.00  0.00     0.029 A 
ENDROOT
BRANCH   1   7
ATOM      7  N   UNL     1     -20.475 -41.246  23.664  1.00  0.00    -0.276 N 
ATOM      8  N   UNL     1     -19.118 -41.215  23.988  1.00  0.00    -0.297 N 
ATOM      9  C   UNL     1     -18.756 -42.376  24.658  1.00  0.00     0.060 C 
ATOM     10  C   UNL     1     -19.797 -43.223  24.707  1.00  0.00     0.033 C 
ATOM     11  C   UNL     1     -21.011 -42.587  24.056  1.00  0.00     0.165 C 
ATOM     12  H   UNL     1     -18.834 -40.386  24.514  1.00  0.00     0.188 HD
BRANCH   9  13
ATOM     13  C   UNL     1     -17.420 -42.556  25.226  1.00  0.00     0.005 A 
ATOM     14  C   UNL     1     -17.239 -42.807  26.594  1.00  0.00     0.049 A 
ATOM     15  C   UNL     1     -16.285 -42.456  24.410  1.00  0.00     0.049 A 
ATOM     16  C   UNL     1     -15.955 -42.962  27.114  1.00  0.00     0.126 A 
ATOM     17  C   UNL     1     -15.011 -42.616  24.954  1.00  0.00     0.126 A 
ATOM     18  C   UNL     1     -14.834 -42.869  26.305  1.00  0.00     0.078 A 
ATOM     19  F   UNL     1     -15.803 -43.202  28.424  1.00  0.00    -0.207 F 
ATOM     20  F   UNL     1     -13.940 -42.521  24.155  1.00  0.00    -0.207 F 
ENDBRANCH   9  13
BRANCH  11  21
ATOM     21  C   UNL     1     -22.211 -42.543  24.988  1.00  0.00     0.026 A 
ATOM     22  C   UNL     1     -22.183 -41.626  26.065  1.00  0.00     0.056 A 
ATOM     23  C   UNL     1     -23.356 -43.340  24.828  1.00  0.00     0.124 A 
ATOM     24  C   UNL     1     -23.255 -41.517  26.955  1.00  0.00     0.119 A 
ATOM     25  C   UNL     1     -24.439 -43.214  25.702  1.00  0.00     0.050 A 
ATOM     26  C   UNL     1     -24.381 -42.315  26.765  1.00  0.00     0.050 A 
BRANCH  23  27
ATOM     27  O   UNL     1     -23.459 -44.189  23.757  1.00  0.00    -0.496 OA
ATOM     28  C   UNL     1     -24.609 -45.028  23.872  1.00  0.00     0.278 C 
ENDBRANCH  23  27
BRANCH  24  29
ATOM     29  O   UNL     1     -23.328 -40.674  28.029  1.00  0.00    -0.497 OA
ATOM     30  C   UNL     1     -23.656 -39.316  27.768  1.00  0.00     0.278 C 
ENDBRANCH  24  29
ENDBRANCH  11  21
ENDBRANCH   1   7
BRANCH   4  31
ATOM     31  S   UNL     1     -22.719 -38.013  19.132  1.00  0.00     0.238 S 
ATOM     32  O   UNL     1     -22.155 -38.491  17.893  1.00  0.00    -0.207 OA
ATOM     33  O   UNL     1     -24.142 -37.866  19.333  1.00  0.00    -0.207 OA
BRANCH  31  34
ATOM     34  N   UNL     1     -22.055 -36.498  19.452  1.00  0.00    -0.225 NA
ATOM     35  H   UNL     1     -21.639 -36.430  20.380  1.00  0.00     0.137 HD
ATOM     36  H   UNL     1     -22.775 -35.787  19.304  1.00  0.00     0.137 HD
ENDBRANCH  31  34
ENDBRANCH   4  31
TORSDOF 7
ENDMDL
MODEL 7
REMARK VINA RESULT:    -8.391      3.063      5.224
REMARK INTER + INTRA:         -12.938
REMARK INTER:                 -11.704
REMARK INTRA:                  -1.235
REMARK UNBOUND:                -1.359
REMARK SMILES COc1ccc(OC)c([C@@H]2C=C(c3cc(F)cc(F)c3)NN2c2ccc(S(N)(=O)=O)cc2)c1
REMARK SMILES IDX 23 1 24 2 25 3 26 4 31 5 32 6 22 7 21 8 12 9 11 10 10 11
REMARK SMILES IDX 13 13 14 14 20 15 15 16 18 17 17 18 16 19 19 20 9 21 33 22
REMARK SMILES IDX 6 23 3 24 5 25 4 26 7 27 8 28 2 29 1 30 27 31 29 32 30 33
REMARK SMILES IDX 28 34
REMARK H PARENT 21 12 28 35 28 36
ROOT
ATOM      1  C   UNL     1     -19.266 -42.142  26.222  1.00  0.00     0.058 A 
ATOM      2  C   UNL     1     -18.678 -42.211  27.500  1.00  0.00     0.029 A 
ATOM      3  C   UNL     1     -17.332 -42.550  27.680  1.00  0.00     0.024 A 
ATOM      4  C   UNL     1     -16.545 -42.829  26.565  1.00  0.00     0.082 A 
ATOM      5  C   UNL     1     -17.086 -42.745  25.284  1.00  0.00     0.024 A 
ATOM      6  C   UNL     1     -18.433 -42.403  25.121  1.00  0.00     0.029 A 
ENDROOT
BRANCH   1   7
ATOM      7  N   UNL     1     -20.615 -41.777  26.084  1.00  0.00    -0.276 N 
ATOM      8  N   UNL     1     -21.231 -40.848  26.924  1.00  0.00    -0.297 N 
ATOM      9  C   UNL     1     -22.601 -41.070  26.965  1.00  0.00     0.060 C 
ATOM     10  C   UNL     1     -22.910 -42.172  26.262  1.00  0.00     0.033 C 
ATOM     11  C   UNL     1     -21.657 -42.751  25.633  1.00  0.00     0.165 C 
ATOM     12  H   UNL     1     -21.025 -39.874  26.690  1.00  0.00     0.188 HD
BRANCH   9  13
ATOM     13  C   UNL     1     -23.510 -40.165  27.670  1.00  0.00     0.005 A 
ATOM     14  C   UNL     1     -24.333 -40.625  28.708  1.00  0.00     0.049 A 
ATOM     15  C   UNL     1     -23.589 -38.815  27.303  1.00  0.00     0.049 A 
ATOM     16  C   UNL     1     -25.200 -39.746  29.356  1.00  0.00     0.126 A 
ATOM     17  C   UNL     1     -24.463 -37.955  27.967  1.00  0.00     0.126 A 
ATOM     18  C   UNL     1     -25.274 -38.410  28.995  1.00  0.00     0.078 A 
ATOM     19  F   UNL     1     -25.979 -40.205  30.345  1.00  0.00    -0.207 F 
ATOM     20  F   UNL     1     -24.520 -36.667  27.603  1.00  0.00    -0.207 F 
ENDBRANCH   9  13
BRANCH  11  21
ATOM     21  C   UNL     1     -21.781 -42.896  24.125  1.00  0.00     0.026 A 
ATOM     22  C   UNL     1     -22.114 -44.168  23.604  1.00  0.00     0.056 A 
ATOM     23  C   UNL     1     -21.612 -41.835  23.221  1.00  0.00     0.124 A 
ATOM     24  C   UNL     1     -22.262 -44.376  22.231  1.00  0.00     0.119 A 
ATOM     25  C   UNL     1     -21.784 -42.035  21.848  1.00  0.00     0.050 A 
ATOM     26  C   UNL     1     -22.096 -43.302  21.358  1.00  0.00     0.050 A 
BRANCH  23  27
ATOM     27  O   UNL     1     -21.363 -40.570  23.683  1.00  0.00    -0.496 OA
ATOM     28  C   UNL     1     -20.672 -39.790  22.707  1.00  0.00     0.278 C 
ENDBRANCH  23  27
BRANCH  24  29
ATOM     29  O   UNL     1     -22.572 -45.561  21.623  1.00  0.00    -0.497 OA
ATOM     30  C   UNL     1     -22.840 -46.673  22.467  1.00  0.00     0.278 C 
ENDBRANCH  24  29
ENDBRANCH  11  21
ENDBRANCH   1   7
BRANCH   4  31
ATOM     31  S   UNL     1     -14.839 -43.256  26.773  1.00  0.00     0.238 S 
ATOM     32  O   UNL     1     -14.038 -42.081  26.530  1.00  0.00    -0.207 OA
ATOM     33  O   UNL     1     -14.706 -44.055  27.969  1.00  0.00    -0.207 OA
BRANCH  31  34
ATOM     34  N   UNL     1     -14.602 -44.318  25.487  1.00  0.00    -0.225 NA
ATOM     35  H   UNL     1     -14.657 -43.864  24.576  1.00  0.00     0.137 HD
ATOM     36  H   UNL     1     -15.270 -45.087  25.570  1.00  0.00     0.137 HD
ENDBRANCH  31  34
ENDBRANCH   4  31
TORSDOF 7
ENDMDL
MODEL 8
REMARK VINA RESULT:    -8.332      4.754      7.553
REMARK INTER + INTRA:         -12.857
REMARK INTER:                 -11.419
REMARK INTRA:                  -1.439
REMARK UNBOUND:                -1.359
REMARK SMILES COc1ccc(OC)c([C@@H]2C=C(c3cc(F)cc(F)c3)NN2c2ccc(S(N)(=O)=O)cc2)c1
REMARK SMILES IDX 23 1 24 2 25 3 26 4 31 5 32 6 22 7 21 8 12 9 11 10 10 11
REMARK SMILES IDX 13 13 14 14 20 15 15 16 18 17 17 18 16 19 19 20 9 21 33 22
REMARK SMILES IDX 6 23 3 24 5 25 4 26 7 27 8 28 2 29 1 30 27 31 29 32 30 33
REMARK SMILES IDX 28 34
REMARK H PARENT 21 12 28 35 28 36
ROOT
ATOM      1  C   UNL     1     -22.654 -43.666  27.100  1.00  0.00     0.058 A 
ATOM      2  C   UNL     1     -22.339 -44.486  28.201  1.00  0.00     0.029 A 
ATOM      3  C   UNL     1     -23.294 -45.304  28.815  1.00  0.00     0.024 A 
ATOM      4  C   UNL     1     -24.598 -45.312  28.327  1.00  0.00     0.082 A 
ATOM      5  C   UNL     1     -24.941 -44.534  27.224  1.00  0.00     0.024 A 
ATOM      6  C   UNL     1     -23.973 -43.722  26.620  1.00  0.00     0.029 A 
ENDROOT
BRANCH   1   7
ATOM      7  N   UNL     1     -21.660 -42.876  26.500  1.00  0.00    -0.276 N 
ATOM      8  N   UNL     1     -20.380 -43.358  26.230  1.00  0.00    -0.297 N 
ATOM      9  C   UNL     1     -19.470 -42.310  26.181  1.00  0.00     0.060 C 
ATOM     10  C   UNL     1     -20.078 -41.158  26.505  1.00  0.00     0.033 C 
ATOM     11  C   UNL     1     -21.553 -41.406  26.761  1.00  0.00     0.165 C 
ATOM     12  H   UNL     1     -20.321 -43.933  25.387  1.00  0.00     0.188 HD
BRANCH   9  13
ATOM     13  C   UNL     1     -18.075 -42.516  25.790  1.00  0.00     0.005 A 
ATOM     14  C   UNL     1     -17.070 -42.697  26.751  1.00  0.00     0.049 A 
ATOM     15  C   UNL     1     -17.712 -42.513  24.436  1.00  0.00     0.049 A 
ATOM     16  C   UNL     1     -15.746 -42.878  26.355  1.00  0.00     0.126 A 
ATOM     17  C   UNL     1     -16.381 -42.698  24.065  1.00  0.00     0.126 A 
ATOM     18  C   UNL     1     -15.389 -42.881  25.015  1.00  0.00     0.078 A 
ATOM     19  F   UNL     1     -14.800 -43.049  27.288  1.00  0.00    -0.207 F 
ATOM     20  F   UNL     1     -16.056 -42.697  22.765  1.00  0.00    -0.207 F 
ENDBRANCH   9  13
BRANCH  11  21
ATOM     21  C   UNL     1     -22.445 -40.539  25.887  1.00  0.00     0.026 A 
ATOM     22  C   UNL     1     -22.218 -40.548  24.491  1.00  0.00     0.056 A 
ATOM     23  C   UNL     1     -23.497 -39.752  26.381  1.00  0.00     0.124 A 
ATOM     24  C   UNL     1     -23.007 -39.790  23.622  1.00  0.00     0.119 A 
ATOM     25  C   UNL     1     -24.304 -39.013  25.512  1.00  0.00     0.050 A 
ATOM     26  C   UNL     1     -24.050 -39.025  24.141  1.00  0.00     0.050 A 
BRANCH  23  27
ATOM     27  O   UNL     1     -23.801 -39.770  27.717  1.00  0.00    -0.496 OA
ATOM     28  C   UNL     1     -23.951 -38.445  28.230  1.00  0.00     0.278 C 
ENDBRANCH  23  27
BRANCH  24  29
ATOM     29  O   UNL     1     -22.870 -39.719  22.263  1.00  0.00    -0.497 OA
ATOM     30  C   UNL     1     -23.752 -38.850  21.566  1.00  0.00     0.278 C 
ENDBRANCH  24  29
ENDBRANCH  11  21
ENDBRANCH   1   7
BRANCH   4  31
ATOM     31  S   UNL     1     -25.821 -46.344  29.088  1.00  0.00     0.238 S 
ATOM     32  O   UNL     1     -27.095 -46.086  28.461  1.00  0.00    -0.207 OA
ATOM     33  O   UNL     1     -25.278 -47.676  29.227  1.00  0.00    -0.207 OA
BRANCH  31  34
ATOM     34  N   UNL     1     -25.872 -45.708  30.647  1.00  0.00    -0.225 NA
ATOM     35  H   UNL     1     -26.241 -44.759  30.680  1.00  0.00     0.137 HD
ATOM     36  H   UNL     1     -24.937 -45.768  31.056  1.00  0.00     0.137 HD
ENDBRANCH  31  34
ENDBRANCH   4  31
TORSDOF 7
ENDMDL
MODEL 9
REMARK VINA RESULT:    -8.267      4.576      7.536
REMARK INTER + INTRA:         -12.767
REMARK INTER:                 -11.407
REMARK INTRA:                  -1.360
REMARK UNBOUND:                -1.359
REMARK SMILES COc1ccc(OC)c([C@@H]2C=C(c3cc(F)cc(F)c3)NN2c2ccc(S(N)(=O)=O)cc2)c1
REMARK SMILES IDX 23 1 24 2 25 3 26 4 31 5 32 6 22 7 21 8 12 9 11 10 10 11
REMARK SMILES IDX 13 13 14 14 20 15 15 16 18 17 17 18 16 19 19 20 9 21 33 22
REMARK SMILES IDX 6 23 3 24 5 25 4 26 7 27 8 28 2 29 1 30 27 31 29 32 30 33
REMARK SMILES IDX 28 34
REMARK H PARENT 21 12 28 35 28 36
ROOT
ATOM      1  C   UNL     1     -22.508 -44.037  26.800  1.00  0.00     0.058 A 
ATOM      2  C   UNL     1     -23.479 -44.592  25.945  1.00  0.00     0.029 A 
ATOM      3  C   UNL     1     -24.420 -45.524  26.396  1.00  0.00     0.024 A 
ATOM      4  C   UNL     1     -24.401 -45.919  27.732  1.00  0.00     0.082 A 
ATOM      5  C   UNL     1     -23.471 -45.371  28.613  1.00  0.00     0.024 A 
ATOM      6  C   UNL     1     -22.538 -44.439  28.145  1.00  0.00     0.029 A 
ENDROOT
BRANCH   1   7
ATOM      7  N   UNL     1     -21.595 -43.088  26.310  1.00  0.00    -0.276 N 
ATOM      8  N   UNL     1     -20.343 -43.442  25.808  1.00  0.00    -0.297 N 
ATOM      9  C   UNL     1     -19.460 -42.375  25.921  1.00  0.00     0.060 C 
ATOM     10  C   UNL     1     -20.048 -41.357  26.568  1.00  0.00     0.033 C 
ATOM     11  C   UNL     1     -21.484 -41.718  26.901  1.00  0.00     0.165 C 
ATOM     12  H   UNL     1     -20.363 -43.800  24.851  1.00  0.00     0.188 HD
BRANCH   9  13
ATOM     13  C   UNL     1     -18.110 -42.427  25.357  1.00  0.00     0.005 A 
ATOM     14  C   UNL     1     -17.004 -42.768  26.149  1.00  0.00     0.049 A 
ATOM     15  C   UNL     1     -17.894 -42.112  24.009  1.00  0.00     0.049 A 
ATOM     16  C   UNL     1     -15.727 -42.799  25.593  1.00  0.00     0.126 A 
ATOM     17  C   UNL     1     -16.606 -42.150  23.475  1.00  0.00     0.126 A 
ATOM     18  C   UNL     1     -15.515 -42.492  24.258  1.00  0.00     0.078 A 
ATOM     19  F   UNL     1     -14.682 -43.127  26.366  1.00  0.00    -0.207 F 
ATOM     20  F   UNL     1     -16.423 -41.850  22.183  1.00  0.00    -0.207 F 
ENDBRANCH   9  13
BRANCH  11  21
ATOM     21  C   UNL     1     -22.477 -40.707  26.350  1.00  0.00     0.026 A 
ATOM     22  C   UNL     1     -23.087 -39.812  27.259  1.00  0.00     0.056 A 
ATOM     23  C   UNL     1     -22.802 -40.591  24.989  1.00  0.00     0.124 A 
ATOM     24  C   UNL     1     -23.997 -38.844  26.826  1.00  0.00     0.119 A 
ATOM     25  C   UNL     1     -23.693 -39.608  24.550  1.00  0.00     0.050 A 
ATOM     26  C   UNL     1     -24.294 -38.748  25.468  1.00  0.00     0.050 A 
BRANCH  23  27
ATOM     27  O   UNL     1     -22.181 -41.387  24.063  1.00  0.00    -0.496 OA
ATOM     28  C   UNL     1     -23.131 -42.028  23.211  1.00  0.00     0.278 C 
ENDBRANCH  23  27
BRANCH  24  29
ATOM     29  O   UNL     1     -24.649 -37.939  27.617  1.00  0.00    -0.497 OA
ATOM     30  C   UNL     1     -24.186 -37.792  28.953  1.00  0.00     0.278 C 
ENDBRANCH  24  29
ENDBRANCH  11  21
ENDBRANCH   1   7
BRANCH   4  31
ATOM     31  S   UNL     1     -25.587 -47.094  28.324  1.00  0.00     0.238 S 
ATOM     32  O   UNL     1     -26.896 -46.695  27.867  1.00  0.00    -0.207 OA
ATOM     33  O   UNL     1     -25.061 -48.423  28.116  1.00  0.00    -0.207 OA
BRANCH  31  34
ATOM     34  N   UNL     1     -25.516 -46.831  29.986  1.00  0.00    -0.225 NA
ATOM     35  H   UNL     1     -26.265 -47.295  30.498  1.00  0.00     0.137 HD
ATOM     36  H   UNL     1     -25.506 -45.823  30.158  1.00  0.00     0.137 HD
ENDBRANCH  31  34
ENDBRANCH   4  31
TORSDOF 7
ENDMDL
