MODEL 1
REMARK VINA RESULT:   -10.088      0.000      0.000
REMARK INTER + INTRA:         -11.069
REMARK INTER:                 -10.973
REMARK INTRA:                  -0.097
REMARK UNBOUND:                -0.097
REMARK SMILES CCC1=C[C@H]2Cc3[nH]c4cc(Cl)ccc4c(=N)c3[C@@H](C1)C2
REMARK SMILES IDX 8 1 7 2 18 3 16 4 15 5 14 6 13 7 11 8 12 9 10 10 9 11 19 12
REMARK SMILES IDX 20 13 3 14 4 15 5 16 6 17 21 18 17 20 2 22 1 23
REMARK H PARENT 8 19 17 21
ROOT
ATOM      1  N   UNL     1     -15.104 -43.735  28.706  1.00  0.00    -0.358 N 
ATOM      2  C   UNL     1     -14.301 -44.468  29.552  1.00  0.00     0.021 A 
ATOM      3  C   UNL     1     -13.406 -45.378  29.111  1.00  0.00     0.000 A 
ATOM      4  C   UNL     1     -13.266 -45.596  27.632  1.00  0.00     0.068 A 
ATOM      5  C   UNL     1     -14.080 -44.724  26.726  1.00  0.00     0.023 A 
ATOM      6  C   UNL     1     -13.977 -44.795  25.329  1.00  0.00     0.014 A 
ATOM      7  C   UNL     1     -14.765 -43.968  24.523  1.00  0.00     0.021 A 
ATOM      8  C   UNL     1     -15.656 -43.073  25.109  1.00  0.00     0.043 A 
ATOM      9  Cl  UNL     1     -16.631 -42.064  24.114  1.00  0.00    -0.084 Cl
ATOM     10  C   UNL     1     -15.764 -42.990  26.496  1.00  0.00     0.047 A 
ATOM     11  C   UNL     1     -14.967 -43.801  27.314  1.00  0.00     0.049 A 
ATOM     12  C   UNL     1     -12.539 -46.210  30.043  1.00  0.00     0.028 C 
ATOM     13  C   UNL     1     -11.126 -45.595  30.175  1.00  0.00     0.039 C 
ATOM     14  C   UNL     1     -11.063 -44.403  31.116  1.00  0.00    -0.074 C 
ATOM     15  C   UNL     1     -12.107 -44.075  31.903  1.00  0.00    -0.024 C 
ATOM     16  C   UNL     1     -13.402 -44.861  31.930  1.00  0.00     0.018 C 
ATOM     17  C   UNL     1     -14.467 -44.188  31.040  1.00  0.00     0.062 C 
ATOM     18  C   UNL     1     -13.176 -46.293  31.437  1.00  0.00     0.017 C 
ATOM     19  H   UNL     1     -15.625 -42.964  29.103  1.00  0.00     0.166 HD
ENDROOT
BRANCH   4  20
ATOM     20  N   UNL     1     -12.452 -46.515  27.208  1.00  0.00    -0.300 NA
ATOM     21  H   UNL     1     -12.928 -47.304  26.775  1.00  0.00     0.188 HD
ENDBRANCH   4  20
BRANCH  14  22
ATOM     22  C   UNL     1      -9.773 -43.620  31.138  1.00  0.00     0.027 C 
ATOM     23  C   UNL     1      -8.957 -43.875  32.398  1.00  0.00     0.008 C 
ENDBRANCH  14  22
TORSDOF 2
ENDMDL
MODEL 2
REMARK VINA RESULT:    -9.452      4.530      8.486
REMARK INTER + INTRA:         -10.378
REMARK INTER:                 -10.251
REMARK INTRA:                  -0.126
REMARK UNBOUND:                -0.097
REMARK SMILES CCC1=C[C@H]2Cc3[nH]c4cc(Cl)ccc4c(=N)c3[C@@H](C1)C2
REMARK SMILES IDX 8 1 7 2 18 3 16 4 15 5 14 6 13 7 11 8 12 9 10 10 9 11 19 12
REMARK SMILES IDX 20 13 3 14 4 15 5 16 6 17 21 18 17 20 2 22 1 23
REMARK H PARENT 8 19 17 21
ROOT
ATOM      1  N   UNL     1     -17.609 -42.297  26.869  1.00  0.00    -0.358 N 
ATOM      2  C   UNL     1     -18.785 -42.030  26.203  1.00  0.00     0.021 A 
ATOM      3  C   UNL     1     -18.920 -42.162  24.866  1.00  0.00     0.000 A 
ATOM      4  C   UNL     1     -17.740 -42.633  24.064  1.00  0.00     0.068 A 
ATOM      5  C   UNL     1     -16.500 -43.006  24.817  1.00  0.00     0.023 A 
ATOM      6  C   UNL     1     -15.364 -43.523  24.176  1.00  0.00     0.014 A 
ATOM      7  C   UNL     1     -14.225 -43.848  24.918  1.00  0.00     0.021 A 
ATOM      8  C   UNL     1     -14.218 -43.657  26.297  1.00  0.00     0.043 A 
ATOM      9  Cl  UNL     1     -12.811 -44.049  27.206  1.00  0.00    -0.084 Cl
ATOM     10  C   UNL     1     -15.342 -43.148  26.946  1.00  0.00     0.047 A 
ATOM     11  C   UNL     1     -16.495 -42.836  26.215  1.00  0.00     0.049 A 
ATOM     12  C   UNL     1     -20.207 -41.839  24.124  1.00  0.00     0.028 C 
ATOM     13  C   UNL     1     -21.019 -43.127  23.848  1.00  0.00     0.039 C 
ATOM     14  C   UNL     1     -21.795 -43.631  25.056  1.00  0.00    -0.074 C 
ATOM     15  C   UNL     1     -21.909 -42.889  26.175  1.00  0.00    -0.024 C 
ATOM     16  C   UNL     1     -21.302 -41.508  26.319  1.00  0.00     0.018 C 
ATOM     17  C   UNL     1     -19.956 -41.580  27.068  1.00  0.00     0.062 C 
ATOM     18  C   UNL     1     -21.072 -40.873  24.944  1.00  0.00     0.017 C 
ATOM     19  H   UNL     1     -17.639 -42.331  27.880  1.00  0.00     0.166 HD
ENDROOT
BRANCH   4  20
ATOM     20  N   UNL     1     -17.847 -42.699  22.772  1.00  0.00    -0.300 NA
ATOM     21  H   UNL     1     -16.981 -42.971  22.311  1.00  0.00     0.188 HD
ENDBRANCH   4  20
BRANCH  14  22
ATOM     22  C   UNL     1     -22.441 -44.989  24.931  1.00  0.00     0.027 C 
ATOM     23  C   UNL     1     -21.485 -46.123  25.276  1.00  0.00     0.008 C 
ENDBRANCH  14  22
TORSDOF 2
ENDMDL
MODEL 3
REMARK VINA RESULT:    -9.396      3.488      6.867
REMARK INTER + INTRA:         -10.316
REMARK INTER:                 -10.218
REMARK INTRA:                  -0.099
REMARK UNBOUND:                -0.097
REMARK SMILES CCC1=C[C@H]2Cc3[nH]c4cc(Cl)ccc4c(=N)c3[C@@H](C1)C2
REMARK SMILES IDX 8 1 7 2 18 3 16 4 15 5 14 6 13 7 11 8 12 9 10 10 9 11 19 12
REMARK SMILES IDX 20 13 3 14 4 15 5 16 6 17 21 18 17 20 2 22 1 23
REMARK H PARENT 8 19 17 21
ROOT
ATOM      1  N   UNL     1      -9.657 -45.289  30.140  1.00  0.00    -0.358 N 
ATOM      2  C   UNL     1     -10.905 -45.592  29.641  1.00  0.00     0.021 A 
ATOM      3  C   UNL     1     -12.051 -45.193  30.234  1.00  0.00     0.000 A 
ATOM      4  C   UNL     1     -11.967 -44.370  31.488  1.00  0.00     0.068 A 
ATOM      5  C   UNL     1     -10.603 -43.973  31.962  1.00  0.00     0.023 A 
ATOM      6  C   UNL     1     -10.410 -43.148  33.080  1.00  0.00     0.014 A 
ATOM      7  C   UNL     1      -9.118 -42.811  33.492  1.00  0.00     0.021 A 
ATOM      8  C   UNL     1      -8.018 -43.298  32.791  1.00  0.00     0.043 A 
ATOM      9  Cl  UNL     1      -6.428 -42.890  33.307  1.00  0.00    -0.084 Cl
ATOM     10  C   UNL     1      -8.195 -44.114  31.675  1.00  0.00     0.047 A 
ATOM     11  C   UNL     1      -9.487 -44.444  31.243  1.00  0.00     0.049 A 
ATOM     12  C   UNL     1     -13.430 -45.551  29.704  1.00  0.00     0.028 C 
ATOM     13  C   UNL     1     -14.019 -44.386  28.874  1.00  0.00     0.039 C 
ATOM     14  C   UNL     1     -13.456 -44.295  27.464  1.00  0.00    -0.074 C 
ATOM     15  C   UNL     1     -12.683 -45.274  26.952  1.00  0.00    -0.024 C 
ATOM     16  C   UNL     1     -12.329 -46.533  27.716  1.00  0.00     0.018 C 
ATOM     17  C   UNL     1     -10.931 -46.408  28.355  1.00  0.00     0.062 C 
ATOM     18  C   UNL     1     -13.357 -46.803  28.819  1.00  0.00     0.017 C 
ATOM     19  H   UNL     1      -8.856 -45.484  29.552  1.00  0.00     0.166 HD
ENDROOT
BRANCH   4  20
ATOM     20  N   UNL     1     -13.066 -44.039  32.095  1.00  0.00    -0.300 NA
ATOM     21  H   UNL     1     -13.843 -44.661  31.887  1.00  0.00     0.188 HD
ENDBRANCH   4  20
BRANCH  14  22
ATOM     22  C   UNL     1     -13.820 -43.068  26.664  1.00  0.00     0.027 C 
ATOM     23  C   UNL     1     -15.325 -42.891  26.519  1.00  0.00     0.008 C 
ENDBRANCH  14  22
TORSDOF 2
ENDMDL
MODEL 4
REMARK VINA RESULT:    -9.267      4.193      5.966
REMARK INTER + INTRA:         -10.176
REMARK INTER:                 -10.045
REMARK INTRA:                  -0.131
REMARK UNBOUND:                -0.097
REMARK SMILES CCC1=C[C@H]2Cc3[nH]c4cc(Cl)ccc4c(=N)c3[C@@H](C1)C2
REMARK SMILES IDX 8 1 7 2 18 3 16 4 15 5 14 6 13 7 11 8 12 9 10 10 9 11 19 12
REMARK SMILES IDX 20 13 3 14 4 15 5 16 6 17 21 18 17 20 2 22 1 23
REMARK H PARENT 8 19 17 21
ROOT
ATOM      1  N   UNL     1     -11.047 -43.003  33.325  1.00  0.00    -0.358 N 
ATOM      2  C   UNL     1     -10.392 -43.782  32.396  1.00  0.00     0.021 A 
ATOM      3  C   UNL     1     -11.034 -44.461  31.422  1.00  0.00     0.000 A 
ATOM      4  C   UNL     1     -12.530 -44.357  31.333  1.00  0.00     0.068 A 
ATOM      5  C   UNL     1     -13.214 -43.432  32.293  1.00  0.00     0.023 A 
ATOM      6  C   UNL     1     -14.598 -43.205  32.254  1.00  0.00     0.014 A 
ATOM      7  C   UNL     1     -15.195 -42.342  33.177  1.00  0.00     0.021 A 
ATOM      8  C   UNL     1     -14.414 -41.706  34.139  1.00  0.00     0.043 A 
ATOM      9  Cl  UNL     1     -15.154 -40.652  35.278  1.00  0.00    -0.084 Cl
ATOM     10  C   UNL     1     -13.037 -41.920  34.184  1.00  0.00     0.047 A 
ATOM     11  C   UNL     1     -12.426 -42.769  33.253  1.00  0.00     0.049 A 
ATOM     12  C   UNL     1     -10.317 -45.345  30.414  1.00  0.00     0.028 C 
ATOM     13  C   UNL     1     -10.098 -44.592  29.080  1.00  0.00     0.039 C 
ATOM     14  C   UNL     1      -8.932 -43.616  29.113  1.00  0.00    -0.074 C 
ATOM     15  C   UNL     1      -8.068 -43.591  30.147  1.00  0.00    -0.024 C 
ATOM     16  C   UNL     1      -8.170 -44.527  31.334  1.00  0.00     0.018 C 
ATOM     17  C   UNL     1      -8.875 -43.832  32.517  1.00  0.00     0.062 C 
ATOM     18  C   UNL     1      -8.955 -45.789  30.962  1.00  0.00     0.017 C 
ATOM     19  H   UNL     1     -10.485 -42.402  33.914  1.00  0.00     0.166 HD
ENDROOT
BRANCH   4  20
ATOM     20  N   UNL     1     -13.156 -45.058  30.438  1.00  0.00    -0.300 NA
ATOM     21  H   UNL     1     -13.934 -44.561  30.009  1.00  0.00     0.188 HD
ENDBRANCH   4  20
BRANCH  14  22
ATOM     22  C   UNL     1      -8.782 -42.694  27.928  1.00  0.00     0.027 C 
ATOM     23  C   UNL     1     -10.108 -42.089  27.490  1.00  0.00     0.008 C 
ENDBRANCH  14  22
TORSDOF 2
ENDMDL
MODEL 5
REMARK VINA RESULT:    -9.183      3.312      6.097
REMARK INTER + INTRA:         -10.085
REMARK INTER:                  -9.968
REMARK INTRA:                  -0.117
REMARK UNBOUND:                -0.097
REMARK SMILES CCC1=C[C@H]2Cc3[nH]c4cc(Cl)ccc4c(=N)c3[C@@H](C1)C2
REMARK SMILES IDX 8 1 7 2 18 3 16 4 15 5 14 6 13 7 11 8 12 9 10 10 9 11 19 12
REMARK SMILES IDX 20 13 3 14 4 15 5 16 6 17 21 18 17 20 2 22 1 23
REMARK H PARENT 8 19 17 21
ROOT
ATOM      1  N   UNL     1     -12.026 -42.875  31.461  1.00  0.00    -0.358 N 
ATOM      2  C   UNL     1     -11.749 -43.843  30.520  1.00  0.00     0.021 A 
ATOM      3  C   UNL     1     -12.335 -45.059  30.523  1.00  0.00     0.000 A 
ATOM      4  C   UNL     1     -13.344 -45.373  31.590  1.00  0.00     0.068 A 
ATOM      5  C   UNL     1     -13.700 -44.277  32.547  1.00  0.00     0.023 A 
ATOM      6  C   UNL     1     -14.679 -44.437  33.538  1.00  0.00     0.014 A 
ATOM      7  C   UNL     1     -14.970 -43.389  34.416  1.00  0.00     0.021 A 
ATOM      8  C   UNL     1     -14.284 -42.183  34.307  1.00  0.00     0.043 A 
ATOM      9  Cl  UNL     1     -14.638 -40.898  35.395  1.00  0.00    -0.084 Cl
ATOM     10  C   UNL     1     -13.312 -42.009  33.323  1.00  0.00     0.047 A 
ATOM     11  C   UNL     1     -13.025 -43.046  32.426  1.00  0.00     0.049 A 
ATOM     12  C   UNL     1     -12.011 -46.141  29.504  1.00  0.00     0.028 C 
ATOM     13  C   UNL     1     -13.067 -46.166  28.375  1.00  0.00     0.039 C 
ATOM     14  C   UNL     1     -12.877 -45.073  27.334  1.00  0.00    -0.074 C 
ATOM     15  C   UNL     1     -11.766 -44.310  27.314  1.00  0.00    -0.024 C 
ATOM     16  C   UNL     1     -10.626 -44.483  28.296  1.00  0.00     0.018 C 
ATOM     17  C   UNL     1     -10.738 -43.462  29.447  1.00  0.00     0.062 C 
ATOM     18  C   UNL     1     -10.628 -45.897  28.884  1.00  0.00     0.017 C 
ATOM     19  H   UNL     1     -11.671 -41.942  31.293  1.00  0.00     0.166 HD
ENDROOT
BRANCH   4  20
ATOM     20  N   UNL     1     -13.862 -46.563  31.633  1.00  0.00    -0.300 NA
ATOM     21  H   UNL     1     -14.813 -46.575  31.995  1.00  0.00     0.188 HD
ENDBRANCH   4  20
BRANCH  14  22
ATOM     22  C   UNL     1     -13.981 -44.899  26.320  1.00  0.00     0.027 C 
ATOM     23  C   UNL     1     -14.270 -43.435  26.019  1.00  0.00     0.008 C 
ENDBRANCH  14  22
TORSDOF 2
ENDMDL
MODEL 6
REMARK VINA RESULT:    -8.925      1.760      2.357
REMARK INTER + INTRA:          -9.804
REMARK INTER:                  -9.708
REMARK INTRA:                  -0.097
REMARK UNBOUND:                -0.097
REMARK SMILES CCC1=C[C@H]2Cc3[nH]c4cc(Cl)ccc4c(=N)c3[C@@H](C1)C2
REMARK SMILES IDX 8 1 7 2 18 3 16 4 15 5 14 6 13 7 11 8 12 9 10 10 9 11 19 12
REMARK SMILES IDX 20 13 3 14 4 15 5 16 6 17 21 18 17 20 2 22 1 23
REMARK H PARENT 8 19 17 21
ROOT
ATOM      1  N   UNL     1     -13.730 -45.039  28.569  1.00  0.00    -0.358 N 
ATOM      2  C   UNL     1     -12.484 -45.177  29.142  1.00  0.00     0.021 A 
ATOM      3  C   UNL     1     -11.418 -44.439  28.767  1.00  0.00     0.000 A 
ATOM      4  C   UNL     1     -11.593 -43.411  27.686  1.00  0.00     0.068 A 
ATOM      5  C   UNL     1     -12.975 -43.213  27.142  1.00  0.00     0.023 A 
ATOM      6  C   UNL     1     -13.266 -42.234  26.180  1.00  0.00     0.014 A 
ATOM      7  C   UNL     1     -14.569 -42.092  25.693  1.00  0.00     0.021 A 
ATOM      8  C   UNL     1     -15.579 -42.926  26.162  1.00  0.00     0.043 A 
ATOM      9  Cl  UNL     1     -17.179 -42.755  25.554  1.00  0.00    -0.084 Cl
ATOM     10  C   UNL     1     -15.304 -43.900  27.121  1.00  0.00     0.047 A 
ATOM     11  C   UNL     1     -14.006 -44.039  27.630  1.00  0.00     0.049 A 
ATOM     12  C   UNL     1     -10.034 -44.608  29.376  1.00  0.00     0.028 C 
ATOM     13  C   UNL     1      -9.781 -43.542  30.468  1.00  0.00     0.039 C 
ATOM     14  C   UNL     1     -10.448 -43.858  31.798  1.00  0.00    -0.074 C 
ATOM     15  C   UNL     1     -11.018 -45.058  32.029  1.00  0.00    -0.024 C 
ATOM     16  C   UNL     1     -11.027 -46.180  31.010  1.00  0.00     0.018 C 
ATOM     17  C   UNL     1     -12.369 -46.215  30.250  1.00  0.00     0.062 C 
ATOM     18  C   UNL     1      -9.890 -46.002  30.000  1.00  0.00     0.017 C 
ATOM     19  H   UNL     1     -14.507 -45.510  29.016  1.00  0.00     0.166 HD
ENDROOT
BRANCH   4  20
ATOM     20  N   UNL     1     -10.556 -42.745  27.279  1.00  0.00    -0.300 NA
ATOM     21  H   UNL     1     -10.104 -42.214  28.020  1.00  0.00     0.188 HD
ENDBRANCH   4  20
BRANCH  14  22
ATOM     22  C   UNL     1     -10.425 -42.773  32.846  1.00  0.00     0.027 C 
ATOM     23  C   UNL     1      -9.134 -42.769  33.652  1.00  0.00     0.008 C 
ENDBRANCH  14  22
TORSDOF 2
ENDMDL
MODEL 7
REMARK VINA RESULT:    -8.471      5.759     10.537
REMARK INTER + INTRA:          -9.311
REMARK INTER:                  -9.193
REMARK INTRA:                  -0.118
REMARK UNBOUND:                -0.097
REMARK SMILES CCC1=C[C@H]2Cc3[nH]c4cc(Cl)ccc4c(=N)c3[C@@H](C1)C2
REMARK SMILES IDX 8 1 7 2 18 3 16 4 15 5 14 6 13 7 11 8 12 9 10 10 9 11 19 12
REMARK SMILES IDX 20 13 3 14 4 15 5 16 6 17 21 18 17 20 2 22 1 23
REMARK H PARENT 8 19 17 21
ROOT
ATOM      1  N   UNL     1     -19.054 -41.733  24.747  1.00  0.00    -0.358 N 
ATOM      2  C   UNL     1     -19.754 -41.106  23.739  1.00  0.00     0.021 A 
ATOM      3  C   UNL     1     -19.181 -40.712  22.582  1.00  0.00     0.000 A 
ATOM      4  C   UNL     1     -17.718 -40.978  22.371  1.00  0.00     0.068 A 
ATOM      5  C   UNL     1     -16.996 -41.743  23.439  1.00  0.00     0.023 A 
ATOM      6  C   UNL     1     -15.647 -42.107  23.315  1.00  0.00     0.014 A 
ATOM      7  C   UNL     1     -15.012 -42.812  24.342  1.00  0.00     0.021 A 
ATOM      8  C   UNL     1     -15.721 -43.152  25.491  1.00  0.00     0.043 A 
ATOM      9  Cl  UNL     1     -14.933 -44.011  26.756  1.00  0.00    -0.084 Cl
ATOM     10  C   UNL     1     -17.063 -42.801  25.623  1.00  0.00     0.047 A 
ATOM     11  C   UNL     1     -17.714 -42.110  24.594  1.00  0.00     0.049 A 
ATOM     12  C   UNL     1     -19.943 -39.993  21.479  1.00  0.00     0.028 C 
ATOM     13  C   UNL     1     -20.372 -40.984  20.371  1.00  0.00     0.039 C 
ATOM     14  C   UNL     1     -21.595 -41.813  20.732  1.00  0.00    -0.074 C 
ATOM     15  C   UNL     1     -22.332 -41.536  21.826  1.00  0.00    -0.024 C 
ATOM     16  C   UNL     1     -22.023 -40.386  22.763  1.00  0.00     0.018 C 
ATOM     17  C   UNL     1     -21.238 -40.884  23.995  1.00  0.00     0.062 C 
ATOM     18  C   UNL     1     -21.196 -39.313  22.048  1.00  0.00     0.017 C 
ATOM     19  H   UNL     1     -19.586 -42.139  25.506  1.00  0.00     0.166 HD
ENDROOT
BRANCH   4  20
ATOM     20  N   UNL     1     -17.150 -40.545  21.287  1.00  0.00    -0.300 NA
ATOM     21  H   UNL     1     -17.086 -39.530  21.246  1.00  0.00     0.188 HD
ENDBRANCH   4  20
BRANCH  14  22
ATOM     22  C   UNL     1     -21.950 -42.944  19.798  1.00  0.00     0.027 C 
ATOM     23  C   UNL     1     -22.065 -44.280  20.519  1.00  0.00     0.008 C 
ENDBRANCH  14  22
TORSDOF 2
ENDMDL
MODEL 8
REMARK VINA RESULT:    -7.656      7.053     11.705
REMARK INTER + INTRA:          -8.424
REMARK INTER:                  -8.300
REMARK INTRA:                  -0.124
REMARK UNBOUND:                -0.097
REMARK SMILES CCC1=C[C@H]2Cc3[nH]c4cc(Cl)ccc4c(=N)c3[C@@H](C1)C2
REMARK SMILES IDX 8 1 7 2 18 3 16 4 15 5 14 6 13 7 11 8 12 9 10 10 9 11 19 12
REMARK SMILES IDX 20 13 3 14 4 15 5 16 6 17 21 18 17 20 2 22 1 23
REMARK H PARENT 8 19 17 21
ROOT
ATOM      1  N   UNL     1     -18.168 -40.535  21.269  1.00  0.00    -0.358 N 
ATOM      2  C   UNL     1     -19.469 -40.537  20.817  1.00  0.00     0.021 A 
ATOM      3  C   UNL     1     -20.415 -41.368  21.305  1.00  0.00     0.000 A 
ATOM      4  C   UNL     1     -20.041 -42.327  22.399  1.00  0.00     0.068 A 
ATOM      5  C   UNL     1     -18.647 -42.245  22.940  1.00  0.00     0.023 A 
ATOM      6  C   UNL     1     -18.211 -43.045  24.007  1.00  0.00     0.014 A 
ATOM      7  C   UNL     1     -16.897 -42.941  24.472  1.00  0.00     0.021 A 
ATOM      8  C   UNL     1     -16.017 -42.044  23.873  1.00  0.00     0.043 A 
ATOM      9  Cl  UNL     1     -14.398 -41.926  24.442  1.00  0.00    -0.084 Cl
ATOM     10  C   UNL     1     -16.440 -41.240  22.815  1.00  0.00     0.047 A 
ATOM     11  C   UNL     1     -17.759 -41.322  22.352  1.00  0.00     0.049 A 
ATOM     12  C   UNL     1     -21.846 -41.394  20.789  1.00  0.00     0.028 C 
ATOM     13  C   UNL     1     -22.777 -40.571  21.710  1.00  0.00     0.039 C 
ATOM     14  C   UNL     1     -22.683 -39.069  21.490  1.00  0.00    -0.074 C 
ATOM     15  C   UNL     1     -22.004 -38.554  20.446  1.00  0.00    -0.024 C 
ATOM     16  C   UNL     1     -21.305 -39.411  19.410  1.00  0.00     0.018 C 
ATOM     17  C   UNL     1     -19.800 -39.528  19.726  1.00  0.00     0.062 C 
ATOM     18  C   UNL     1     -21.914 -40.815  19.369  1.00  0.00     0.017 C 
ATOM     19  H   UNL     1     -17.568 -39.777  20.970  1.00  0.00     0.166 HD
ENDROOT
BRANCH   4  20
ATOM     20  N   UNL     1     -20.931 -43.171  22.825  1.00  0.00    -0.300 NA
ATOM     21  H   UNL     1     -21.144 -43.904  22.153  1.00  0.00     0.188 HD
ENDBRANCH   4  20
BRANCH  14  22
ATOM     22  C   UNL     1     -23.399 -38.190  22.486  1.00  0.00     0.027 C 
ATOM     23  C   UNL     1     -23.949 -38.975  23.668  1.00  0.00     0.008 C 
ENDBRANCH  14  22
TORSDOF 2
ENDMDL
MODEL 9
REMARK VINA RESULT:    -7.593      6.851     11.577
REMARK INTER + INTRA:          -8.356
REMARK INTER:                  -8.224
REMARK INTRA:                  -0.132
REMARK UNBOUND:                -0.097
REMARK SMILES CCC1=C[C@H]2Cc3[nH]c4cc(Cl)ccc4c(=N)c3[C@@H](C1)C2
REMARK SMILES IDX 8 1 7 2 18 3 16 4 15 5 14 6 13 7 11 8 12 9 10 10 9 11 19 12
REMARK SMILES IDX 20 13 3 14 4 15 5 16 6 17 21 18 17 20 2 22 1 23
REMARK H PARENT 8 19 17 21
ROOT
ATOM      1  N   UNL     1     -21.042 -40.540  24.494  1.00  0.00    -0.358 N 
ATOM      2  C   UNL     1     -21.200 -40.190  23.171  1.00  0.00     0.021 A 
ATOM      3  C   UNL     1     -20.263 -40.431  22.230  1.00  0.00     0.000 A 
ATOM      4  C   UNL     1     -18.993 -41.124  22.634  1.00  0.00     0.068 A 
ATOM      5  C   UNL     1     -18.880 -41.580  24.057  1.00  0.00     0.023 A 
ATOM      6  C   UNL     1     -17.769 -42.297  24.527  1.00  0.00     0.014 A 
ATOM      7  C   UNL     1     -17.703 -42.692  25.865  1.00  0.00     0.021 A 
ATOM      8  C   UNL     1     -18.740 -42.372  26.736  1.00  0.00     0.043 A 
ATOM      9  Cl  UNL     1     -18.650 -42.852  28.386  1.00  0.00    -0.084 Cl
ATOM     10  C   UNL     1     -19.851 -41.664  26.281  1.00  0.00     0.047 A 
ATOM     11  C   UNL     1     -19.938 -41.278  24.937  1.00  0.00     0.049 A 
ATOM     12  C   UNL     1     -20.421 -40.020  20.774  1.00  0.00     0.028 C 
ATOM     13  C   UNL     1     -20.901 -41.213  19.915  1.00  0.00     0.039 C 
ATOM     14  C   UNL     1     -22.390 -41.496  20.038  1.00  0.00    -0.074 C 
ATOM     15  C   UNL     1     -23.216 -40.641  20.675  1.00  0.00    -0.024 C 
ATOM     16  C   UNL     1     -22.744 -39.342  21.296  1.00  0.00     0.018 C 
ATOM     17  C   UNL     1     -22.516 -39.513  22.812  1.00  0.00     0.062 C 
ATOM     18  C   UNL     1     -21.436 -38.877  20.647  1.00  0.00     0.017 C 
ATOM     19  H   UNL     1     -21.851 -40.473  25.098  1.00  0.00     0.166 HD
ENDROOT
BRANCH   4  20
ATOM     20  N   UNL     1     -18.064 -41.301  21.745  1.00  0.00    -0.300 NA
ATOM     21  H   UNL     1     -17.288 -41.867  22.082  1.00  0.00     0.188 HD
ENDBRANCH   4  20
BRANCH  14  22
ATOM     22  C   UNL     1     -22.898 -42.765  19.400  1.00  0.00     0.027 C 
ATOM     23  C   UNL     1     -21.952 -43.940  19.608  1.00  0.00     0.008 C 
ENDBRANCH  14  22
TORSDOF 2
ENDMDL
