MODEL 1
REMARK VINA RESULT:   -12.640      0.000      0.000
REMARK INTER + INTRA:         -18.451
REMARK INTER:                 -17.443
REMARK INTRA:                  -1.008
REMARK UNBOUND:                -1.008
REMARK SMILES O=C1C(=NCCCNc2c3c(nc4cc(Cl)ccc24)CCCC3)CC(=O)c2c(O)cccc21
REMARK SMILES IDX 5 1 4 2 3 3 24 4 25 5 27 6 2 7 28 8 33 9 30 10 32 11 31 12
REMARK SMILES IDX 26 13 1 14 29 15 6 17 7 18 8 19 9 21 10 22 19 23 11 24 23 25
REMARK SMILES IDX 18 26 13 27 12 28 20 29 22 30 17 31 14 32 21 33 15 34 16 35
REMARK H PARENT 29 16 8 20
ROOT
ATOM      1  C   UNL     1     -12.431 -44.906  27.682  1.00  0.00     0.144 C 
ENDROOT
BRANCH   1   2
ATOM      2  N   UNL     1     -13.523 -44.964  26.716  1.00  0.00    -0.285 NA
BRANCH   2   3
ATOM      3  C   UNL     1     -14.387 -44.004  26.681  1.00  0.00     0.090 C 
ATOM      4  C   UNL     1     -15.153 -43.462  27.844  1.00  0.00     0.141 C 
ATOM      5  C   UNL     1     -16.398 -42.682  27.529  1.00  0.00     0.173 C 
ATOM      6  C   UNL     1     -16.915 -42.671  26.134  1.00  0.00     0.071 A 
ATOM      7  C   UNL     1     -14.658 -43.347  25.346  1.00  0.00     0.208 C 
ATOM      8  C   UNL     1     -18.243 -42.335  25.832  1.00  0.00     0.127 A 
ATOM      9  C   UNL     1     -16.040 -42.933  25.078  1.00  0.00     0.038 A 
ATOM     10  C   UNL     1     -18.671 -42.229  24.505  1.00  0.00     0.047 A 
ATOM     11  C   UNL     1     -16.459 -42.814  23.746  1.00  0.00     0.013 A 
ATOM     12  C   UNL     1     -17.776 -42.460  23.462  1.00  0.00     0.005 A 
ATOM     13  O   UNL     1     -16.961 -42.056  28.423  1.00  0.00    -0.294 OA
ATOM     14  O   UNL     1     -13.769 -43.205  24.522  1.00  0.00    -0.287 OA
BRANCH   8  15
ATOM     15  O   UNL     1     -19.154 -42.140  26.829  1.00  0.00    -0.507 OA
ATOM     16  H   UNL     1     -19.991 -41.811  26.465  1.00  0.00     0.293 HD
ENDBRANCH   8  15
ENDBRANCH   2   3
ENDBRANCH   1   2
BRANCH   1  17
ATOM     17  C   UNL     1     -12.374 -46.217  28.465  1.00  0.00     0.045 C 
BRANCH  17  18
ATOM     18  C   UNL     1     -11.099 -46.341  29.297  1.00  0.00     0.115 C 
BRANCH  18  19
ATOM     19  N   UNL     1     -11.401 -46.404  30.741  1.00  0.00    -0.384 N 
ATOM     20  H   UNL     1     -12.394 -46.600  30.860  1.00  0.00     0.160 HD
BRANCH  19  21
ATOM     21  C   UNL     1     -11.093 -45.206  31.444  1.00  0.00     0.049 A 
ATOM     22  C   UNL     1      -9.775 -44.869  31.786  1.00  0.00    -0.003 A 
ATOM     23  C   UNL     1     -12.150 -44.343  31.843  1.00  0.00     0.024 A 
ATOM     24  C   UNL     1      -9.573 -43.721  32.553  1.00  0.00     0.046 A 
ATOM     25  C   UNL     1      -8.553 -45.676  31.429  1.00  0.00     0.039 C 
ATOM     26  C   UNL     1     -13.503 -44.564  31.498  1.00  0.00     0.014 A 
ATOM     27  C   UNL     1     -11.822 -43.203  32.610  1.00  0.00     0.074 A 
ATOM     28  N   UNL     1     -10.566 -42.906  32.968  1.00  0.00    -0.252 NA
ATOM     29  C   UNL     1      -8.169 -43.379  32.981  1.00  0.00     0.056 C 
ATOM     30  C   UNL     1      -7.402 -44.777  30.968  1.00  0.00     0.005 C 
ATOM     31  C   UNL     1     -14.506 -43.693  31.913  1.00  0.00     0.021 A 
ATOM     32  C   UNL     1     -12.835 -42.348  33.017  1.00  0.00     0.049 A 
ATOM     33  C   UNL     1      -7.201 -43.509  31.808  1.00  0.00     0.007 C 
ATOM     34  C   UNL     1     -14.165 -42.586  32.677  1.00  0.00     0.043 A 
ATOM     35  Cl  UNL     1     -15.392 -41.499  33.202  1.00  0.00    -0.084 Cl
ENDBRANCH  19  21
ENDBRANCH  18  19
ENDBRANCH  17  18
ENDBRANCH   1  17
TORSDOF 7
ENDMDL
MODEL 2
REMARK VINA RESULT:   -11.996      1.179      2.040
REMARK INTER + INTRA:         -17.562
REMARK INTER:                 -17.008
REMARK INTRA:                  -0.554
REMARK UNBOUND:                -1.008
REMARK SMILES O=C1C(=NCCCNc2c3c(nc4cc(Cl)ccc24)CCCC3)CC(=O)c2c(O)cccc21
REMARK SMILES IDX 5 1 4 2 3 3 24 4 25 5 27 6 2 7 28 8 33 9 30 10 32 11 31 12
REMARK SMILES IDX 26 13 1 14 29 15 6 17 7 18 8 19 9 21 10 22 19 23 11 24 23 25
REMARK SMILES IDX 18 26 13 27 12 28 20 29 22 30 17 31 14 32 21 33 15 34 16 35
REMARK H PARENT 29 16 8 20
ROOT
ATOM      1  C   UNL     1     -11.704 -44.225  27.611  1.00  0.00     0.144 C 
ENDROOT
BRANCH   1   2
ATOM      2  N   UNL     1     -12.670 -43.156  27.378  1.00  0.00    -0.285 NA
BRANCH   2   3
ATOM      3  C   UNL     1     -13.748 -43.413  26.713  1.00  0.00     0.090 C 
ATOM      4  C   UNL     1     -13.848 -43.615  25.236  1.00  0.00     0.141 C 
ATOM      5  C   UNL     1     -15.211 -43.457  24.623  1.00  0.00     0.173 C 
ATOM      6  C   UNL     1     -16.321 -42.910  25.450  1.00  0.00     0.071 A 
ATOM      7  C   UNL     1     -15.042 -43.533  27.486  1.00  0.00     0.208 C 
ATOM      8  C   UNL     1     -17.473 -42.353  24.878  1.00  0.00     0.127 A 
ATOM      9  C   UNL     1     -16.252 -43.013  26.840  1.00  0.00     0.038 A 
ATOM     10  C   UNL     1     -18.545 -41.945  25.678  1.00  0.00     0.047 A 
ATOM     11  C   UNL     1     -17.329 -42.619  27.646  1.00  0.00     0.013 A 
ATOM     12  C   UNL     1     -18.476 -42.088  27.063  1.00  0.00     0.005 A 
ATOM     13  O   UNL     1     -15.391 -43.793  23.456  1.00  0.00    -0.294 OA
ATOM     14  O   UNL     1     -15.062 -44.008  28.610  1.00  0.00    -0.287 OA
BRANCH   8  15
ATOM     15  O   UNL     1     -17.558 -42.164  23.528  1.00  0.00    -0.507 OA
ATOM     16  H   UNL     1     -16.709 -41.854  23.175  1.00  0.00     0.293 HD
ENDBRANCH   8  15
ENDBRANCH   2   3
ENDBRANCH   1   2
BRANCH   1  17
ATOM     17  C   UNL     1     -11.528 -44.432  29.115  1.00  0.00     0.045 C 
BRANCH  17  18
ATOM     18  C   UNL     1     -11.542 -45.909  29.504  1.00  0.00     0.115 C 
BRANCH  18  19
ATOM     19  N   UNL     1     -11.643 -46.081  30.967  1.00  0.00    -0.384 N 
ATOM     20  H   UNL     1     -12.607 -46.315  31.203  1.00  0.00     0.160 HD
BRANCH  19  21
ATOM     21  C   UNL     1     -11.269 -44.925  31.707  1.00  0.00     0.049 A 
ATOM     22  C   UNL     1      -9.927 -44.636  31.995  1.00  0.00    -0.003 A 
ATOM     23  C   UNL     1     -12.281 -44.057  32.199  1.00  0.00     0.024 A 
ATOM     24  C   UNL     1      -9.657 -43.530  32.803  1.00  0.00     0.046 A 
ATOM     25  C   UNL     1      -8.746 -45.454  31.539  1.00  0.00     0.039 C 
ATOM     26  C   UNL     1     -13.655 -44.230  31.915  1.00  0.00     0.014 A 
ATOM     27  C   UNL     1     -11.885 -42.962  33.000  1.00  0.00     0.074 A 
ATOM     28  N   UNL     1     -10.605 -42.712  33.306  1.00  0.00    -0.252 NA
ATOM     29  C   UNL     1      -8.224 -43.243  33.172  1.00  0.00     0.056 C 
ATOM     30  C   UNL     1      -7.597 -44.562  31.060  1.00  0.00     0.005 C 
ATOM     31  C   UNL     1     -14.614 -43.355  32.422  1.00  0.00     0.021 A 
ATOM     32  C   UNL     1     -12.854 -42.104  33.498  1.00  0.00     0.049 A 
ATOM     33  C   UNL     1      -7.320 -43.340  31.946  1.00  0.00     0.007 C 
ATOM     34  C   UNL     1     -14.205 -42.294  33.217  1.00  0.00     0.043 A 
ATOM     35  Cl  UNL     1     -15.374 -41.204  33.854  1.00  0.00    -0.084 Cl
ENDBRANCH  19  21
ENDBRANCH  18  19
ENDBRANCH  17  18
ENDBRANCH   1  17
TORSDOF 7
ENDMDL
MODEL 3
REMARK VINA RESULT:   -11.995      1.773      3.592
REMARK INTER + INTRA:         -17.562
REMARK INTER:                 -16.627
REMARK INTRA:                  -0.934
REMARK UNBOUND:                -1.008
REMARK SMILES O=C1C(=NCCCNc2c3c(nc4cc(Cl)ccc24)CCCC3)CC(=O)c2c(O)cccc21
REMARK SMILES IDX 5 1 4 2 3 3 24 4 25 5 27 6 2 7 28 8 33 9 30 10 32 11 31 12
REMARK SMILES IDX 26 13 1 14 29 15 6 17 7 18 8 19 9 21 10 22 19 23 11 24 23 25
REMARK SMILES IDX 18 26 13 27 12 28 20 29 22 30 17 31 14 32 21 33 15 34 16 35
REMARK H PARENT 29 16 8 20
ROOT
ATOM      1  C   UNL     1     -12.360 -44.896  27.675  1.00  0.00     0.144 C 
ENDROOT
BRANCH   1   2
ATOM      2  N   UNL     1     -13.587 -45.031  26.896  1.00  0.00    -0.285 NA
BRANCH   2   3
ATOM      3  C   UNL     1     -14.434 -44.056  26.879  1.00  0.00     0.090 C 
ATOM      4  C   UNL     1     -15.212 -43.542  28.047  1.00  0.00     0.141 C 
ATOM      5  C   UNL     1     -16.439 -42.731  27.738  1.00  0.00     0.173 C 
ATOM      6  C   UNL     1     -16.931 -42.664  26.336  1.00  0.00     0.071 A 
ATOM      7  C   UNL     1     -14.672 -43.349  25.564  1.00  0.00     0.208 C 
ATOM      8  C   UNL     1     -18.248 -42.297  26.023  1.00  0.00     0.127 A 
ATOM      9  C   UNL     1     -16.042 -42.904  25.287  1.00  0.00     0.038 A 
ATOM     10  C   UNL     1     -18.651 -42.138  24.693  1.00  0.00     0.047 A 
ATOM     11  C   UNL     1     -16.436 -42.733  23.953  1.00  0.00     0.013 A 
ATOM     12  C   UNL     1     -17.742 -42.347  23.658  1.00  0.00     0.005 A 
ATOM     13  O   UNL     1     -17.008 -42.128  28.643  1.00  0.00    -0.294 OA
ATOM     14  O   UNL     1     -13.766 -43.194  24.761  1.00  0.00    -0.287 OA
BRANCH   8  15
ATOM     15  O   UNL     1     -19.174 -42.121  27.011  1.00  0.00    -0.507 OA
ATOM     16  H   UNL     1     -20.032 -41.871  26.632  1.00  0.00     0.293 HD
ENDBRANCH   8  15
ENDBRANCH   2   3
ENDBRANCH   1   2
BRANCH   1  17
ATOM     17  C   UNL     1     -12.022 -46.236  28.328  1.00  0.00     0.045 C 
BRANCH  17  18
ATOM     18  C   UNL     1     -10.708 -46.189  29.105  1.00  0.00     0.115 C 
BRANCH  18  19
ATOM     19  N   UNL     1     -10.921 -46.462  30.541  1.00  0.00    -0.384 N 
ATOM     20  H   UNL     1     -11.832 -46.903  30.659  1.00  0.00     0.160 HD
BRANCH  19  21
ATOM     21  C   UNL     1     -10.876 -45.298  31.358  1.00  0.00     0.049 A 
ATOM     22  C   UNL     1     -12.040 -44.596  31.706  1.00  0.00    -0.003 A 
ATOM     23  C   UNL     1      -9.618 -44.810  31.805  1.00  0.00     0.024 A 
ATOM     24  C   UNL     1     -11.895 -43.415  32.436  1.00  0.00     0.046 A 
ATOM     25  C   UNL     1     -13.441 -44.992  31.316  1.00  0.00     0.039 C 
ATOM     26  C   UNL     1      -8.396 -45.476  31.556  1.00  0.00     0.014 A 
ATOM     27  C   UNL     1      -9.598 -43.608  32.546  1.00  0.00     0.074 A 
ATOM     28  N   UNL     1     -10.708 -42.920  32.843  1.00  0.00    -0.252 NA
ATOM     29  C   UNL     1     -13.131 -42.618  32.765  1.00  0.00     0.056 C 
ATOM     30  C   UNL     1     -14.418 -44.823  32.483  1.00  0.00     0.005 C 
ATOM     31  C   UNL     1      -7.186 -44.959  32.011  1.00  0.00     0.021 A 
ATOM     32  C   UNL     1      -8.382 -43.107  32.988  1.00  0.00     0.049 A 
ATOM     33  C   UNL     1     -14.238 -43.529  33.289  1.00  0.00     0.007 C 
ATOM     34  C   UNL     1      -7.187 -43.771  32.725  1.00  0.00     0.043 A 
ATOM     35  Cl  UNL     1      -5.700 -43.115  33.294  1.00  0.00    -0.084 Cl
ENDBRANCH  19  21
ENDBRANCH  18  19
ENDBRANCH  17  18
ENDBRANCH   1  17
TORSDOF 7
ENDMDL
MODEL 4
REMARK VINA RESULT:   -11.521      4.091     10.195
REMARK INTER + INTRA:         -16.907
REMARK INTER:                 -16.412
REMARK INTRA:                  -0.495
REMARK UNBOUND:                -1.008
REMARK SMILES O=C1C(=NCCCNc2c3c(nc4cc(Cl)ccc24)CCCC3)CC(=O)c2c(O)cccc21
REMARK SMILES IDX 5 1 4 2 3 3 24 4 25 5 27 6 2 7 28 8 33 9 30 10 32 11 31 12
REMARK SMILES IDX 26 13 1 14 29 15 6 17 7 18 8 19 9 21 10 22 19 23 11 24 23 25
REMARK SMILES IDX 18 26 13 27 12 28 20 29 22 30 17 31 14 32 21 33 15 34 16 35
REMARK H PARENT 29 16 8 20
ROOT
ATOM      1  C   UNL     1     -14.900 -43.354  25.288  1.00  0.00     0.144 C 
ENDROOT
BRANCH   1   2
ATOM      2  N   UNL     1     -14.112 -44.545  25.589  1.00  0.00    -0.285 NA
BRANCH   2   3
ATOM      3  C   UNL     1     -13.926 -44.885  26.821  1.00  0.00     0.090 C 
ATOM      4  C   UNL     1     -14.596 -44.282  28.014  1.00  0.00     0.141 C 
ATOM      5  C   UNL     1     -13.929 -44.497  29.344  1.00  0.00     0.173 C 
ATOM      6  C   UNL     1     -12.566 -45.092  29.385  1.00  0.00     0.071 A 
ATOM      7  C   UNL     1     -12.949 -46.002  27.106  1.00  0.00     0.208 C 
ATOM      8  C   UNL     1     -11.724 -44.951  30.498  1.00  0.00     0.127 A 
ATOM      9  C   UNL     1     -12.129 -45.875  28.316  1.00  0.00     0.038 A 
ATOM     10  C   UNL     1     -10.492 -45.610  30.551  1.00  0.00     0.047 A 
ATOM     11  C   UNL     1     -10.901 -46.549  28.370  1.00  0.00     0.013 A 
ATOM     12  C   UNL     1     -10.085 -46.417  29.491  1.00  0.00     0.005 A 
ATOM     13  O   UNL     1     -14.524 -44.192  30.373  1.00  0.00    -0.294 OA
ATOM     14  O   UNL     1     -12.829 -46.944  26.339  1.00  0.00    -0.287 OA
BRANCH   8  15
ATOM     15  O   UNL     1     -12.075 -44.138  31.537  1.00  0.00    -0.507 OA
ATOM     16  H   UNL     1     -11.960 -44.599  32.383  1.00  0.00     0.293 HD
ENDBRANCH   8  15
ENDBRANCH   2   3
ENDBRANCH   1   2
BRANCH   1  17
ATOM     17  C   UNL     1     -15.414 -43.433  23.851  1.00  0.00     0.045 C 
BRANCH  17  18
ATOM     18  C   UNL     1     -16.175 -42.176  23.436  1.00  0.00     0.115 C 
BRANCH  18  19
ATOM     19  N   UNL     1     -17.436 -42.511  22.744  1.00  0.00    -0.384 N 
ATOM     20  H   UNL     1     -17.326 -42.313  21.749  1.00  0.00     0.160 HD
BRANCH  19  21
ATOM     21  C   UNL     1     -18.563 -41.788  23.223  1.00  0.00     0.049 A 
ATOM     22  C   UNL     1     -19.075 -41.990  24.513  1.00  0.00    -0.003 A 
ATOM     23  C   UNL     1     -19.212 -40.862  22.361  1.00  0.00     0.024 A 
ATOM     24  C   UNL     1     -20.238 -41.303  24.868  1.00  0.00     0.046 A 
ATOM     25  C   UNL     1     -18.495 -42.928  25.539  1.00  0.00     0.039 C 
ATOM     26  C   UNL     1     -18.740 -40.547  21.066  1.00  0.00     0.014 A 
ATOM     27  C   UNL     1     -20.377 -40.218  22.835  1.00  0.00     0.074 A 
ATOM     28  N   UNL     1     -20.886 -40.443  24.054  1.00  0.00    -0.252 NA
ATOM     29  C   UNL     1     -20.835 -41.555  26.228  1.00  0.00     0.056 C 
ATOM     30  C   UNL     1     -18.478 -42.294  26.934  1.00  0.00     0.005 C 
ATOM     31  C   UNL     1     -19.410 -39.634  20.255  1.00  0.00     0.021 A 
ATOM     32  C   UNL     1     -21.032 -39.315  22.012  1.00  0.00     0.049 A 
ATOM     33  C   UNL     1     -19.754 -41.528  27.306  1.00  0.00     0.007 C 
ATOM     34  C   UNL     1     -20.560 -39.024  20.735  1.00  0.00     0.043 A 
ATOM     35  Cl  UNL     1     -21.403 -37.895  19.746  1.00  0.00    -0.084 Cl
ENDBRANCH  19  21
ENDBRANCH  18  19
ENDBRANCH  17  18
ENDBRANCH   1  17
TORSDOF 7
ENDMDL
MODEL 5
REMARK VINA RESULT:   -11.135      2.174      4.172
REMARK INTER + INTRA:         -16.374
REMARK INTER:                 -15.864
REMARK INTRA:                  -0.510
REMARK UNBOUND:                -1.008
REMARK SMILES O=C1C(=NCCCNc2c3c(nc4cc(Cl)ccc24)CCCC3)CC(=O)c2c(O)cccc21
REMARK SMILES IDX 5 1 4 2 3 3 24 4 25 5 27 6 2 7 28 8 33 9 30 10 32 11 31 12
REMARK SMILES IDX 26 13 1 14 29 15 6 17 7 18 8 19 9 21 10 22 19 23 11 24 23 25
REMARK SMILES IDX 18 26 13 27 12 28 20 29 22 30 17 31 14 32 21 33 15 34 16 35
REMARK H PARENT 29 16 8 20
ROOT
ATOM      1  C   UNL     1     -12.248 -43.674  27.149  1.00  0.00     0.144 C 
ENDROOT
BRANCH   1   2
ATOM      2  N   UNL     1     -13.294 -42.664  27.017  1.00  0.00    -0.285 NA
BRANCH   2   3
ATOM      3  C   UNL     1     -14.401 -42.975  26.429  1.00  0.00     0.090 C 
ATOM      4  C   UNL     1     -14.596 -43.175  24.960  1.00  0.00     0.141 C 
ATOM      5  C   UNL     1     -16.006 -43.087  24.447  1.00  0.00     0.173 C 
ATOM      6  C   UNL     1     -17.081 -42.605  25.356  1.00  0.00     0.071 A 
ATOM      7  C   UNL     1     -15.629 -43.169  27.291  1.00  0.00     0.208 C 
ATOM      8  C   UNL     1     -18.300 -42.107  24.873  1.00  0.00     0.127 A 
ATOM      9  C   UNL     1     -16.908 -42.711  26.737  1.00  0.00     0.038 A 
ATOM     10  C   UNL     1     -19.332 -41.762  25.751  1.00  0.00     0.047 A 
ATOM     11  C   UNL     1     -17.943 -42.380  27.621  1.00  0.00     0.013 A 
ATOM     12  C   UNL     1     -19.156 -41.908  27.126  1.00  0.00     0.005 A 
ATOM     13  O   UNL     1     -16.250 -43.426  23.293  1.00  0.00    -0.294 OA
ATOM     14  O   UNL     1     -15.543 -43.650  28.409  1.00  0.00    -0.287 OA
BRANCH   8  15
ATOM     15  O   UNL     1     -18.491 -41.917  23.535  1.00  0.00    -0.507 OA
ATOM     16  H   UNL     1     -19.208 -41.281  23.381  1.00  0.00     0.293 HD
ENDBRANCH   8  15
ENDBRANCH   2   3
ENDBRANCH   1   2
BRANCH   1  17
ATOM     17  C   UNL     1     -11.418 -43.386  28.399  1.00  0.00     0.045 C 
BRANCH  17  18
ATOM     18  C   UNL     1     -10.697 -44.629  28.916  1.00  0.00     0.115 C 
BRANCH  18  19
ATOM     19  N   UNL     1     -11.335 -45.152  30.142  1.00  0.00    -0.384 N 
ATOM     20  H   UNL     1     -12.335 -45.255  29.973  1.00  0.00     0.160 HD
BRANCH  19  21
ATOM     21  C   UNL     1     -11.156 -44.317  31.280  1.00  0.00     0.049 A 
ATOM     22  C   UNL     1     -12.242 -43.698  31.918  1.00  0.00    -0.003 A 
ATOM     23  C   UNL     1      -9.843 -44.074  31.764  1.00  0.00     0.024 A 
ATOM     24  C   UNL     1     -11.967 -42.825  32.972  1.00  0.00     0.046 A 
ATOM     25  C   UNL     1     -13.688 -43.864  31.527  1.00  0.00     0.039 C 
ATOM     26  C   UNL     1      -8.692 -44.694  31.228  1.00  0.00     0.014 A 
ATOM     27  C   UNL     1      -9.689 -43.177  32.845  1.00  0.00     0.074 A 
ATOM     28  N   UNL     1     -10.725 -42.557  33.426  1.00  0.00    -0.252 NA
ATOM     29  C   UNL     1     -13.117 -42.105  33.627  1.00  0.00     0.056 C 
ATOM     30  C   UNL     1     -14.587 -44.022  32.756  1.00  0.00     0.005 C 
ATOM     31  C   UNL     1      -7.422 -44.423  31.733  1.00  0.00     0.021 A 
ATOM     32  C   UNL     1      -8.417 -42.917  33.333  1.00  0.00     0.049 A 
ATOM     33  C   UNL     1     -14.265 -43.069  33.915  1.00  0.00     0.007 C 
ATOM     34  C   UNL     1      -7.293 -43.530  32.785  1.00  0.00     0.043 A 
ATOM     35  Cl  UNL     1      -5.732 -43.180  33.422  1.00  0.00    -0.084 Cl
ENDBRANCH  19  21
ENDBRANCH  18  19
ENDBRANCH  17  18
ENDBRANCH   1  17
TORSDOF 7
ENDMDL
MODEL 6
REMARK VINA RESULT:   -10.490      3.777     10.275
REMARK INTER + INTRA:         -15.484
REMARK INTER:                 -15.017
REMARK INTRA:                  -0.468
REMARK UNBOUND:                -1.008
REMARK SMILES O=C1C(=NCCCNc2c3c(nc4cc(Cl)ccc24)CCCC3)CC(=O)c2c(O)cccc21
REMARK SMILES IDX 5 1 4 2 3 3 24 4 25 5 27 6 2 7 28 8 33 9 30 10 32 11 31 12
REMARK SMILES IDX 26 13 1 14 29 15 6 17 7 18 8 19 9 21 10 22 19 23 11 24 23 25
REMARK SMILES IDX 18 26 13 27 12 28 20 29 22 30 17 31 14 32 21 33 15 34 16 35
REMARK H PARENT 29 16 8 20
ROOT
ATOM      1  C   UNL     1     -14.930 -43.221  25.950  1.00  0.00     0.144 C 
ENDROOT
BRANCH   1   2
ATOM      2  N   UNL     1     -14.128 -44.433  26.090  1.00  0.00    -0.285 NA
BRANCH   2   3
ATOM      3  C   UNL     1     -13.843 -44.868  27.273  1.00  0.00     0.090 C 
ATOM      4  C   UNL     1     -14.426 -44.377  28.559  1.00  0.00     0.141 C 
ATOM      5  C   UNL     1     -13.655 -44.686  29.811  1.00  0.00     0.173 C 
ATOM      6  C   UNL     1     -12.285 -45.254  29.700  1.00  0.00     0.071 A 
ATOM      7  C   UNL     1     -12.831 -45.985  27.390  1.00  0.00     0.208 C 
ATOM      8  C   UNL     1     -11.360 -45.187  30.752  1.00  0.00     0.127 A 
ATOM      9  C   UNL     1     -11.921 -45.939  28.540  1.00  0.00     0.038 A 
ATOM     10  C   UNL     1     -10.119 -45.823  30.657  1.00  0.00     0.047 A 
ATOM     11  C   UNL     1     -10.684 -46.592  28.444  1.00  0.00     0.013 A 
ATOM     12  C   UNL     1      -9.785 -46.534  29.506  1.00  0.00     0.005 A 
ATOM     13  O   UNL     1     -14.172 -44.476  30.905  1.00  0.00    -0.294 OA
ATOM     14  O   UNL     1     -12.758 -46.859  26.541  1.00  0.00    -0.287 OA
BRANCH   8  15
ATOM     15  O   UNL     1     -11.640 -44.468  31.878  1.00  0.00    -0.507 OA
ATOM     16  H   UNL     1     -11.966 -45.051  32.582  1.00  0.00     0.293 HD
ENDBRANCH   8  15
ENDBRANCH   2   3
ENDBRANCH   1   2
BRANCH   1  17
ATOM     17  C   UNL     1     -15.735 -43.291  24.653  1.00  0.00     0.045 C 
BRANCH  17  18
ATOM     18  C   UNL     1     -16.996 -42.431  24.705  1.00  0.00     0.115 C 
BRANCH  18  19
ATOM     19  N   UNL     1     -17.985 -42.862  23.696  1.00  0.00    -0.384 N 
ATOM     20  H   UNL     1     -17.568 -42.772  22.770  1.00  0.00     0.160 HD
BRANCH  19  21
ATOM     21  C   UNL     1     -19.191 -42.108  23.718  1.00  0.00     0.049 A 
ATOM     22  C   UNL     1     -19.386 -41.001  22.878  1.00  0.00    -0.003 A 
ATOM     23  C   UNL     1     -20.213 -42.460  24.641  1.00  0.00     0.024 A 
ATOM     24  C   UNL     1     -20.563 -40.267  23.030  1.00  0.00     0.046 A 
ATOM     25  C   UNL     1     -18.402 -40.511  21.847  1.00  0.00     0.039 C 
ATOM     26  C   UNL     1     -20.137 -43.589  25.488  1.00  0.00     0.014 A 
ATOM     27  C   UNL     1     -21.366 -41.645  24.698  1.00  0.00     0.074 A 
ATOM     28  N   UNL     1     -21.531 -40.567  23.921  1.00  0.00    -0.252 NA
ATOM     29  C   UNL     1     -20.759 -39.040  22.177  1.00  0.00     0.056 C 
ATOM     30  C   UNL     1     -19.102 -40.124  20.541  1.00  0.00     0.005 C 
ATOM     31  C   UNL     1     -21.162 -43.895  26.380  1.00  0.00     0.021 A 
ATOM     32  C   UNL     1     -22.375 -41.964  25.594  1.00  0.00     0.049 A 
ATOM     33  C   UNL     1     -20.403 -39.332  20.721  1.00  0.00     0.007 C 
ATOM     34  C   UNL     1     -22.280 -43.074  26.429  1.00  0.00     0.043 A 
ATOM     35  Cl  UNL     1     -23.557 -43.434  27.525  1.00  0.00    -0.084 Cl
ENDBRANCH  19  21
ENDBRANCH  18  19
ENDBRANCH  17  18
ENDBRANCH   1  17
TORSDOF 7
ENDMDL
MODEL 7
REMARK VINA RESULT:   -10.100      3.987     10.365
REMARK INTER + INTRA:         -14.946
REMARK INTER:                 -14.345
REMARK INTRA:                  -0.601
REMARK UNBOUND:                -1.008
REMARK SMILES O=C1C(=NCCCNc2c3c(nc4cc(Cl)ccc24)CCCC3)CC(=O)c2c(O)cccc21
REMARK SMILES IDX 5 1 4 2 3 3 24 4 25 5 27 6 2 7 28 8 33 9 30 10 32 11 31 12
REMARK SMILES IDX 26 13 1 14 29 15 6 17 7 18 8 19 9 21 10 22 19 23 11 24 23 25
REMARK SMILES IDX 18 26 13 27 12 28 20 29 22 30 17 31 14 32 21 33 15 34 16 35
REMARK H PARENT 29 16 8 20
ROOT
ATOM      1  C   UNL     1     -15.764 -42.530  23.604  1.00  0.00     0.144 C 
ENDROOT
BRANCH   1   2
ATOM      2  N   UNL     1     -14.706 -42.601  24.608  1.00  0.00    -0.285 NA
BRANCH   2   3
ATOM      3  C   UNL     1     -14.908 -43.273  25.692  1.00  0.00     0.090 C 
ATOM      4  C   UNL     1     -15.713 -42.828  26.871  1.00  0.00     0.141 C 
ATOM      5  C   UNL     1     -15.459 -43.539  28.170  1.00  0.00     0.173 C 
ATOM      6  C   UNL     1     -14.304 -44.471  28.275  1.00  0.00     0.071 A 
ATOM      7  C   UNL     1     -14.288 -44.648  25.797  1.00  0.00     0.208 C 
ATOM      8  C   UNL     1     -13.755 -44.844  29.510  1.00  0.00     0.127 A 
ATOM      9  C   UNL     1     -13.787 -45.052  27.115  1.00  0.00     0.038 A 
ATOM     10  C   UNL     1     -12.740 -45.804  29.582  1.00  0.00     0.047 A 
ATOM     11  C   UNL     1     -12.781 -46.025  27.183  1.00  0.00     0.013 A 
ATOM     12  C   UNL     1     -12.260 -46.401  28.418  1.00  0.00     0.005 A 
ATOM     13  O   UNL     1     -16.214 -43.350  29.119  1.00  0.00    -0.294 OA
ATOM     14  O   UNL     1     -14.180 -45.366  24.816  1.00  0.00    -0.287 OA
BRANCH   8  15
ATOM     15  O   UNL     1     -14.176 -44.251  30.665  1.00  0.00    -0.507 OA
ATOM     16  H   UNL     1     -14.175 -43.285  30.571  1.00  0.00     0.293 HD
ENDBRANCH   8  15
ENDBRANCH   2   3
ENDBRANCH   1   2
BRANCH   1  17
ATOM     17  C   UNL     1     -15.655 -41.209  22.843  1.00  0.00     0.045 C 
BRANCH  17  18
ATOM     18  C   UNL     1     -16.913 -40.900  22.035  1.00  0.00     0.115 C 
BRANCH  18  19
ATOM     19  N   UNL     1     -17.933 -41.956  22.199  1.00  0.00    -0.384 N 
ATOM     20  H   UNL     1     -18.053 -42.437  21.308  1.00  0.00     0.160 HD
BRANCH  19  21
ATOM     21  C   UNL     1     -19.202 -41.466  22.618  1.00  0.00     0.049 A 
ATOM     22  C   UNL     1     -19.881 -40.469  21.901  1.00  0.00    -0.003 A 
ATOM     23  C   UNL     1     -19.782 -41.973  23.812  1.00  0.00     0.024 A 
ATOM     24  C   UNL     1     -21.078 -39.985  22.433  1.00  0.00     0.046 A 
ATOM     25  C   UNL     1     -19.400 -39.842  20.619  1.00  0.00     0.039 C 
ATOM     26  C   UNL     1     -19.205 -43.016  24.572  1.00  0.00     0.014 A 
ATOM     27  C   UNL     1     -21.003 -41.411  24.248  1.00  0.00     0.074 A 
ATOM     28  N   UNL     1     -21.629 -40.431  23.582  1.00  0.00    -0.252 NA
ATOM     29  C   UNL     1     -21.788 -38.872  21.708  1.00  0.00     0.056 C 
ATOM     30  C   UNL     1     -20.541 -39.676  19.611  1.00  0.00     0.005 C 
ATOM     31  C   UNL     1     -19.808 -43.479  25.739  1.00  0.00     0.021 A 
ATOM     32  C   UNL     1     -21.587 -41.882  25.414  1.00  0.00     0.049 A 
ATOM     33  C   UNL     1     -21.856 -39.160  20.210  1.00  0.00     0.007 C 
ATOM     34  C   UNL     1     -20.999 -42.904  26.156  1.00  0.00     0.043 A 
ATOM     35  Cl  UNL     1     -21.759 -43.461  27.597  1.00  0.00    -0.084 Cl
ENDBRANCH  19  21
ENDBRANCH  18  19
ENDBRANCH  17  18
ENDBRANCH   1  17
TORSDOF 7
ENDMDL
MODEL 8
REMARK VINA RESULT:   -10.027      3.382      8.866
REMARK INTER + INTRA:         -14.845
REMARK INTER:                 -14.539
REMARK INTRA:                  -0.306
REMARK UNBOUND:                -1.008
REMARK SMILES O=C1C(=NCCCNc2c3c(nc4cc(Cl)ccc24)CCCC3)CC(=O)c2c(O)cccc21
REMARK SMILES IDX 5 1 4 2 3 3 24 4 25 5 27 6 2 7 28 8 33 9 30 10 32 11 31 12
REMARK SMILES IDX 26 13 1 14 29 15 6 17 7 18 8 19 9 21 10 22 19 23 11 24 23 25
REMARK SMILES IDX 18 26 13 27 12 28 20 29 22 30 17 31 14 32 21 33 15 34 16 35
REMARK H PARENT 29 16 8 20
ROOT
ATOM      1  C   UNL     1     -14.518 -44.226  30.753  1.00  0.00     0.144 C 
ENDROOT
BRANCH   1   2
ATOM      2  N   UNL     1     -13.972 -44.715  29.491  1.00  0.00    -0.285 NA
BRANCH   2   3
ATOM      3  C   UNL     1     -12.697 -44.890  29.380  1.00  0.00     0.090 C 
ATOM      4  C   UNL     1     -12.018 -45.978  28.613  1.00  0.00     0.141 C 
ATOM      5  C   UNL     1     -10.586 -46.264  28.971  1.00  0.00     0.173 C 
ATOM      6  C   UNL     1      -9.997 -45.625  30.178  1.00  0.00     0.071 A 
ATOM      7  C   UNL     1     -11.786 -43.905  30.078  1.00  0.00     0.208 C 
ATOM      8  C   UNL     1      -8.852 -46.133  30.808  1.00  0.00     0.127 A 
ATOM      9  C   UNL     1     -10.554 -44.442  30.666  1.00  0.00     0.038 A 
ATOM     10  C   UNL     1      -8.259 -45.451  31.875  1.00  0.00     0.047 A 
ATOM     11  C   UNL     1      -9.956 -43.746  31.725  1.00  0.00     0.013 A 
ATOM     12  C   UNL     1      -8.807 -44.251  32.327  1.00  0.00     0.005 A 
ATOM     13  O   UNL     1      -9.923 -47.010  28.255  1.00  0.00    -0.294 OA
ATOM     14  O   UNL     1     -12.090 -42.727  30.175  1.00  0.00    -0.287 OA
BRANCH   8  15
ATOM     15  O   UNL     1      -8.312 -47.323  30.415  1.00  0.00    -0.507 OA
ATOM     16  H   UNL     1      -8.661 -48.050  30.956  1.00  0.00     0.293 HD
ENDBRANCH   8  15
ENDBRANCH   2   3
ENDBRANCH   1   2
BRANCH   1  17
ATOM     17  C   UNL     1     -15.622 -43.208  30.470  1.00  0.00     0.045 C 
BRANCH  17  18
ATOM     18  C   UNL     1     -16.351 -43.492  29.159  1.00  0.00     0.115 C 
BRANCH  18  19
ATOM     19  N   UNL     1     -16.764 -42.243  28.489  1.00  0.00    -0.384 N 
ATOM     20  H   UNL     1     -17.611 -41.894  28.938  1.00  0.00     0.160 HD
BRANCH  19  21
ATOM     21  C   UNL     1     -17.025 -42.397  27.099  1.00  0.00     0.049 A 
ATOM     22  C   UNL     1     -16.034 -42.833  26.206  1.00  0.00    -0.003 A 
ATOM     23  C   UNL     1     -18.311 -42.066  26.592  1.00  0.00     0.024 A 
ATOM     24  C   UNL     1     -16.352 -42.870  24.847  1.00  0.00     0.046 A 
ATOM     25  C   UNL     1     -14.632 -43.226  26.592  1.00  0.00     0.039 C 
ATOM     26  C   UNL     1     -19.391 -41.673  27.416  1.00  0.00     0.014 A 
ATOM     27  C   UNL     1     -18.517 -42.151  25.197  1.00  0.00     0.074 A 
ATOM     28  N   UNL     1     -17.557 -42.531  24.344  1.00  0.00    -0.252 NA
ATOM     29  C   UNL     1     -15.280 -43.278  23.870  1.00  0.00     0.056 C 
ATOM     30  C   UNL     1     -14.177 -44.487  25.850  1.00  0.00     0.005 C 
ATOM     31  C   UNL     1     -20.634 -41.356  26.875  1.00  0.00     0.021 A 
ATOM     32  C   UNL     1     -19.761 -41.828  24.677  1.00  0.00     0.049 A 
ATOM     33  C   UNL     1     -14.546 -44.524  24.361  1.00  0.00     0.007 C 
ATOM     34  C   UNL     1     -20.811 -41.433  25.502  1.00  0.00     0.043 A 
ATOM     35  Cl  UNL     1     -22.341 -41.042  24.814  1.00  0.00    -0.084 Cl
ENDBRANCH  19  21
ENDBRANCH  18  19
ENDBRANCH  17  18
ENDBRANCH   1  17
TORSDOF 7
ENDMDL
MODEL 9
REMARK VINA RESULT:    -9.736      4.233     10.617
REMARK INTER + INTRA:         -14.444
REMARK INTER:                 -13.973
REMARK INTRA:                  -0.471
REMARK UNBOUND:                -1.008
REMARK SMILES O=C1C(=NCCCNc2c3c(nc4cc(Cl)ccc24)CCCC3)CC(=O)c2c(O)cccc21
REMARK SMILES IDX 5 1 4 2 3 3 24 4 25 5 27 6 2 7 28 8 33 9 30 10 32 11 31 12
REMARK SMILES IDX 26 13 1 14 29 15 6 17 7 18 8 19 9 21 10 22 19 23 11 24 23 25
REMARK SMILES IDX 18 26 13 27 12 28 20 29 22 30 17 31 14 32 21 33 15 34 16 35
REMARK H PARENT 29 16 8 20
ROOT
ATOM      1  C   UNL     1     -14.626 -43.678  25.491  1.00  0.00     0.144 C 
ENDROOT
BRANCH   1   2
ATOM      2  N   UNL     1     -14.166 -44.551  26.567  1.00  0.00    -0.285 NA
BRANCH   2   3
ATOM      3  C   UNL     1     -13.291 -44.109  27.408  1.00  0.00     0.090 C 
ATOM      4  C   UNL     1     -12.323 -42.994  27.173  1.00  0.00     0.141 C 
ATOM      5  C   UNL     1     -11.125 -42.936  28.078  1.00  0.00     0.173 C 
ATOM      6  C   UNL     1     -10.851 -44.077  28.993  1.00  0.00     0.071 A 
ATOM      7  C   UNL     1     -13.228 -44.762  28.770  1.00  0.00     0.208 C 
ATOM      8  C   UNL     1      -9.583 -44.299  29.550  1.00  0.00     0.127 A 
ATOM      9  C   UNL     1     -11.898 -44.918  29.371  1.00  0.00     0.038 A 
ATOM     10  C   UNL     1      -9.380 -45.314  30.489  1.00  0.00     0.047 A 
ATOM     11  C   UNL     1     -11.705 -45.928  30.323  1.00  0.00     0.013 A 
ATOM     12  C   UNL     1     -10.445 -46.123  30.883  1.00  0.00     0.005 A 
ATOM     13  O   UNL     1     -10.401 -41.945  28.058  1.00  0.00    -0.294 OA
ATOM     14  O   UNL     1     -14.238 -45.172  29.319  1.00  0.00    -0.287 OA
BRANCH   8  15
ATOM     15  O   UNL     1      -8.511 -43.550  29.158  1.00  0.00    -0.507 OA
ATOM     16  H   UNL     1      -8.314 -42.867  29.819  1.00  0.00     0.293 HD
ENDBRANCH   8  15
ENDBRANCH   2   3
ENDBRANCH   1   2
BRANCH   1  17
ATOM     17  C   UNL     1     -15.845 -42.887  25.964  1.00  0.00     0.045 C 
BRANCH  17  18
ATOM     18  C   UNL     1     -16.960 -42.860  24.920  1.00  0.00     0.115 C 
BRANCH  18  19
ATOM     19  N   UNL     1     -18.150 -42.143  25.420  1.00  0.00    -0.384 N 
ATOM     20  H   UNL     1     -18.280 -42.371  26.406  1.00  0.00     0.160 HD
BRANCH  19  21
ATOM     21  C   UNL     1     -19.348 -42.466  24.724  1.00  0.00     0.049 A 
ATOM     22  C   UNL     1     -20.275 -43.385  25.239  1.00  0.00    -0.003 A 
ATOM     23  C   UNL     1     -19.597 -41.874  23.457  1.00  0.00     0.024 A 
ATOM     24  C   UNL     1     -21.379 -43.709  24.448  1.00  0.00     0.046 A 
ATOM     25  C   UNL     1     -20.155 -44.087  26.567  1.00  0.00     0.039 C 
ATOM     26  C   UNL     1     -18.753 -40.897  22.879  1.00  0.00     0.014 A 
ATOM     27  C   UNL     1     -20.753 -42.275  22.752  1.00  0.00     0.074 A 
ATOM     28  N   UNL     1     -21.617 -43.181  23.230  1.00  0.00    -0.252 NA
ATOM     29  C   UNL     1     -22.352 -44.739  24.961  1.00  0.00     0.056 C 
ATOM     30  C   UNL     1     -21.497 -44.128  27.305  1.00  0.00     0.005 C 
ATOM     31  C   UNL     1     -19.035 -40.344  21.632  1.00  0.00     0.021 A 
ATOM     32  C   UNL     1     -21.016 -41.716  21.510  1.00  0.00     0.049 A 
ATOM     33  C   UNL     1     -22.704 -44.470  26.422  1.00  0.00     0.007 C 
ATOM     34  C   UNL     1     -20.169 -40.762  20.951  1.00  0.00     0.043 A 
ATOM     35  Cl  UNL     1     -20.533 -40.092  19.407  1.00  0.00    -0.084 Cl
ENDBRANCH  19  21
ENDBRANCH  18  19
ENDBRANCH  17  18
ENDBRANCH   1  17
TORSDOF 7
ENDMDL
