MODEL 1
REMARK VINA RESULT:    -9.952      0.000      0.000
REMARK INTER + INTRA:         -16.389
REMARK INTER:                 -15.188
REMARK INTRA:                  -1.201
REMARK UNBOUND:                -1.201
REMARK SMILES COc1ccc([C@H](C)NS(=O)(=O)NC(=O)OCc2ccccc2)cc1OC
REMARK SMILES IDX 9 1 7 3 8 4 6 5 3 6 4 7 25 8 5 9 24 10 2 11 1 12 26 13 27 14
REMARK SMILES IDX 10 15 11 16 12 17 13 18 14 19 15 21 16 22 17 23 18 24 19 25
REMARK SMILES IDX 23 26 20 27 22 28 21 29
REMARK H PARENT 9 2 13 20
ROOT
ATOM      1  N   UNL     1     -11.383 -45.178  29.591  1.00  0.00    -0.190 NA
ATOM      2  H   UNL     1     -11.442 -44.165  29.468  1.00  0.00     0.143 HD
ENDROOT
BRANCH   1   3
ATOM      3  C   UNL     1     -11.411 -45.558  31.024  1.00  0.00     0.098 C 
ATOM      4  C   UNL     1      -9.967 -45.821  31.462  1.00  0.00     0.031 C 
BRANCH   3   5
ATOM      5  C   UNL     1     -12.118 -44.490  31.843  1.00  0.00    -0.026 A 
ATOM      6  C   UNL     1     -13.341 -42.509  33.449  1.00  0.00     0.160 A 
ATOM      7  C   UNL     1     -14.113 -43.478  32.802  1.00  0.00     0.051 A 
ATOM      8  C   UNL     1     -11.940 -42.541  33.314  1.00  0.00     0.161 A 
ATOM      9  C   UNL     1     -13.507 -44.464  32.015  1.00  0.00     0.009 A 
ATOM     10  C   UNL     1     -11.345 -43.525  32.513  1.00  0.00     0.055 A 
BRANCH   6  11
ATOM     11  O   UNL     1     -13.851 -41.511  34.240  1.00  0.00    -0.493 OA
ATOM     12  C   UNL     1     -15.213 -41.157  34.061  1.00  0.00     0.278 C 
ENDBRANCH   6  11
BRANCH   8  13
ATOM     13  O   UNL     1     -11.243 -41.570  33.989  1.00  0.00    -0.493 OA
ATOM     14  C   UNL     1     -10.141 -41.988  34.782  1.00  0.00     0.278 C 
ENDBRANCH   8  13
ENDBRANCH   3   5
ENDBRANCH   1   3
BRANCH   1  15
ATOM     15  S   UNL     1     -12.532 -45.891  28.596  1.00  0.00     0.304 S 
ATOM     16  O   UNL     1     -11.824 -46.499  27.500  1.00  0.00    -0.189 OA
ATOM     17  O   UNL     1     -13.402 -46.631  29.474  1.00  0.00    -0.189 OA
BRANCH  15  18
ATOM     18  N   UNL     1     -13.319 -44.526  28.131  1.00  0.00    -0.205 N 
ATOM     19  C   UNL     1     -12.661 -43.473  27.504  1.00  0.00     0.422 C 
ATOM     20  H   UNL     1     -14.234 -44.717  27.743  1.00  0.00     0.188 HD
ATOM     21  O   UNL     1     -11.457 -43.293  27.524  1.00  0.00    -0.223 OA
BRANCH  19  22
ATOM     22  O   UNL     1     -13.559 -42.676  26.871  1.00  0.00    -0.444 OA
BRANCH  22  23
ATOM     23  C   UNL     1     -14.326 -43.310  25.841  1.00  0.00     0.270 C 
BRANCH  23  24
ATOM     24  C   UNL     1     -15.776 -42.932  26.002  1.00  0.00    -0.011 A 
ATOM     25  C   UNL     1     -16.323 -42.735  27.278  1.00  0.00     0.007 A 
ATOM     26  C   UNL     1     -16.608 -42.817  24.880  1.00  0.00     0.007 A 
ATOM     27  C   UNL     1     -17.672 -42.410  27.426  1.00  0.00     0.000 A 
ATOM     28  C   UNL     1     -17.956 -42.494  25.030  1.00  0.00     0.000 A 
ATOM     29  C   UNL     1     -18.487 -42.288  26.302  1.00  0.00     0.000 A 
ENDBRANCH  23  24
ENDBRANCH  22  23
ENDBRANCH  19  22
ENDBRANCH  15  18
ENDBRANCH   1  15
TORSDOF 9
ENDMDL
MODEL 2
REMARK VINA RESULT:    -9.905      0.941      2.270
REMARK INTER + INTRA:         -16.318
REMARK INTER:                 -15.133
REMARK INTRA:                  -1.184
REMARK UNBOUND:                -1.201
REMARK SMILES COc1ccc([C@H](C)NS(=O)(=O)NC(=O)OCc2ccccc2)cc1OC
REMARK SMILES IDX 9 1 7 3 8 4 6 5 3 6 4 7 25 8 5 9 24 10 2 11 1 12 26 13 27 14
REMARK SMILES IDX 10 15 11 16 12 17 13 18 14 19 15 21 16 22 17 23 18 24 19 25
REMARK SMILES IDX 23 26 20 27 22 28 21 29
REMARK H PARENT 9 2 13 20
ROOT
ATOM      1  N   UNL     1     -11.377 -45.244  28.857  1.00  0.00    -0.190 NA
ATOM      2  H   UNL     1     -11.456 -44.225  28.888  1.00  0.00     0.143 HD
ENDROOT
BRANCH   1   3
ATOM      3  C   UNL     1     -10.879 -45.792  30.141  1.00  0.00     0.098 C 
ATOM      4  C   UNL     1      -9.516 -46.438  29.873  1.00  0.00     0.031 C 
BRANCH   3   5
ATOM      5  C   UNL     1     -10.847 -44.707  31.207  1.00  0.00    -0.026 A 
ATOM      6  C   UNL     1     -10.853 -42.618  33.112  1.00  0.00     0.160 A 
ATOM      7  C   UNL     1      -9.723 -43.422  32.941  1.00  0.00     0.051 A 
ATOM      8  C   UNL     1     -11.987 -42.843  32.309  1.00  0.00     0.161 A 
ATOM      9  C   UNL     1      -9.716 -44.449  31.991  1.00  0.00     0.009 A 
ATOM     10  C   UNL     1     -11.974 -43.883  31.371  1.00  0.00     0.055 A 
BRANCH   6  11
ATOM     11  O   UNL     1     -10.945 -41.589  34.015  1.00  0.00    -0.493 OA
ATOM     12  C   UNL     1     -10.100 -41.633  35.154  1.00  0.00     0.278 C 
ENDBRANCH   6  11
BRANCH   8  13
ATOM     13  O   UNL     1     -13.056 -42.007  32.520  1.00  0.00    -0.493 OA
ATOM     14  C   UNL     1     -14.228 -42.575  33.087  1.00  0.00     0.278 C 
ENDBRANCH   8  13
ENDBRANCH   3   5
ENDBRANCH   1   3
BRANCH   1  15
ATOM     15  S   UNL     1     -12.827 -45.862  28.281  1.00  0.00     0.304 S 
ATOM     16  O   UNL     1     -12.535 -46.552  27.053  1.00  0.00    -0.189 OA
ATOM     17  O   UNL     1     -13.453 -46.501  29.411  1.00  0.00    -0.189 OA
BRANCH  15  18
ATOM     18  N   UNL     1     -13.599 -44.436  28.013  1.00  0.00    -0.205 N 
ATOM     19  C   UNL     1     -13.029 -43.421  27.252  1.00  0.00     0.422 C 
ATOM     20  H   UNL     1     -14.590 -44.555  27.846  1.00  0.00     0.188 HD
ATOM     21  O   UNL     1     -11.843 -43.327  26.993  1.00  0.00    -0.223 OA
BRANCH  19  22
ATOM     22  O   UNL     1     -13.988 -42.552  26.844  1.00  0.00    -0.444 OA
BRANCH  22  23
ATOM     23  C   UNL     1     -14.838 -43.022  25.792  1.00  0.00     0.270 C 
BRANCH  23  24
ATOM     24  C   UNL     1     -16.273 -42.733  26.151  1.00  0.00    -0.011 A 
ATOM     25  C   UNL     1     -17.235 -42.555  25.147  1.00  0.00     0.007 A 
ATOM     26  C   UNL     1     -16.655 -42.595  27.492  1.00  0.00     0.007 A 
ATOM     27  C   UNL     1     -18.559 -42.263  25.480  1.00  0.00     0.000 A 
ATOM     28  C   UNL     1     -17.978 -42.302  27.823  1.00  0.00     0.000 A 
ATOM     29  C   UNL     1     -18.930 -42.138  26.818  1.00  0.00     0.000 A 
ENDBRANCH  23  24
ENDBRANCH  22  23
ENDBRANCH  19  22
ENDBRANCH  15  18
ENDBRANCH   1  15
TORSDOF 9
ENDMDL
MODEL 3
REMARK VINA RESULT:    -9.829      2.894      3.818
REMARK INTER + INTRA:         -16.202
REMARK INTER:                 -14.833
REMARK INTRA:                  -1.369
REMARK UNBOUND:                -1.201
REMARK SMILES COc1ccc([C@H](C)NS(=O)(=O)NC(=O)OCc2ccccc2)cc1OC
REMARK SMILES IDX 9 1 7 3 8 4 6 5 3 6 4 7 25 8 5 9 24 10 2 11 1 12 26 13 27 14
REMARK SMILES IDX 10 15 11 16 12 17 13 18 14 19 15 21 16 22 17 23 18 24 19 25
REMARK SMILES IDX 23 26 20 27 22 28 21 29
REMARK H PARENT 9 2 13 20
ROOT
ATOM      1  N   UNL     1      -8.834 -44.892  31.761  1.00  0.00    -0.190 NA
ATOM      2  H   UNL     1      -8.887 -44.484  32.697  1.00  0.00     0.143 HD
ENDROOT
BRANCH   1   3
ATOM      3  C   UNL     1     -10.180 -45.210  31.227  1.00  0.00     0.098 C 
ATOM      4  C   UNL     1     -10.413 -46.712  31.418  1.00  0.00     0.031 C 
BRANCH   3   5
ATOM      5  C   UNL     1     -11.235 -44.335  31.885  1.00  0.00    -0.026 A 
ATOM      6  C   UNL     1     -13.126 -42.705  33.212  1.00  0.00     0.160 A 
ATOM      7  C   UNL     1     -13.544 -43.717  32.343  1.00  0.00     0.051 A 
ATOM      8  C   UNL     1     -11.751 -42.517  33.441  1.00  0.00     0.161 A 
ATOM      9  C   UNL     1     -12.608 -44.530  31.695  1.00  0.00     0.009 A 
ATOM     10  C   UNL     1     -10.822 -43.328  32.776  1.00  0.00     0.055 A 
BRANCH   6  11
ATOM     11  O   UNL     1     -13.974 -41.866  33.891  1.00  0.00    -0.493 OA
ATOM     12  C   UNL     1     -15.208 -41.534  33.274  1.00  0.00     0.278 C 
ENDBRANCH   6  11
BRANCH   8  13
ATOM     13  O   UNL     1     -11.413 -41.516  34.318  1.00  0.00    -0.493 OA
ATOM     14  C   UNL     1     -10.110 -41.555  34.884  1.00  0.00     0.278 C 
ENDBRANCH   8  13
ENDBRANCH   3   5
ENDBRANCH   1   3
BRANCH   1  15
ATOM     15  S   UNL     1      -7.857 -43.907  30.818  1.00  0.00     0.304 S 
ATOM     16  O   UNL     1      -7.496 -42.771  31.624  1.00  0.00    -0.189 OA
ATOM     17  O   UNL     1      -6.884 -44.784  30.218  1.00  0.00    -0.189 OA
BRANCH  15  18
ATOM     18  N   UNL     1      -8.963 -43.513  29.668  1.00  0.00    -0.205 N 
ATOM     19  C   UNL     1      -8.698 -42.568  28.683  1.00  0.00     0.422 C 
ATOM     20  H   UNL     1      -9.474 -44.318  29.326  1.00  0.00     0.188 HD
ATOM     21  O   UNL     1      -7.817 -41.730  28.741  1.00  0.00    -0.223 OA
BRANCH  19  22
ATOM     22  O   UNL     1      -9.568 -42.716  27.652  1.00  0.00    -0.444 OA
BRANCH  22  23
ATOM     23  C   UNL     1     -10.887 -42.207  27.880  1.00  0.00     0.270 C 
BRANCH  23  24
ATOM     24  C   UNL     1     -11.895 -43.266  27.518  1.00  0.00    -0.011 A 
ATOM     25  C   UNL     1     -12.985 -42.957  26.692  1.00  0.00     0.007 A 
ATOM     26  C   UNL     1     -11.781 -44.562  28.038  1.00  0.00     0.007 A 
ATOM     27  C   UNL     1     -13.932 -43.933  26.378  1.00  0.00     0.000 A 
ATOM     28  C   UNL     1     -12.729 -45.536  27.724  1.00  0.00     0.000 A 
ATOM     29  C   UNL     1     -13.803 -45.222  26.893  1.00  0.00     0.000 A 
ENDBRANCH  23  24
ENDBRANCH  22  23
ENDBRANCH  19  22
ENDBRANCH  15  18
ENDBRANCH   1  15
TORSDOF 9
ENDMDL
MODEL 4
REMARK VINA RESULT:    -9.430      2.601      8.781
REMARK INTER + INTRA:         -15.592
REMARK INTER:                 -14.825
REMARK INTRA:                  -0.767
REMARK UNBOUND:                -1.201
REMARK SMILES COc1ccc([C@H](C)NS(=O)(=O)NC(=O)OCc2ccccc2)cc1OC
REMARK SMILES IDX 9 1 7 3 8 4 6 5 3 6 4 7 25 8 5 9 24 10 2 11 1 12 26 13 27 14
REMARK SMILES IDX 10 15 11 16 12 17 13 18 14 19 15 21 16 22 17 23 18 24 19 25
REMARK SMILES IDX 23 26 20 27 22 28 21 29
REMARK H PARENT 9 2 13 20
ROOT
ATOM      1  N   UNL     1     -15.301 -42.420  26.954  1.00  0.00    -0.190 NA
ATOM      2  H   UNL     1     -15.233 -41.888  26.084  1.00  0.00     0.143 HD
ENDROOT
BRANCH   1   3
ATOM      3  C   UNL     1     -16.698 -42.832  27.234  1.00  0.00     0.098 C 
ATOM      4  C   UNL     1     -17.105 -42.215  28.575  1.00  0.00     0.031 C 
BRANCH   3   5
ATOM      5  C   UNL     1     -17.608 -42.448  26.078  1.00  0.00    -0.026 A 
ATOM      6  C   UNL     1     -19.204 -41.679  23.874  1.00  0.00     0.160 A 
ATOM      7  C   UNL     1     -19.724 -41.658  25.171  1.00  0.00     0.051 A 
ATOM      8  C   UNL     1     -17.866 -42.066  23.674  1.00  0.00     0.161 A 
ATOM      9  C   UNL     1     -18.931 -42.029  26.263  1.00  0.00     0.009 A 
ATOM     10  C   UNL     1     -17.085 -42.448  24.772  1.00  0.00     0.055 A 
BRANCH   6  11
ATOM     11  O   UNL     1     -19.908 -41.328  22.750  1.00  0.00    -0.493 OA
ATOM     12  C   UNL     1     -20.372 -39.991  22.651  1.00  0.00     0.278 C 
ENDBRANCH   6  11
BRANCH   8  13
ATOM     13  O   UNL     1     -17.417 -42.049  22.376  1.00  0.00    -0.493 OA
ATOM     14  C   UNL     1     -16.524 -41.007  22.008  1.00  0.00     0.278 C 
ENDBRANCH   8  13
ENDBRANCH   3   5
ENDBRANCH   1   3
BRANCH   1  15
ATOM     15  S   UNL     1     -14.146 -43.636  26.913  1.00  0.00     0.304 S 
ATOM     16  O   UNL     1     -14.530 -44.550  25.869  1.00  0.00    -0.189 OA
ATOM     17  O   UNL     1     -12.872 -42.963  26.936  1.00  0.00    -0.189 OA
BRANCH  15  18
ATOM     18  N   UNL     1     -14.416 -44.266  28.406  1.00  0.00    -0.205 N 
ATOM     19  C   UNL     1     -13.574 -45.219  28.968  1.00  0.00     0.422 C 
ATOM     20  H   UNL     1     -14.737 -43.571  29.070  1.00  0.00     0.188 HD
ATOM     21  O   UNL     1     -12.787 -45.907  28.344  1.00  0.00    -0.223 OA
BRANCH  19  22
ATOM     22  O   UNL     1     -13.761 -45.270  30.311  1.00  0.00    -0.444 OA
BRANCH  22  23
ATOM     23  C   UNL     1     -12.967 -46.238  31.007  1.00  0.00     0.270 C 
BRANCH  23  24
ATOM     24  C   UNL     1     -11.647 -45.616  31.383  1.00  0.00    -0.011 A 
ATOM     25  C   UNL     1     -10.454 -46.337  31.236  1.00  0.00     0.007 A 
ATOM     26  C   UNL     1     -11.600 -44.325  31.925  1.00  0.00     0.007 A 
ATOM     27  C   UNL     1      -9.234 -45.768  31.607  1.00  0.00     0.000 A 
ATOM     28  C   UNL     1     -10.380 -43.758  32.298  1.00  0.00     0.000 A 
ATOM     29  C   UNL     1      -9.198 -44.479  32.136  1.00  0.00     0.000 A 
ENDBRANCH  23  24
ENDBRANCH  22  23
ENDBRANCH  19  22
ENDBRANCH  15  18
ENDBRANCH   1  15
TORSDOF 9
ENDMDL
MODEL 5
REMARK VINA RESULT:    -9.384      2.085      3.455
REMARK INTER + INTRA:         -15.523
REMARK INTER:                 -14.454
REMARK INTRA:                  -1.069
REMARK UNBOUND:                -1.201
REMARK SMILES COc1ccc([C@H](C)NS(=O)(=O)NC(=O)OCc2ccccc2)cc1OC
REMARK SMILES IDX 9 1 7 3 8 4 6 5 3 6 4 7 25 8 5 9 24 10 2 11 1 12 26 13 27 14
REMARK SMILES IDX 10 15 11 16 12 17 13 18 14 19 15 21 16 22 17 23 18 24 19 25
REMARK SMILES IDX 23 26 20 27 22 28 21 29
REMARK H PARENT 9 2 13 20
ROOT
ATOM      1  N   UNL     1     -11.747 -44.713  29.798  1.00  0.00    -0.190 NA
ATOM      2  H   UNL     1     -11.521 -43.757  30.080  1.00  0.00     0.143 HD
ENDROOT
BRANCH   1   3
ATOM      3  C   UNL     1     -10.809 -45.695  30.394  1.00  0.00     0.098 C 
ATOM      4  C   UNL     1     -10.239 -46.544  29.254  1.00  0.00     0.031 C 
BRANCH   3   5
ATOM      5  C   UNL     1      -9.750 -44.985  31.222  1.00  0.00    -0.026 A 
ATOM      6  C   UNL     1      -7.838 -43.557  32.739  1.00  0.00     0.160 A 
ATOM      7  C   UNL     1      -7.453 -44.645  31.951  1.00  0.00     0.051 A 
ATOM      8  C   UNL     1      -9.188 -43.161  32.754  1.00  0.00     0.161 A 
ATOM      9  C   UNL     1      -8.398 -45.345  31.192  1.00  0.00     0.009 A 
ATOM     10  C   UNL     1     -10.128 -43.877  32.002  1.00  0.00     0.055 A 
BRANCH   6  11
ATOM     11  O   UNL     1      -6.979 -42.814  33.509  1.00  0.00    -0.493 OA
ATOM     12  C   UNL     1      -5.620 -43.217  33.559  1.00  0.00     0.278 C 
ENDBRANCH   6  11
BRANCH   8  13
ATOM     13  O   UNL     1      -9.493 -42.075  33.538  1.00  0.00    -0.493 OA
ATOM     14  C   UNL     1     -10.563 -42.216  34.462  1.00  0.00     0.278 C 
ENDBRANCH   8  13
ENDBRANCH   3   5
ENDBRANCH   1   3
BRANCH   1  15
ATOM     15  S   UNL     1     -13.383 -44.965  30.073  1.00  0.00     0.304 S 
ATOM     16  O   UNL     1     -13.590 -46.388  30.126  1.00  0.00    -0.189 OA
ATOM     17  O   UNL     1     -13.737 -44.080  31.154  1.00  0.00    -0.189 OA
BRANCH  15  18
ATOM     18  N   UNL     1     -13.957 -44.317  28.677  1.00  0.00    -0.205 N 
ATOM     19  C   UNL     1     -13.758 -44.928  27.443  1.00  0.00     0.422 C 
ATOM     20  H   UNL     1     -14.883 -43.919  28.783  1.00  0.00     0.188 HD
ATOM     21  O   UNL     1     -12.910 -45.771  27.213  1.00  0.00    -0.223 OA
BRANCH  19  22
ATOM     22  O   UNL     1     -14.643 -44.444  26.536  1.00  0.00    -0.444 OA
BRANCH  22  23
ATOM     23  C   UNL     1     -14.837 -43.025  26.562  1.00  0.00     0.270 C 
BRANCH  23  24
ATOM     24  C   UNL     1     -16.310 -42.725  26.453  1.00  0.00    -0.011 A 
ATOM     25  C   UNL     1     -17.075 -42.490  27.604  1.00  0.00     0.007 A 
ATOM     26  C   UNL     1     -16.942 -42.721  25.203  1.00  0.00     0.007 A 
ATOM     27  C   UNL     1     -18.444 -42.237  27.504  1.00  0.00     0.000 A 
ATOM     28  C   UNL     1     -18.311 -42.469  25.104  1.00  0.00     0.000 A 
ATOM     29  C   UNL     1     -19.061 -42.225  26.254  1.00  0.00     0.000 A 
ENDBRANCH  23  24
ENDBRANCH  22  23
ENDBRANCH  19  22
ENDBRANCH  15  18
ENDBRANCH   1  15
TORSDOF 9
ENDMDL
MODEL 6
REMARK VINA RESULT:    -9.349      2.723      8.879
REMARK INTER + INTRA:         -15.469
REMARK INTER:                 -14.685
REMARK INTRA:                  -0.784
REMARK UNBOUND:                -1.201
REMARK SMILES COc1ccc([C@H](C)NS(=O)(=O)NC(=O)OCc2ccccc2)cc1OC
REMARK SMILES IDX 9 1 7 3 8 4 6 5 3 6 4 7 25 8 5 9 24 10 2 11 1 12 26 13 27 14
REMARK SMILES IDX 10 15 11 16 12 17 13 18 14 19 15 21 16 22 17 23 18 24 19 25
REMARK SMILES IDX 23 26 20 27 22 28 21 29
REMARK H PARENT 9 2 13 20
ROOT
ATOM      1  N   UNL     1     -15.148 -42.487  27.013  1.00  0.00    -0.190 NA
ATOM      2  H   UNL     1     -15.002 -41.892  26.194  1.00  0.00     0.143 HD
ENDROOT
BRANCH   1   3
ATOM      3  C   UNL     1     -16.549 -42.963  27.101  1.00  0.00     0.098 C 
ATOM      4  C   UNL     1     -17.127 -42.462  28.428  1.00  0.00     0.031 C 
BRANCH   3   5
ATOM      5  C   UNL     1     -17.339 -42.521  25.880  1.00  0.00    -0.026 A 
ATOM      6  C   UNL     1     -18.910 -41.745  23.661  1.00  0.00     0.160 A 
ATOM      7  C   UNL     1     -17.606 -42.214  23.480  1.00  0.00     0.051 A 
ATOM      8  C   UNL     1     -19.447 -41.684  24.960  1.00  0.00     0.161 A 
ATOM      9  C   UNL     1     -16.833 -42.607  24.578  1.00  0.00     0.009 A 
ATOM     10  C   UNL     1     -18.659 -42.067  26.053  1.00  0.00     0.055 A 
BRANCH   6  11
ATOM     11  O   UNL     1     -19.739 -41.343  22.643  1.00  0.00    -0.493 OA
ATOM     12  C   UNL     1     -19.172 -40.568  21.598  1.00  0.00     0.278 C 
ENDBRANCH   6  11
BRANCH   8  13
ATOM     13  O   UNL     1     -20.739 -41.228  25.062  1.00  0.00    -0.493 OA
ATOM     14  C   UNL     1     -21.226 -40.932  26.363  1.00  0.00     0.278 C 
ENDBRANCH   8  13
ENDBRANCH   3   5
ENDBRANCH   1   3
BRANCH   1  15
ATOM     15  S   UNL     1     -13.947 -43.660  27.023  1.00  0.00     0.304 S 
ATOM     16  O   UNL     1     -14.360 -44.696  26.113  1.00  0.00    -0.189 OA
ATOM     17  O   UNL     1     -12.704 -42.945  26.885  1.00  0.00    -0.189 OA
BRANCH  15  18
ATOM     18  N   UNL     1     -14.093 -44.130  28.590  1.00  0.00    -0.205 N 
ATOM     19  C   UNL     1     -13.332 -45.165  29.123  1.00  0.00     0.422 C 
ATOM     20  H   UNL     1     -14.206 -43.348  29.223  1.00  0.00     0.188 HD
ATOM     21  O   UNL     1     -12.756 -46.014  28.469  1.00  0.00    -0.223 OA
BRANCH  19  22
ATOM     22  O   UNL     1     -13.331 -45.090  30.478  1.00  0.00    -0.444 OA
BRANCH  22  23
ATOM     23  C   UNL     1     -12.621 -46.136  31.153  1.00  0.00     0.270 C 
BRANCH  23  24
ATOM     24  C   UNL     1     -11.232 -45.656  31.483  1.00  0.00    -0.011 A 
ATOM     25  C   UNL     1     -11.029 -44.376  32.017  1.00  0.00     0.007 A 
ATOM     26  C   UNL     1     -10.120 -46.467  31.219  1.00  0.00     0.007 A 
ATOM     27  C   UNL     1      -9.739 -43.924  32.300  1.00  0.00     0.000 A 
ATOM     28  C   UNL     1      -8.831 -46.014  31.501  1.00  0.00     0.000 A 
ATOM     29  C   UNL     1      -8.641 -44.744  32.043  1.00  0.00     0.000 A 
ENDBRANCH  23  24
ENDBRANCH  22  23
ENDBRANCH  19  22
ENDBRANCH  15  18
ENDBRANCH   1  15
TORSDOF 9
ENDMDL
MODEL 7
REMARK VINA RESULT:    -9.329      2.198      8.206
REMARK INTER + INTRA:         -15.438
REMARK INTER:                 -15.198
REMARK INTRA:                  -0.240
REMARK UNBOUND:                -1.201
REMARK SMILES COc1ccc([C@H](C)NS(=O)(=O)NC(=O)OCc2ccccc2)cc1OC
REMARK SMILES IDX 9 1 7 3 8 4 6 5 3 6 4 7 25 8 5 9 24 10 2 11 1 12 26 13 27 14
REMARK SMILES IDX 10 15 11 16 12 17 13 18 14 19 15 21 16 22 17 23 18 24 19 25
REMARK SMILES IDX 23 26 20 27 22 28 21 29
REMARK H PARENT 9 2 13 20
ROOT
ATOM      1  N   UNL     1     -14.201 -44.005  27.775  1.00  0.00    -0.190 NA
ATOM      2  H   UNL     1     -14.647 -43.505  28.548  1.00  0.00     0.143 HD
ENDROOT
BRANCH   1   3
ATOM      3  C   UNL     1     -14.580 -43.432  26.462  1.00  0.00     0.098 C 
ATOM      4  C   UNL     1     -14.271 -44.481  25.390  1.00  0.00     0.031 C 
BRANCH   3   5
ATOM      5  C   UNL     1     -16.031 -42.978  26.478  1.00  0.00    -0.026 A 
ATOM      6  C   UNL     1     -18.706 -42.064  26.409  1.00  0.00     0.160 A 
ATOM      7  C   UNL     1     -18.055 -42.268  27.629  1.00  0.00     0.051 A 
ATOM      8  C   UNL     1     -18.010 -42.296  25.208  1.00  0.00     0.161 A 
ATOM      9  C   UNL     1     -16.728 -42.711  27.662  1.00  0.00     0.009 A 
ATOM     10  C   UNL     1     -16.686 -42.752  25.254  1.00  0.00     0.055 A 
BRANCH   6  11
ATOM     11  O   UNL     1     -20.002 -41.630  26.284  1.00  0.00    -0.493 OA
ATOM     12  C   UNL     1     -21.011 -42.354  26.970  1.00  0.00     0.278 C 
ENDBRANCH   6  11
BRANCH   8  13
ATOM     13  O   UNL     1     -18.706 -42.061  24.048  1.00  0.00    -0.493 OA
ATOM     14  C   UNL     1     -18.003 -42.213  22.823  1.00  0.00     0.278 C 
ENDBRANCH   8  13
ENDBRANCH   3   5
ENDBRANCH   1   3
BRANCH   1  15
ATOM     15  S   UNL     1     -12.560 -44.119  28.107  1.00  0.00     0.304 S 
ATOM     16  O   UNL     1     -12.115 -45.393  27.607  1.00  0.00    -0.189 OA
ATOM     17  O   UNL     1     -11.989 -42.867  27.682  1.00  0.00    -0.189 OA
BRANCH  15  18
ATOM     18  N   UNL     1     -12.652 -44.106  29.748  1.00  0.00    -0.205 N 
ATOM     19  C   UNL     1     -13.146 -45.188  30.468  1.00  0.00     0.422 C 
ATOM     20  H   UNL     1     -11.846 -43.670  30.179  1.00  0.00     0.188 HD
ATOM     21  O   UNL     1     -13.836 -46.077  30.003  1.00  0.00    -0.223 OA
BRANCH  19  22
ATOM     22  O   UNL     1     -12.748 -45.105  31.762  1.00  0.00    -0.444 OA
BRANCH  22  23
ATOM     23  C   UNL     1     -11.674 -44.193  32.019  1.00  0.00     0.270 C 
BRANCH  23  24
ATOM     24  C   UNL     1     -10.362 -44.908  31.831  1.00  0.00    -0.011 A 
ATOM     25  C   UNL     1      -9.151 -44.262  32.118  1.00  0.00     0.007 A 
ATOM     26  C   UNL     1     -10.333 -46.214  31.323  1.00  0.00     0.007 A 
ATOM     27  C   UNL     1      -7.935 -44.918  31.919  1.00  0.00     0.000 A 
ATOM     28  C   UNL     1      -9.117 -46.868  31.123  1.00  0.00     0.000 A 
ATOM     29  C   UNL     1      -7.919 -46.221  31.423  1.00  0.00     0.000 A 
ENDBRANCH  23  24
ENDBRANCH  22  23
ENDBRANCH  19  22
ENDBRANCH  15  18
ENDBRANCH   1  15
TORSDOF 9
ENDMDL
MODEL 8
REMARK VINA RESULT:    -9.150      1.585      3.025
REMARK INTER + INTRA:         -15.165
REMARK INTER:                 -15.252
REMARK INTRA:                   0.087
REMARK UNBOUND:                -1.201
REMARK SMILES COc1ccc([C@H](C)NS(=O)(=O)NC(=O)OCc2ccccc2)cc1OC
REMARK SMILES IDX 9 1 7 3 8 4 6 5 3 6 4 7 25 8 5 9 24 10 2 11 1 12 26 13 27 14
REMARK SMILES IDX 10 15 11 16 12 17 13 18 14 19 15 21 16 22 17 23 18 24 19 25
REMARK SMILES IDX 23 26 20 27 22 28 21 29
REMARK H PARENT 9 2 13 20
ROOT
ATOM      1  N   UNL     1     -13.691 -45.435  29.348  1.00  0.00    -0.190 NA
ATOM      2  H   UNL     1     -14.339 -46.199  29.146  1.00  0.00     0.143 HD
ENDROOT
BRANCH   1   3
ATOM      3  C   UNL     1     -12.485 -45.914  30.065  1.00  0.00     0.098 C 
ATOM      4  C   UNL     1     -11.424 -46.253  29.014  1.00  0.00     0.031 C 
BRANCH   3   5
ATOM      5  C   UNL     1     -12.031 -44.886  31.089  1.00  0.00    -0.026 A 
ATOM      6  C   UNL     1     -11.262 -42.891  32.939  1.00  0.00     0.160 A 
ATOM      7  C   UNL     1     -10.327 -43.810  32.454  1.00  0.00     0.051 A 
ATOM      8  C   UNL     1     -12.591 -42.951  32.481  1.00  0.00     0.161 A 
ATOM      9  C   UNL     1     -10.706 -44.791  31.531  1.00  0.00     0.009 A 
ATOM     10  C   UNL     1     -12.962 -43.946  31.566  1.00  0.00     0.055 A 
BRANCH   6  11
ATOM     11  O   UNL     1     -10.976 -41.897  33.842  1.00  0.00    -0.493 OA
ATOM     12  C   UNL     1      -9.746 -41.975  34.543  1.00  0.00     0.278 C 
ENDBRANCH   6  11
BRANCH   8  13
ATOM     13  O   UNL     1     -13.451 -42.009  32.987  1.00  0.00    -0.493 OA
ATOM     14  C   UNL     1     -14.421 -42.448  33.928  1.00  0.00     0.278 C 
ENDBRANCH   8  13
ENDBRANCH   3   5
ENDBRANCH   1   3
BRANCH   1  15
ATOM     15  S   UNL     1     -13.438 -44.579  27.927  1.00  0.00     0.304 S 
ATOM     16  O   UNL     1     -12.352 -43.666  28.170  1.00  0.00    -0.189 OA
ATOM     17  O   UNL     1     -13.411 -45.567  26.878  1.00  0.00    -0.189 OA
BRANCH  15  18
ATOM     18  N   UNL     1     -14.884 -43.804  27.859  1.00  0.00    -0.205 N 
ATOM     19  C   UNL     1     -15.221 -42.961  26.806  1.00  0.00     0.422 C 
ATOM     20  H   UNL     1     -15.653 -44.385  28.170  1.00  0.00     0.188 HD
ATOM     21  O   UNL     1     -14.424 -42.458  26.034  1.00  0.00    -0.223 OA
BRANCH  19  22
ATOM     22  O   UNL     1     -16.565 -42.779  26.767  1.00  0.00    -0.444 OA
BRANCH  22  23
ATOM     23  C   UNL     1     -17.149 -42.771  25.460  1.00  0.00     0.270 C 
BRANCH  23  24
ATOM     24  C   UNL     1     -18.523 -42.159  25.535  1.00  0.00    -0.011 A 
ATOM     25  C   UNL     1     -19.173 -41.725  24.371  1.00  0.00     0.007 A 
ATOM     26  C   UNL     1     -19.150 -41.974  26.774  1.00  0.00     0.007 A 
ATOM     27  C   UNL     1     -20.436 -41.135  24.446  1.00  0.00     0.000 A 
ATOM     28  C   UNL     1     -20.412 -41.382  26.847  1.00  0.00     0.000 A 
ATOM     29  C   UNL     1     -21.055 -40.965  25.683  1.00  0.00     0.000 A 
ENDBRANCH  23  24
ENDBRANCH  22  23
ENDBRANCH  19  22
ENDBRANCH  15  18
ENDBRANCH   1  15
TORSDOF 9
ENDMDL
MODEL 9
REMARK VINA RESULT:    -9.025      1.481      2.252
REMARK INTER + INTRA:         -14.975
REMARK INTER:                 -14.365
REMARK INTRA:                  -0.610
REMARK UNBOUND:                -1.201
REMARK SMILES COc1ccc([C@H](C)NS(=O)(=O)NC(=O)OCc2ccccc2)cc1OC
REMARK SMILES IDX 9 1 7 3 8 4 6 5 3 6 4 7 25 8 5 9 24 10 2 11 1 12 26 13 27 14
REMARK SMILES IDX 10 15 11 16 12 17 13 18 14 19 15 21 16 22 17 23 18 24 19 25
REMARK SMILES IDX 23 26 20 27 22 28 21 29
REMARK H PARENT 9 2 13 20
ROOT
ATOM      1  N   UNL     1      -9.263 -44.177  29.997  1.00  0.00    -0.190 NA
ATOM      2  H   UNL     1      -8.812 -43.554  30.671  1.00  0.00     0.143 HD
ENDROOT
BRANCH   1   3
ATOM      3  C   UNL     1     -10.263 -45.057  30.648  1.00  0.00     0.098 C 
ATOM      4  C   UNL     1      -9.499 -46.126  31.435  1.00  0.00     0.031 C 
BRANCH   3   5
ATOM      5  C   UNL     1     -11.221 -44.235  31.497  1.00  0.00    -0.026 A 
ATOM      6  C   UNL     1     -12.920 -42.712  33.166  1.00  0.00     0.160 A 
ATOM      7  C   UNL     1     -13.449 -43.673  32.300  1.00  0.00     0.051 A 
ATOM      8  C   UNL     1     -11.527 -42.523  33.218  1.00  0.00     0.161 A 
ATOM      9  C   UNL     1     -12.607 -44.434  31.481  1.00  0.00     0.009 A 
ATOM     10  C   UNL     1     -10.694 -43.280  32.385  1.00  0.00     0.055 A 
BRANCH   6  11
ATOM     11  O   UNL     1     -13.670 -41.925  34.004  1.00  0.00    -0.493 OA
ATOM     12  C   UNL     1     -14.992 -41.604  33.600  1.00  0.00     0.278 C 
ENDBRANCH   6  11
BRANCH   8  13
ATOM     13  O   UNL     1     -11.076 -41.573  34.102  1.00  0.00    -0.493 OA
ATOM     14  C   UNL     1      -9.970 -41.919  34.925  1.00  0.00     0.278 C 
ENDBRANCH   8  13
ENDBRANCH   3   5
ENDBRANCH   1   3
BRANCH   1  15
ATOM     15  S   UNL     1      -9.797 -43.248  28.706  1.00  0.00     0.304 S 
ATOM     16  O   UNL     1     -10.077 -41.932  29.218  1.00  0.00    -0.189 OA
ATOM     17  O   UNL     1      -8.861 -43.491  27.638  1.00  0.00    -0.189 OA
BRANCH  15  18
ATOM     18  N   UNL     1     -11.175 -44.080  28.374  1.00  0.00    -0.205 N 
ATOM     19  C   UNL     1     -12.170 -43.561  27.553  1.00  0.00     0.422 C 
ATOM     20  H   UNL     1     -11.008 -45.068  28.227  1.00  0.00     0.188 HD
ATOM     21  O   UNL     1     -12.297 -42.383  27.273  1.00  0.00    -0.223 OA
BRANCH  19  22
ATOM     22  O   UNL     1     -12.977 -44.559  27.114  1.00  0.00    -0.444 OA
BRANCH  22  23
ATOM     23  C   UNL     1     -14.372 -44.390  27.392  1.00  0.00     0.270 C 
BRANCH  23  24
ATOM     24  C   UNL     1     -15.057 -43.839  26.168  1.00  0.00    -0.011 A 
ATOM     25  C   UNL     1     -16.175 -43.003  26.294  1.00  0.00     0.007 A 
ATOM     26  C   UNL     1     -14.611 -44.191  24.887  1.00  0.00     0.007 A 
ATOM     27  C   UNL     1     -16.823 -42.513  25.158  1.00  0.00     0.000 A 
ATOM     28  C   UNL     1     -15.260 -43.702  23.753  1.00  0.00     0.000 A 
ATOM     29  C   UNL     1     -16.364 -42.862  23.889  1.00  0.00     0.000 A 
ENDBRANCH  23  24
ENDBRANCH  22  23
ENDBRANCH  19  22
ENDBRANCH  15  18
ENDBRANCH   1  15
TORSDOF 9
ENDMDL
