MODEL 1
REMARK VINA RESULT:    -7.401      0.000      0.000
REMARK INTER + INTRA:         -10.231
REMARK INTER:                  -9.781
REMARK INTRA:                  -0.450
REMARK UNBOUND:                -0.450
REMARK SMILES COc1cccc(OC)c1[C@H](C)NS(N)(=O)=O
REMARK SMILES IDX 11 1 12 2 10 3 3 4 4 5 5 6 7 7 6 8 2 9 1 10 8 11 9 12 13 13
REMARK SMILES IDX 14 15 16 16 17 17 15 18
REMARK H PARENT 13 14 15 19 15 20
ROOT
ATOM      1  C   UNL     1     -11.172 -42.886  29.047  1.00  0.00     0.105 C 
ATOM      2  C   UNL     1     -10.201 -42.176  28.099  1.00  0.00     0.031 C 
ENDROOT
BRANCH   1   3
ATOM      3  C   UNL     1     -11.575 -44.238  28.445  1.00  0.00     0.054 A 
ATOM      4  C   UNL     1     -10.773 -45.393  28.625  1.00  0.00     0.127 A 
ATOM      5  C   UNL     1     -11.167 -46.610  28.059  1.00  0.00     0.047 A 
ATOM      6  C   UNL     1     -12.336 -46.692  27.308  1.00  0.00     0.008 A 
ATOM      7  C   UNL     1     -12.751 -44.333  27.663  1.00  0.00     0.127 A 
ATOM      8  C   UNL     1     -13.122 -45.561  27.107  1.00  0.00     0.047 A 
BRANCH   4   9
ATOM      9  O   UNL     1      -9.623 -45.232  29.361  1.00  0.00    -0.496 OA
ATOM     10  C   UNL     1      -9.281 -46.256  30.289  1.00  0.00     0.278 C 
ENDBRANCH   4   9
BRANCH   7  11
ATOM     11  O   UNL     1     -13.459 -43.172  27.485  1.00  0.00    -0.496 OA
ATOM     12  C   UNL     1     -13.946 -42.881  26.180  1.00  0.00     0.278 C 
ENDBRANCH   7  11
ENDBRANCH   1   3
BRANCH   1  13
ATOM     13  N   UNL     1     -10.576 -43.067  30.392  1.00  0.00    -0.195 NA
ATOM     14  H   UNL     1      -9.801 -42.419  30.542  1.00  0.00     0.143 HD
BRANCH  13  15
ATOM     15  S   UNL     1     -11.546 -43.222  31.715  1.00  0.00     0.274 S 
ATOM     16  O   UNL     1     -12.129 -44.534  31.777  1.00  0.00    -0.195 OA
ATOM     17  O   UNL     1     -12.331 -42.020  31.825  1.00  0.00    -0.195 OA
BRANCH  15  18
ATOM     18  N   UNL     1     -10.387 -43.127  32.901  1.00  0.00    -0.216 NA
ATOM     19  H   UNL     1      -9.487 -43.403  32.513  1.00  0.00     0.138 HD
ATOM     20  H   UNL     1     -10.660 -43.738  33.670  1.00  0.00     0.138 HD
ENDBRANCH  15  18
ENDBRANCH  13  15
ENDBRANCH   1  13
TORSDOF 6
ENDMDL
MODEL 2
REMARK VINA RESULT:    -7.315      0.059      3.156
REMARK INTER + INTRA:         -10.117
REMARK INTER:                  -9.823
REMARK INTRA:                  -0.294
REMARK UNBOUND:                -0.450
REMARK SMILES COc1cccc(OC)c1[C@H](C)NS(N)(=O)=O
REMARK SMILES IDX 11 1 12 2 10 3 3 4 4 5 5 6 7 7 6 8 2 9 1 10 8 11 9 12 13 13
REMARK SMILES IDX 14 15 16 16 17 17 15 18
REMARK H PARENT 13 14 15 19 15 20
ROOT
ATOM      1  C   UNL     1     -11.136 -42.887  29.038  1.00  0.00     0.105 C 
ATOM      2  C   UNL     1     -10.152 -42.173  28.105  1.00  0.00     0.031 C 
ENDROOT
BRANCH   1   3
ATOM      3  C   UNL     1     -11.559 -44.219  28.409  1.00  0.00     0.054 A 
ATOM      4  C   UNL     1     -12.743 -44.326  27.635  1.00  0.00     0.127 A 
ATOM      5  C   UNL     1     -13.104 -45.558  27.080  1.00  0.00     0.047 A 
ATOM      6  C   UNL     1     -12.314 -46.685  27.291  1.00  0.00     0.008 A 
ATOM      7  C   UNL     1     -10.777 -45.378  28.631  1.00  0.00     0.127 A 
ATOM      8  C   UNL     1     -11.160 -46.598  28.066  1.00  0.00     0.047 A 
BRANCH   4   9
ATOM      9  O   UNL     1     -13.482 -43.177  27.486  1.00  0.00    -0.496 OA
ATOM     10  C   UNL     1     -14.087 -42.937  26.220  1.00  0.00     0.278 C 
ENDBRANCH   4   9
BRANCH   7  11
ATOM     11  O   UNL     1      -9.671 -45.222  29.427  1.00  0.00    -0.496 OA
ATOM     12  C   UNL     1      -9.293 -46.309  30.263  1.00  0.00     0.278 C 
ENDBRANCH   7  11
ENDBRANCH   1   3
BRANCH   1  13
ATOM     13  N   UNL     1     -10.544 -43.103  30.379  1.00  0.00    -0.195 NA
ATOM     14  H   UNL     1      -9.739 -42.493  30.530  1.00  0.00     0.143 HD
BRANCH  13  15
ATOM     15  S   UNL     1     -11.515 -43.220  31.705  1.00  0.00     0.274 S 
ATOM     16  O   UNL     1     -12.085 -44.535  31.813  1.00  0.00    -0.195 OA
ATOM     17  O   UNL     1     -12.313 -42.023  31.770  1.00  0.00    -0.195 OA
BRANCH  15  18
ATOM     18  N   UNL     1     -10.360 -43.071  32.889  1.00  0.00    -0.216 NA
ATOM     19  H   UNL     1     -10.782 -43.267  33.795  1.00  0.00     0.138 HD
ATOM     20  H   UNL     1      -9.981 -42.125  32.855  1.00  0.00     0.138 HD
ENDBRANCH  15  18
ENDBRANCH  13  15
ENDBRANCH   1  13
TORSDOF 6
ENDMDL
MODEL 3
REMARK VINA RESULT:    -7.145      3.279      5.406
REMARK INTER + INTRA:          -9.892
REMARK INTER:                  -9.486
REMARK INTRA:                  -0.406
REMARK UNBOUND:                -0.450
REMARK SMILES COc1cccc(OC)c1[C@H](C)NS(N)(=O)=O
REMARK SMILES IDX 11 1 12 2 10 3 3 4 4 5 5 6 7 7 6 8 2 9 1 10 8 11 9 12 13 13
REMARK SMILES IDX 14 15 16 16 17 17 15 18
REMARK H PARENT 13 14 15 19 15 20
ROOT
ATOM      1  C   UNL     1     -11.008 -43.770  30.147  1.00  0.00     0.105 C 
ATOM      2  C   UNL     1     -10.825 -42.622  29.148  1.00  0.00     0.031 C 
ENDROOT
BRANCH   1   3
ATOM      3  C   UNL     1     -10.519 -43.325  31.530  1.00  0.00     0.054 A 
ATOM      4  C   UNL     1     -11.394 -42.698  32.455  1.00  0.00     0.127 A 
ATOM      5  C   UNL     1     -10.915 -42.300  33.707  1.00  0.00     0.047 A 
ATOM      6  C   UNL     1      -9.581 -42.503  34.049  1.00  0.00     0.008 A 
ATOM      7  C   UNL     1      -9.161 -43.507  31.885  1.00  0.00     0.127 A 
ATOM      8  C   UNL     1      -8.707 -43.099  33.143  1.00  0.00     0.047 A 
BRANCH   4   9
ATOM      9  O   UNL     1     -12.691 -42.513  32.041  1.00  0.00    -0.496 OA
ATOM     10  C   UNL     1     -13.697 -42.398  33.042  1.00  0.00     0.278 C 
ENDBRANCH   4   9
BRANCH   7  11
ATOM     11  O   UNL     1      -8.354 -44.073  30.932  1.00  0.00    -0.496 OA
ATOM     12  C   UNL     1      -7.419 -45.060  31.350  1.00  0.00     0.278 C 
ENDBRANCH   7  11
ENDBRANCH   1   3
BRANCH   1  13
ATOM     13  N   UNL     1     -12.422 -44.210  30.206  1.00  0.00    -0.195 NA
ATOM     14  H   UNL     1     -12.966 -43.808  29.441  1.00  0.00     0.143 HD
BRANCH  13  15
ATOM     15  S   UNL     1     -12.787 -45.791  30.488  1.00  0.00     0.274 S 
ATOM     16  O   UNL     1     -11.733 -46.442  31.217  1.00  0.00    -0.195 OA
ATOM     17  O   UNL     1     -13.341 -46.337  29.277  1.00  0.00    -0.195 OA
BRANCH  15  18
ATOM     18  N   UNL     1     -14.065 -45.583  31.528  1.00  0.00    -0.216 NA
ATOM     19  H   UNL     1     -13.840 -44.847  32.194  1.00  0.00     0.138 HD
ATOM     20  H   UNL     1     -14.245 -46.468  32.003  1.00  0.00     0.138 HD
ENDBRANCH  15  18
ENDBRANCH  13  15
ENDBRANCH   1  13
TORSDOF 6
ENDMDL
MODEL 4
REMARK VINA RESULT:    -6.901      1.883      3.807
REMARK INTER + INTRA:          -9.570
REMARK INTER:                  -9.119
REMARK INTRA:                  -0.451
REMARK UNBOUND:                -0.450
REMARK SMILES COc1cccc(OC)c1[C@H](C)NS(N)(=O)=O
REMARK SMILES IDX 11 1 12 2 10 3 3 4 4 5 5 6 7 7 6 8 2 9 1 10 8 11 9 12 13 13
REMARK SMILES IDX 14 15 16 16 17 17 15 18
REMARK H PARENT 13 14 15 19 15 20
ROOT
ATOM      1  C   UNL     1     -12.178 -43.713  30.388  1.00  0.00     0.105 C 
ATOM      2  C   UNL     1     -10.949 -42.798  30.410  1.00  0.00     0.031 C 
ENDROOT
BRANCH   1   3
ATOM      3  C   UNL     1     -11.979 -44.808  29.334  1.00  0.00     0.054 A 
ATOM      4  C   UNL     1     -12.958 -45.059  28.338  1.00  0.00     0.127 A 
ATOM      5  C   UNL     1     -12.748 -46.070  27.394  1.00  0.00     0.047 A 
ATOM      6  C   UNL     1     -11.589 -46.840  27.432  1.00  0.00     0.008 A 
ATOM      7  C   UNL     1     -10.815 -45.612  29.371  1.00  0.00     0.127 A 
ATOM      8  C   UNL     1     -10.630 -46.617  28.416  1.00  0.00     0.047 A 
BRANCH   4   9
ATOM      9  O   UNL     1     -14.084 -44.273  28.375  1.00  0.00    -0.496 OA
ATOM     10  C   UNL     1     -14.685 -43.916  27.134  1.00  0.00     0.278 C 
ENDBRANCH   4   9
BRANCH   7  11
ATOM     11  O   UNL     1      -9.929 -45.354  30.385  1.00  0.00    -0.496 OA
ATOM     12  C   UNL     1      -9.364 -46.462  31.075  1.00  0.00     0.278 C 
ENDBRANCH   7  11
ENDBRANCH   1   3
BRANCH   1  13
ATOM     13  N   UNL     1     -12.431 -44.306  31.721  1.00  0.00    -0.195 NA
ATOM     14  H   UNL     1     -11.608 -44.231  32.321  1.00  0.00     0.143 HD
BRANCH  13  15
ATOM     15  S   UNL     1     -13.836 -43.984  32.520  1.00  0.00     0.274 S 
ATOM     16  O   UNL     1     -13.702 -42.816  33.348  1.00  0.00    -0.195 OA
ATOM     17  O   UNL     1     -14.353 -45.231  33.019  1.00  0.00    -0.195 OA
BRANCH  15  18
ATOM     18  N   UNL     1     -14.787 -43.576  31.221  1.00  0.00    -0.216 NA
ATOM     19  H   UNL     1     -15.428 -42.833  31.495  1.00  0.00     0.138 HD
ATOM     20  H   UNL     1     -15.294 -44.407  30.917  1.00  0.00     0.138 HD
ENDBRANCH  15  18
ENDBRANCH  13  15
ENDBRANCH   1  13
TORSDOF 6
ENDMDL
MODEL 5
REMARK VINA RESULT:    -6.873      1.846      2.141
REMARK INTER + INTRA:          -9.533
REMARK INTER:                  -9.052
REMARK INTRA:                  -0.481
REMARK UNBOUND:                -0.450
REMARK SMILES COc1cccc(OC)c1[C@H](C)NS(N)(=O)=O
REMARK SMILES IDX 11 1 12 2 10 3 3 4 4 5 5 6 7 7 6 8 2 9 1 10 8 11 9 12 13 13
REMARK SMILES IDX 14 15 16 16 17 17 15 18
REMARK H PARENT 13 14 15 19 15 20
ROOT
ATOM      1  C   UNL     1     -12.145 -43.736  30.343  1.00  0.00     0.105 C 
ATOM      2  C   UNL     1     -10.945 -42.784  30.309  1.00  0.00     0.031 C 
ENDROOT
BRANCH   1   3
ATOM      3  C   UNL     1     -11.942 -44.850  29.311  1.00  0.00     0.054 A 
ATOM      4  C   UNL     1     -10.757 -45.629  29.290  1.00  0.00     0.127 A 
ATOM      5  C   UNL     1     -10.601 -46.635  28.331  1.00  0.00     0.047 A 
ATOM      6  C   UNL     1     -11.597 -46.871  27.388  1.00  0.00     0.008 A 
ATOM      7  C   UNL     1     -12.938 -45.089  28.333  1.00  0.00     0.127 A 
ATOM      8  C   UNL     1     -12.757 -46.101  27.385  1.00  0.00     0.047 A 
BRANCH   4   9
ATOM      9  O   UNL     1      -9.809 -45.326  30.238  1.00  0.00    -0.496 OA
ATOM     10  C   UNL     1      -9.140 -46.409  30.876  1.00  0.00     0.278 C 
ENDBRANCH   4   9
BRANCH   7  11
ATOM     11  O   UNL     1     -14.039 -44.273  28.374  1.00  0.00    -0.496 OA
ATOM     12  C   UNL     1     -14.667 -43.937  27.143  1.00  0.00     0.278 C 
ENDBRANCH   7  11
ENDBRANCH   1   3
BRANCH   1  13
ATOM     13  N   UNL     1     -12.342 -44.304  31.698  1.00  0.00    -0.195 NA
ATOM     14  H   UNL     1     -11.533 -44.125  32.294  1.00  0.00     0.143 HD
BRANCH  13  15
ATOM     15  S   UNL     1     -13.775 -44.095  32.484  1.00  0.00     0.274 S 
ATOM     16  O   UNL     1     -13.717 -42.964  33.370  1.00  0.00    -0.195 OA
ATOM     17  O   UNL     1     -14.233 -45.391  32.912  1.00  0.00    -0.195 OA
BRANCH  15  18
ATOM     18  N   UNL     1     -14.725 -43.673  31.189  1.00  0.00    -0.216 NA
ATOM     19  H   UNL     1     -15.409 -42.979  31.486  1.00  0.00     0.138 HD
ATOM     20  H   UNL     1     -15.182 -44.513  30.835  1.00  0.00     0.138 HD
ENDBRANCH  15  18
ENDBRANCH  13  15
ENDBRANCH   1  13
TORSDOF 6
ENDMDL
MODEL 6
REMARK VINA RESULT:    -6.719      2.529      4.650
REMARK INTER + INTRA:          -9.329
REMARK INTER:                  -8.833
REMARK INTRA:                  -0.496
REMARK UNBOUND:                -0.450
REMARK SMILES COc1cccc(OC)c1[C@H](C)NS(N)(=O)=O
REMARK SMILES IDX 11 1 12 2 10 3 3 4 4 5 5 6 7 7 6 8 2 9 1 10 8 11 9 12 13 13
REMARK SMILES IDX 14 15 16 16 17 17 15 18
REMARK H PARENT 13 14 15 19 15 20
ROOT
ATOM      1  C   UNL     1     -11.956 -43.630  30.873  1.00  0.00     0.105 C 
ATOM      2  C   UNL     1     -11.787 -42.837  32.172  1.00  0.00     0.031 C 
ENDROOT
BRANCH   1   3
ATOM      3  C   UNL     1     -10.790 -43.317  29.928  1.00  0.00     0.054 A 
ATOM      4  C   UNL     1     -11.015 -42.931  28.582  1.00  0.00     0.127 A 
ATOM      5  C   UNL     1      -9.929 -42.657  27.745  1.00  0.00     0.047 A 
ATOM      6  C   UNL     1      -8.625 -42.771  28.221  1.00  0.00     0.008 A 
ATOM      7  C   UNL     1      -9.459 -43.447  30.392  1.00  0.00     0.127 A 
ATOM      8  C   UNL     1      -8.390 -43.168  29.534  1.00  0.00     0.047 A 
BRANCH   4   9
ATOM      9  O   UNL     1     -12.326 -42.858  28.177  1.00  0.00    -0.496 OA
ATOM     10  C   UNL     1     -12.690 -43.541  26.982  1.00  0.00     0.278 C 
ENDBRANCH   4   9
BRANCH   7  11
ATOM     11  O   UNL     1      -9.304 -43.870  31.687  1.00  0.00    -0.496 OA
ATOM     12  C   UNL     1      -8.067 -43.600  32.334  1.00  0.00     0.278 C 
ENDBRANCH   7  11
ENDBRANCH   1   3
BRANCH   1  13
ATOM     13  N   UNL     1     -12.040 -45.086  31.139  1.00  0.00    -0.195 NA
ATOM     14  H   UNL     1     -11.967 -45.283  32.138  1.00  0.00     0.143 HD
BRANCH  13  15
ATOM     15  S   UNL     1     -13.185 -46.001  30.387  1.00  0.00     0.274 S 
ATOM     16  O   UNL     1     -13.824 -46.893  31.315  1.00  0.00    -0.195 OA
ATOM     17  O   UNL     1     -12.634 -46.451  29.135  1.00  0.00    -0.195 OA
BRANCH  15  18
ATOM     18  N   UNL     1     -14.271 -44.803  30.009  1.00  0.00    -0.216 NA
ATOM     19  H   UNL     1     -13.887 -44.225  29.263  1.00  0.00     0.138 HD
ATOM     20  H   UNL     1     -14.451 -44.251  30.847  1.00  0.00     0.138 HD
ENDBRANCH  15  18
ENDBRANCH  13  15
ENDBRANCH   1  13
TORSDOF 6
ENDMDL
MODEL 7
REMARK VINA RESULT:    -6.194      3.132      5.435
REMARK INTER + INTRA:          -8.635
REMARK INTER:                  -8.476
REMARK INTRA:                  -0.158
REMARK UNBOUND:                -0.450
REMARK SMILES COc1cccc(OC)c1[C@H](C)NS(N)(=O)=O
REMARK SMILES IDX 11 1 12 2 10 3 3 4 4 5 5 6 7 7 6 8 2 9 1 10 8 11 9 12 13 13
REMARK SMILES IDX 14 15 16 16 17 17 15 18
REMARK H PARENT 13 14 15 19 15 20
ROOT
ATOM      1  C   UNL     1     -11.570 -45.034  30.307  1.00  0.00     0.105 C 
ATOM      2  C   UNL     1     -10.793 -46.354  30.309  1.00  0.00     0.031 C 
ENDROOT
BRANCH   1   3
ATOM      3  C   UNL     1     -11.071 -44.147  31.454  1.00  0.00     0.054 A 
ATOM      4  C   UNL     1     -11.974 -43.410  32.262  1.00  0.00     0.127 A 
ATOM      5  C   UNL     1     -11.486 -42.606  33.297  1.00  0.00     0.047 A 
ATOM      6  C   UNL     1     -10.116 -42.514  33.533  1.00  0.00     0.008 A 
ATOM      7  C   UNL     1      -9.681 -44.029  31.694  1.00  0.00     0.127 A 
ATOM      8  C   UNL     1      -9.218 -43.217  32.734  1.00  0.00     0.047 A 
BRANCH   4   9
ATOM      9  O   UNL     1     -13.308 -43.534  31.958  1.00  0.00    -0.496 OA
ATOM     10  C   UNL     1     -14.249 -43.321  33.005  1.00  0.00     0.278 C 
ENDBRANCH   4   9
BRANCH   7  11
ATOM     11  O   UNL     1      -8.856 -44.726  30.849  1.00  0.00    -0.496 OA
ATOM     12  C   UNL     1      -7.452 -44.632  31.059  1.00  0.00     0.278 C 
ENDBRANCH   7  11
ENDBRANCH   1   3
BRANCH   1  13
ATOM     13  N   UNL     1     -11.439 -44.335  29.007  1.00  0.00    -0.195 NA
ATOM     14  H   UNL     1     -10.541 -44.541  28.566  1.00  0.00     0.143 HD
BRANCH  13  15
ATOM     15  S   UNL     1     -12.692 -44.333  27.937  1.00  0.00     0.274 S 
ATOM     16  O   UNL     1     -12.760 -45.576  27.219  1.00  0.00    -0.195 OA
ATOM     17  O   UNL     1     -12.699 -43.055  27.274  1.00  0.00    -0.195 OA
BRANCH  15  18
ATOM     18  N   UNL     1     -13.955 -44.302  29.014  1.00  0.00    -0.216 NA
ATOM     19  H   UNL     1     -14.694 -44.920  28.683  1.00  0.00     0.138 HD
ATOM     20  H   UNL     1     -14.288 -43.342  29.097  1.00  0.00     0.138 HD
ENDBRANCH  15  18
ENDBRANCH  13  15
ENDBRANCH   1  13
TORSDOF 6
ENDMDL
MODEL 8
REMARK VINA RESULT:    -6.174      3.378      5.119
REMARK INTER + INTRA:          -8.609
REMARK INTER:                  -8.528
REMARK INTRA:                  -0.080
REMARK UNBOUND:                -0.450
REMARK SMILES COc1cccc(OC)c1[C@H](C)NS(N)(=O)=O
REMARK SMILES IDX 11 1 12 2 10 3 3 4 4 5 5 6 7 7 6 8 2 9 1 10 8 11 9 12 13 13
REMARK SMILES IDX 14 15 16 16 17 17 15 18
REMARK H PARENT 13 14 15 19 15 20
ROOT
ATOM      1  C   UNL     1     -11.737 -44.696  30.960  1.00  0.00     0.105 C 
ATOM      2  C   UNL     1     -11.351 -46.157  31.213  1.00  0.00     0.031 C 
ENDROOT
BRANCH   1   3
ATOM      3  C   UNL     1     -11.097 -43.807  32.032  1.00  0.00     0.054 A 
ATOM      4  C   UNL     1      -9.727 -43.937  32.376  1.00  0.00     0.127 A 
ATOM      5  C   UNL     1      -9.175 -43.114  33.363  1.00  0.00     0.047 A 
ATOM      6  C   UNL     1      -9.965 -42.173  34.019  1.00  0.00     0.008 A 
ATOM      7  C   UNL     1     -11.891 -42.860  32.722  1.00  0.00     0.127 A 
ATOM      8  C   UNL     1     -11.315 -42.049  33.705  1.00  0.00     0.047 A 
BRANCH   4   9
ATOM      9  O   UNL     1      -9.015 -44.899  31.701  1.00  0.00    -0.496 OA
ATOM     10  C   UNL     1      -7.594 -44.845  31.771  1.00  0.00     0.278 C 
ENDBRANCH   4   9
BRANCH   7  11
ATOM     11  O   UNL     1     -13.218 -42.815  32.380  1.00  0.00    -0.496 OA
ATOM     12  C   UNL     1     -14.178 -43.101  33.390  1.00  0.00     0.278 C 
ENDBRANCH   7  11
ENDBRANCH   1   3
BRANCH   1  13
ATOM     13  N   UNL     1     -11.330 -44.260  29.604  1.00  0.00    -0.195 NA
ATOM     14  H   UNL     1     -10.451 -44.698  29.324  1.00  0.00     0.143 HD
BRANCH  13  15
ATOM     15  S   UNL     1     -12.435 -44.205  28.383  1.00  0.00     0.274 S 
ATOM     16  O   UNL     1     -12.130 -43.150  27.456  1.00  0.00    -0.195 OA
ATOM     17  O   UNL     1     -13.741 -44.368  28.967  1.00  0.00    -0.195 OA
BRANCH  15  18
ATOM     18  N   UNL     1     -12.078 -45.648  27.642  1.00  0.00    -0.216 NA
ATOM     19  H   UNL     1     -12.943 -46.092  27.337  1.00  0.00     0.138 HD
ATOM     20  H   UNL     1     -11.575 -46.238  28.305  1.00  0.00     0.138 HD
ENDBRANCH  15  18
ENDBRANCH  13  15
ENDBRANCH   1  13
TORSDOF 6
ENDMDL
MODEL 9
REMARK VINA RESULT:    -6.127      7.355      8.941
REMARK INTER + INTRA:          -8.546
REMARK INTER:                  -8.169
REMARK INTRA:                  -0.377
REMARK UNBOUND:                -0.450
REMARK SMILES COc1cccc(OC)c1[C@H](C)NS(N)(=O)=O
REMARK SMILES IDX 11 1 12 2 10 3 3 4 4 5 5 6 7 7 6 8 2 9 1 10 8 11 9 12 13 13
REMARK SMILES IDX 14 15 16 16 17 17 15 18
REMARK H PARENT 13 14 15 19 15 20
ROOT
ATOM      1  C   UNL     1     -20.390 -42.451  26.437  1.00  0.00     0.105 C 
ATOM      2  C   UNL     1     -20.775 -40.972  26.546  1.00  0.00     0.031 C 
ENDROOT
BRANCH   1   3
ATOM      3  C   UNL     1     -18.993 -42.570  25.816  1.00  0.00     0.054 A 
ATOM      4  C   UNL     1     -17.823 -42.450  26.608  1.00  0.00     0.127 A 
ATOM      5  C   UNL     1     -16.563 -42.559  26.010  1.00  0.00     0.047 A 
ATOM      6  C   UNL     1     -16.449 -42.772  24.639  1.00  0.00     0.008 A 
ATOM      7  C   UNL     1     -18.862 -42.767  24.421  1.00  0.00     0.127 A 
ATOM      8  C   UNL     1     -17.590 -42.871  23.847  1.00  0.00     0.047 A 
BRANCH   4   9
ATOM      9  O   UNL     1     -18.012 -42.221  27.950  1.00  0.00    -0.496 OA
ATOM     10  C   UNL     1     -17.015 -42.692  28.850  1.00  0.00     0.278 C 
ENDBRANCH   4   9
BRANCH   7  11
ATOM     11  O   UNL     1     -20.028 -42.825  23.702  1.00  0.00    -0.496 OA
ATOM     12  C   UNL     1     -20.116 -42.053  22.511  1.00  0.00     0.278 C 
ENDBRANCH   7  11
ENDBRANCH   1   3
BRANCH   1  13
ATOM     13  N   UNL     1     -20.436 -43.117  27.759  1.00  0.00    -0.195 NA
ATOM     14  H   UNL     1     -20.351 -42.438  28.517  1.00  0.00     0.143 HD
BRANCH  13  15
ATOM     15  S   UNL     1     -21.565 -44.278  28.064  1.00  0.00     0.274 S 
ATOM     16  O   UNL     1     -21.272 -45.485  27.341  1.00  0.00    -0.195 OA
ATOM     17  O   UNL     1     -22.860 -43.650  28.029  1.00  0.00    -0.195 OA
BRANCH  15  18
ATOM     18  N   UNL     1     -21.229 -44.555  29.667  1.00  0.00    -0.216 NA
ATOM     19  H   UNL     1     -21.088 -43.663  30.139  1.00  0.00     0.138 HD
ATOM     20  H   UNL     1     -20.396 -45.140  29.727  1.00  0.00     0.138 HD
ENDBRANCH  15  18
ENDBRANCH  13  15
ENDBRANCH   1  13
TORSDOF 6
ENDMDL
