MODEL 1
REMARK VINA RESULT:   -12.493      0.000      0.000
REMARK INTER + INTRA:         -16.239
REMARK INTER:                 -16.144
REMARK INTRA:                  -0.095
REMARK UNBOUND:                -0.095
REMARK SMILES COc1ccccc1C(=O)Nc1ccc2c(c1)CN(C(=O)c1ccccc1)C(=O)C2
REMARK SMILES IDX 9 1 10 2 11 3 8 5 3 6 4 7 5 8 7 9 6 10 2 11 1 12 12 13 13 14
REMARK SMILES IDX 17 15 14 16 16 17 15 18 18 19 30 20 19 21 28 22 29 23 20 24
REMARK SMILES IDX 21 25 22 26 23 27 27 28 24 29 26 30 25 31
REMARK H PARENT 11 4
ROOT
ATOM      1  C   UNL     1     -14.385 -43.570  25.865  1.00  0.00     0.259 C 
ATOM      2  O   UNL     1     -13.387 -43.075  25.349  1.00  0.00    -0.269 OA
ATOM      3  N   UNL     1     -14.370 -44.527  26.860  1.00  0.00    -0.322 N 
ATOM      4  H   UNL     1     -15.282 -44.832  27.183  1.00  0.00     0.170 HD
ENDROOT
BRANCH   1   5
ATOM      5  C   UNL     1     -15.742 -43.112  25.387  1.00  0.00     0.082 A 
ATOM      6  C   UNL     1     -16.800 -42.691  26.222  1.00  0.00     0.131 A 
ATOM      7  C   UNL     1     -18.014 -42.292  25.639  1.00  0.00     0.047 A 
ATOM      8  C   UNL     1     -18.185 -42.306  24.252  1.00  0.00     0.004 A 
ATOM      9  C   UNL     1     -15.937 -43.118  23.990  1.00  0.00     0.018 A 
ATOM     10  C   UNL     1     -17.148 -42.717  23.427  1.00  0.00     0.001 A 
BRANCH   6  11
ATOM     11  O   UNL     1     -16.588 -42.693  27.580  1.00  0.00    -0.496 OA
ATOM     12  C   UNL     1     -17.711 -42.486  28.432  1.00  0.00     0.278 C 
ENDBRANCH   6  11
ENDBRANCH   1   5
BRANCH   3  13
ATOM     13  C   UNL     1     -13.257 -45.125  27.483  1.00  0.00     0.041 A 
ATOM     14  C   UNL     1     -12.713 -46.353  27.103  1.00  0.00     0.026 A 
ATOM     15  C   UNL     1     -12.676 -44.430  28.551  1.00  0.00     0.032 A 
ATOM     16  C   UNL     1     -11.607 -46.881  27.778  1.00  0.00     0.007 A 
ATOM     17  C   UNL     1     -11.559 -44.948  29.220  1.00  0.00    -0.022 A 
ATOM     18  C   UNL     1     -11.021 -46.177  28.832  1.00  0.00    -0.033 A 
ATOM     19  C   UNL     1     -10.938 -44.246  30.394  1.00  0.00     0.164 C 
ATOM     20  C   UNL     1      -9.860 -46.736  29.605  1.00  0.00     0.136 C 
ATOM     21  N   UNL     1      -9.492 -44.405  30.410  1.00  0.00    -0.274 N 
ATOM     22  C   UNL     1      -8.980 -45.696  30.290  1.00  0.00     0.234 C 
ATOM     23  O   UNL     1      -7.868 -46.036  30.702  1.00  0.00    -0.274 OA
BRANCH  21  24
ATOM     24  C   UNL     1      -8.804 -43.428  31.131  1.00  0.00     0.260 C 
ATOM     25  O   UNL     1      -7.764 -42.909  30.720  1.00  0.00    -0.269 OA
BRANCH  24  26
ATOM     26  C   UNL     1      -9.330 -43.016  32.464  1.00  0.00     0.040 A 
ATOM     27  C   UNL     1      -8.474 -42.778  33.548  1.00  0.00     0.014 A 
ATOM     28  C   UNL     1     -10.706 -42.790  32.603  1.00  0.00     0.014 A 
ATOM     29  C   UNL     1      -8.999 -42.351  34.769  1.00  0.00     0.001 A 
ATOM     30  C   UNL     1     -11.224 -42.363  33.826  1.00  0.00     0.001 A 
ATOM     31  C   UNL     1     -10.372 -42.146  34.908  1.00  0.00     0.000 A 
ENDBRANCH  24  26
ENDBRANCH  21  24
ENDBRANCH   3  13
TORSDOF 5
ENDMDL
MODEL 2
REMARK VINA RESULT:   -12.437      3.129      9.722
REMARK INTER + INTRA:         -16.168
REMARK INTER:                 -15.173
REMARK INTRA:                  -0.994
REMARK UNBOUND:                -0.095
REMARK SMILES COc1ccccc1C(=O)Nc1ccc2c(c1)CN(C(=O)c1ccccc1)C(=O)C2
REMARK SMILES IDX 9 1 10 2 11 3 8 5 3 6 4 7 5 8 7 9 6 10 2 11 1 12 12 13 13 14
REMARK SMILES IDX 17 15 14 16 16 17 15 18 18 19 30 20 19 21 28 22 29 23 20 24
REMARK SMILES IDX 21 25 22 26 23 27 27 28 24 29 26 30 25 31
REMARK H PARENT 11 4
ROOT
ATOM      1  C   UNL     1     -12.883 -45.675  27.784  1.00  0.00     0.259 C 
ATOM      2  O   UNL     1     -12.999 -46.532  26.913  1.00  0.00    -0.269 OA
ATOM      3  N   UNL     1     -13.544 -44.463  27.797  1.00  0.00    -0.322 N 
ATOM      4  H   UNL     1     -13.342 -43.866  28.591  1.00  0.00     0.170 HD
ENDROOT
BRANCH   1   5
ATOM      5  C   UNL     1     -11.951 -45.948  28.940  1.00  0.00     0.082 A 
ATOM      6  C   UNL     1     -12.311 -45.907  30.305  1.00  0.00     0.131 A 
ATOM      7  C   UNL     1     -11.337 -46.182  31.278  1.00  0.00     0.047 A 
ATOM      8  C   UNL     1     -10.024 -46.496  30.914  1.00  0.00     0.004 A 
ATOM      9  C   UNL     1     -10.621 -46.268  28.596  1.00  0.00     0.018 A 
ATOM     10  C   UNL     1      -9.666 -46.540  29.574  1.00  0.00     0.001 A 
BRANCH   6  11
ATOM     11  O   UNL     1     -13.612 -45.593  30.617  1.00  0.00    -0.496 OA
ATOM     12  C   UNL     1     -13.840 -44.533  31.542  1.00  0.00     0.278 C 
ENDBRANCH   6  11
ENDBRANCH   1   5
BRANCH   3  13
ATOM     13  C   UNL     1     -14.461 -43.955  26.854  1.00  0.00     0.041 A 
ATOM     14  C   UNL     1     -14.304 -44.066  25.472  1.00  0.00     0.026 A 
ATOM     15  C   UNL     1     -15.592 -43.299  27.357  1.00  0.00     0.032 A 
ATOM     16  C   UNL     1     -15.260 -43.529  24.602  1.00  0.00     0.007 A 
ATOM     17  C   UNL     1     -16.559 -42.774  26.490  1.00  0.00    -0.022 A 
ATOM     18  C   UNL     1     -16.394 -42.889  25.108  1.00  0.00    -0.033 A 
ATOM     19  C   UNL     1     -17.761 -42.031  26.996  1.00  0.00     0.164 C 
ATOM     20  C   UNL     1     -17.417 -42.265  24.200  1.00  0.00     0.136 C 
ATOM     21  N   UNL     1     -18.936 -42.291  26.178  1.00  0.00    -0.274 N 
ATOM     22  C   UNL     1     -18.814 -42.134  24.798  1.00  0.00     0.234 C 
ATOM     23  O   UNL     1     -19.763 -41.898  24.046  1.00  0.00    -0.274 OA
BRANCH  21  24
ATOM     24  C   UNL     1     -20.156 -42.065  26.817  1.00  0.00     0.260 C 
ATOM     25  O   UNL     1     -20.464 -40.971  27.293  1.00  0.00    -0.269 OA
BRANCH  24  26
ATOM     26  C   UNL     1     -21.114 -43.200  26.957  1.00  0.00     0.040 A 
ATOM     27  C   UNL     1     -20.924 -44.205  27.914  1.00  0.00     0.014 A 
ATOM     28  C   UNL     1     -22.266 -43.209  26.160  1.00  0.00     0.014 A 
ATOM     29  C   UNL     1     -21.864 -45.229  28.046  1.00  0.00     0.001 A 
ATOM     30  C   UNL     1     -23.203 -44.234  26.296  1.00  0.00     0.001 A 
ATOM     31  C   UNL     1     -23.001 -45.243  27.237  1.00  0.00     0.000 A 
ENDBRANCH  24  26
ENDBRANCH  21  24
ENDBRANCH   3  13
TORSDOF 5
ENDMDL
MODEL 3
REMARK VINA RESULT:   -12.014      2.982      9.963
REMARK INTER + INTRA:         -15.621
REMARK INTER:                 -14.785
REMARK INTRA:                  -0.836
REMARK UNBOUND:                -0.095
REMARK SMILES COc1ccccc1C(=O)Nc1ccc2c(c1)CN(C(=O)c1ccccc1)C(=O)C2
REMARK SMILES IDX 9 1 10 2 11 3 8 5 3 6 4 7 5 8 7 9 6 10 2 11 1 12 12 13 13 14
REMARK SMILES IDX 17 15 14 16 16 17 15 18 18 19 30 20 19 21 28 22 29 23 20 24
REMARK SMILES IDX 21 25 22 26 23 27 27 28 24 29 26 30 25 31
REMARK H PARENT 11 4
ROOT
ATOM      1  C   UNL     1     -12.940 -45.133  27.841  1.00  0.00     0.259 C 
ATOM      2  O   UNL     1     -13.004 -46.047  27.024  1.00  0.00    -0.269 OA
ATOM      3  N   UNL     1     -13.525 -43.892  27.689  1.00  0.00    -0.322 N 
ATOM      4  H   UNL     1     -13.381 -43.247  28.458  1.00  0.00     0.170 HD
ENDROOT
BRANCH   1   5
ATOM      5  C   UNL     1     -12.165 -45.363  29.116  1.00  0.00     0.082 A 
ATOM      6  C   UNL     1     -12.598 -44.996  30.410  1.00  0.00     0.131 A 
ATOM      7  C   UNL     1     -11.770 -45.270  31.511  1.00  0.00     0.047 A 
ATOM      8  C   UNL     1     -10.533 -45.899  31.343  1.00  0.00     0.004 A 
ATOM      9  C   UNL     1     -10.914 -45.997  28.970  1.00  0.00     0.018 A 
ATOM     10  C   UNL     1     -10.105 -46.263  30.074  1.00  0.00     0.001 A 
BRANCH   6  11
ATOM     11  O   UNL     1     -13.820 -44.380  30.528  1.00  0.00    -0.496 OA
ATOM     12  C   UNL     1     -14.159 -43.805  31.787  1.00  0.00     0.278 C 
ENDBRANCH   6  11
ENDBRANCH   1   5
BRANCH   3  13
ATOM     13  C   UNL     1     -14.295 -43.414  26.610  1.00  0.00     0.041 A 
ATOM     14  C   UNL     1     -13.776 -43.112  25.350  1.00  0.00     0.026 A 
ATOM     15  C   UNL     1     -15.666 -43.232  26.837  1.00  0.00     0.032 A 
ATOM     16  C   UNL     1     -14.609 -42.636  24.332  1.00  0.00     0.007 A 
ATOM     17  C   UNL     1     -16.506 -42.770  25.816  1.00  0.00    -0.022 A 
ATOM     18  C   UNL     1     -15.977 -42.472  24.559  1.00  0.00    -0.033 A 
ATOM     19  C   UNL     1     -17.971 -42.528  26.041  1.00  0.00     0.164 C 
ATOM     20  C   UNL     1     -16.892 -41.922  23.500  1.00  0.00     0.136 C 
ATOM     21  N   UNL     1     -18.756 -42.863  24.863  1.00  0.00    -0.274 N 
ATOM     22  C   UNL     1     -18.356 -42.323  23.640  1.00  0.00     0.234 C 
ATOM     23  O   UNL     1     -19.114 -42.155  22.682  1.00  0.00    -0.274 OA
BRANCH  21  24
ATOM     24  C   UNL     1     -20.101 -43.140  25.115  1.00  0.00     0.260 C 
ATOM     25  O   UNL     1     -20.562 -44.281  25.071  1.00  0.00    -0.269 OA
BRANCH  24  26
ATOM     26  C   UNL     1     -21.022 -42.008  25.419  1.00  0.00     0.040 A 
ATOM     27  C   UNL     1     -21.799 -41.406  24.420  1.00  0.00     0.014 A 
ATOM     28  C   UNL     1     -21.163 -41.595  26.750  1.00  0.00     0.014 A 
ATOM     29  C   UNL     1     -22.683 -40.378  24.749  1.00  0.00     0.001 A 
ATOM     30  C   UNL     1     -22.049 -40.566  27.074  1.00  0.00     0.001 A 
ATOM     31  C   UNL     1     -22.806 -39.958  26.074  1.00  0.00     0.000 A 
ENDBRANCH  24  26
ENDBRANCH  21  24
ENDBRANCH   3  13
TORSDOF 5
ENDMDL
MODEL 4
REMARK VINA RESULT:   -11.527      3.428     10.171
REMARK INTER + INTRA:         -14.991
REMARK INTER:                 -14.519
REMARK INTRA:                  -0.472
REMARK UNBOUND:                -0.095
REMARK SMILES COc1ccccc1C(=O)Nc1ccc2c(c1)CN(C(=O)c1ccccc1)C(=O)C2
REMARK SMILES IDX 9 1 10 2 11 3 8 5 3 6 4 7 5 8 7 9 6 10 2 11 1 12 12 13 13 14
REMARK SMILES IDX 17 15 14 16 16 17 15 18 18 19 30 20 19 21 28 22 29 23 20 24
REMARK SMILES IDX 21 25 22 26 23 27 27 28 24 29 26 30 25 31
REMARK H PARENT 11 4
ROOT
ATOM      1  C   UNL     1     -14.057 -44.183  27.349  1.00  0.00     0.259 C 
ATOM      2  O   UNL     1     -14.919 -43.968  28.195  1.00  0.00    -0.269 OA
ATOM      3  N   UNL     1     -14.212 -43.983  25.991  1.00  0.00    -0.322 N 
ATOM      4  H   UNL     1     -13.401 -44.206  25.424  1.00  0.00     0.170 HD
ENDROOT
BRANCH   1   5
ATOM      5  C   UNL     1     -12.716 -44.707  27.806  1.00  0.00     0.082 A 
ATOM      6  C   UNL     1     -11.567 -43.917  28.030  1.00  0.00     0.131 A 
ATOM      7  C   UNL     1     -10.381 -44.540  28.454  1.00  0.00     0.047 A 
ATOM      8  C   UNL     1     -10.328 -45.922  28.658  1.00  0.00     0.004 A 
ATOM      9  C   UNL     1     -12.639 -46.098  28.018  1.00  0.00     0.018 A 
ATOM     10  C   UNL     1     -11.455 -46.701  28.441  1.00  0.00     0.001 A 
BRANCH   6  11
ATOM     11  O   UNL     1     -11.665 -42.563  27.817  1.00  0.00    -0.496 OA
ATOM     12  C   UNL     1     -10.501 -41.768  28.026  1.00  0.00     0.278 C 
ENDBRANCH   6  11
ENDBRANCH   1   5
BRANCH   3  13
ATOM     13  C   UNL     1     -15.344 -43.509  25.300  1.00  0.00     0.041 A 
ATOM     14  C   UNL     1     -15.509 -43.592  23.917  1.00  0.00     0.026 A 
ATOM     15  C   UNL     1     -16.356 -42.917  26.067  1.00  0.00     0.032 A 
ATOM     16  C   UNL     1     -16.664 -43.091  23.306  1.00  0.00     0.007 A 
ATOM     17  C   UNL     1     -17.521 -42.428  25.462  1.00  0.00    -0.022 A 
ATOM     18  C   UNL     1     -17.677 -42.516  24.077  1.00  0.00    -0.033 A 
ATOM     19  C   UNL     1     -18.605 -41.753  26.252  1.00  0.00     0.164 C 
ATOM     20  C   UNL     1     -18.911 -41.931  23.447  1.00  0.00     0.136 C 
ATOM     21  N   UNL     1     -19.924 -42.060  25.722  1.00  0.00    -0.274 N 
ATOM     22  C   UNL     1     -20.135 -41.878  24.355  1.00  0.00     0.234 C 
ATOM     23  O   UNL     1     -21.242 -41.679  23.850  1.00  0.00    -0.274 OA
BRANCH  21  24
ATOM     24  C   UNL     1     -20.971 -41.904  26.632  1.00  0.00     0.260 C 
ATOM     25  O   UNL     1     -21.185 -40.844  27.223  1.00  0.00    -0.269 OA
BRANCH  24  26
ATOM     26  C   UNL     1     -21.848 -43.075  26.925  1.00  0.00     0.040 A 
ATOM     27  C   UNL     1     -23.193 -43.098  26.534  1.00  0.00     0.014 A 
ATOM     28  C   UNL     1     -21.282 -44.201  27.535  1.00  0.00     0.014 A 
ATOM     29  C   UNL     1     -23.972 -44.230  26.785  1.00  0.00     0.001 A 
ATOM     30  C   UNL     1     -22.066 -45.329  27.784  1.00  0.00     0.001 A 
ATOM     31  C   UNL     1     -23.409 -45.342  27.411  1.00  0.00     0.000 A 
ENDBRANCH  24  26
ENDBRANCH  21  24
ENDBRANCH   3  13
TORSDOF 5
ENDMDL
MODEL 5
REMARK VINA RESULT:   -11.454      2.886      9.895
REMARK INTER + INTRA:         -14.896
REMARK INTER:                 -14.236
REMARK INTRA:                  -0.661
REMARK UNBOUND:                -0.095
REMARK SMILES COc1ccccc1C(=O)Nc1ccc2c(c1)CN(C(=O)c1ccccc1)C(=O)C2
REMARK SMILES IDX 9 1 10 2 11 3 8 5 3 6 4 7 5 8 7 9 6 10 2 11 1 12 12 13 13 14
REMARK SMILES IDX 17 15 14 16 16 17 15 18 18 19 30 20 19 21 28 22 29 23 20 24
REMARK SMILES IDX 21 25 22 26 23 27 27 28 24 29 26 30 25 31
REMARK H PARENT 11 4
ROOT
ATOM      1  C   UNL     1     -12.452 -43.881  27.962  1.00  0.00     0.259 C 
ATOM      2  O   UNL     1     -11.965 -42.836  27.540  1.00  0.00    -0.269 OA
ATOM      3  N   UNL     1     -13.644 -44.429  27.533  1.00  0.00    -0.322 N 
ATOM      4  H   UNL     1     -13.907 -45.301  27.979  1.00  0.00     0.170 HD
ENDROOT
BRANCH   1   5
ATOM      5  C   UNL     1     -11.706 -44.640  29.033  1.00  0.00     0.082 A 
ATOM      6  C   UNL     1     -10.306 -44.616  29.223  1.00  0.00     0.131 A 
ATOM      7  C   UNL     1      -9.744 -45.376  30.262  1.00  0.00     0.047 A 
ATOM      8  C   UNL     1     -10.549 -46.148  31.106  1.00  0.00     0.004 A 
ATOM      9  C   UNL     1     -12.497 -45.425  29.896  1.00  0.00     0.018 A 
ATOM     10  C   UNL     1     -11.924 -46.172  30.924  1.00  0.00     0.001 A 
BRANCH   6  11
ATOM     11  O   UNL     1      -9.554 -43.844  28.370  1.00  0.00    -0.496 OA
ATOM     12  C   UNL     1      -8.640 -42.914  28.943  1.00  0.00     0.278 C 
ENDBRANCH   6  11
ENDBRANCH   1   5
BRANCH   3  13
ATOM     13  C   UNL     1     -14.534 -43.936  26.557  1.00  0.00     0.041 A 
ATOM     14  C   UNL     1     -14.339 -44.066  25.182  1.00  0.00     0.026 A 
ATOM     15  C   UNL     1     -15.678 -43.272  27.018  1.00  0.00     0.032 A 
ATOM     16  C   UNL     1     -15.269 -43.543  24.278  1.00  0.00     0.007 A 
ATOM     17  C   UNL     1     -16.620 -42.759  26.117  1.00  0.00    -0.022 A 
ATOM     18  C   UNL     1     -16.416 -42.896  24.742  1.00  0.00    -0.033 A 
ATOM     19  C   UNL     1     -17.836 -42.008  26.578  1.00  0.00     0.164 C 
ATOM     20  C   UNL     1     -17.414 -42.285  23.797  1.00  0.00     0.136 C 
ATOM     21  N   UNL     1     -18.987 -42.281  25.731  1.00  0.00    -0.274 N 
ATOM     22  C   UNL     1     -18.827 -42.145  24.353  1.00  0.00     0.234 C 
ATOM     23  O   UNL     1     -19.754 -41.920  23.572  1.00  0.00    -0.274 OA
BRANCH  21  24
ATOM     24  C   UNL     1     -20.225 -42.045  26.333  1.00  0.00     0.260 C 
ATOM     25  O   UNL     1     -20.620 -40.913  26.616  1.00  0.00    -0.269 OA
BRANCH  24  26
ATOM     26  C   UNL     1     -21.090 -43.211  26.673  1.00  0.00     0.040 A 
ATOM     27  C   UNL     1     -22.129 -43.624  25.828  1.00  0.00     0.014 A 
ATOM     28  C   UNL     1     -20.800 -43.948  27.829  1.00  0.00     0.014 A 
ATOM     29  C   UNL     1     -22.890 -44.747  26.158  1.00  0.00     0.001 A 
ATOM     30  C   UNL     1     -21.565 -45.069  28.153  1.00  0.00     0.001 A 
ATOM     31  C   UNL     1     -22.609 -45.467  27.320  1.00  0.00     0.000 A 
ENDBRANCH  24  26
ENDBRANCH  21  24
ENDBRANCH   3  13
TORSDOF 5
ENDMDL
MODEL 6
REMARK VINA RESULT:   -11.034      1.834      8.946
REMARK INTER + INTRA:         -14.354
REMARK INTER:                 -13.602
REMARK INTRA:                  -0.752
REMARK UNBOUND:                -0.095
REMARK SMILES COc1ccccc1C(=O)Nc1ccc2c(c1)CN(C(=O)c1ccccc1)C(=O)C2
REMARK SMILES IDX 9 1 10 2 11 3 8 5 3 6 4 7 5 8 7 9 6 10 2 11 1 12 12 13 13 14
REMARK SMILES IDX 17 15 14 16 16 17 15 18 18 19 30 20 19 21 28 22 29 23 20 24
REMARK SMILES IDX 21 25 22 26 23 27 27 28 24 29 26 30 25 31
REMARK H PARENT 11 4
ROOT
ATOM      1  C   UNL     1     -10.762 -44.085  31.067  1.00  0.00     0.259 C 
ATOM      2  O   UNL     1      -9.974 -44.974  30.757  1.00  0.00    -0.269 OA
ATOM      3  N   UNL     1     -11.888 -43.738  30.347  1.00  0.00    -0.322 N 
ATOM      4  H   UNL     1     -12.439 -42.982  30.740  1.00  0.00     0.170 HD
ENDROOT
BRANCH   1   5
ATOM      5  C   UNL     1     -10.497 -43.298  32.328  1.00  0.00     0.082 A 
ATOM      6  C   UNL     1     -11.439 -42.480  32.991  1.00  0.00     0.131 A 
ATOM      7  C   UNL     1     -11.054 -41.802  34.159  1.00  0.00     0.047 A 
ATOM      8  C   UNL     1      -9.758 -41.928  34.670  1.00  0.00     0.004 A 
ATOM      9  C   UNL     1      -9.197 -43.411  32.862  1.00  0.00     0.018 A 
ATOM     10  C   UNL     1      -8.831 -42.732  34.024  1.00  0.00     0.001 A 
BRANCH   6  11
ATOM     11  O   UNL     1     -12.700 -42.386  32.453  1.00  0.00    -0.496 OA
ATOM     12  C   UNL     1     -13.802 -42.797  33.258  1.00  0.00     0.278 C 
ENDBRANCH   6  11
ENDBRANCH   1   5
BRANCH   3  13
ATOM     13  C   UNL     1     -12.368 -44.299  29.147  1.00  0.00     0.041 A 
ATOM     14  C   UNL     1     -12.556 -45.667  28.942  1.00  0.00     0.026 A 
ATOM     15  C   UNL     1     -12.665 -43.412  28.104  1.00  0.00     0.032 A 
ATOM     16  C   UNL     1     -13.031 -46.144  27.716  1.00  0.00     0.007 A 
ATOM     17  C   UNL     1     -13.156 -43.885  26.879  1.00  0.00    -0.022 A 
ATOM     18  C   UNL     1     -13.341 -45.255  26.685  1.00  0.00    -0.033 A 
ATOM     19  C   UNL     1     -13.446 -42.963  25.730  1.00  0.00     0.164 C 
ATOM     20  C   UNL     1     -13.814 -45.739  25.342  1.00  0.00     0.136 C 
ATOM     21  N   UNL     1     -14.606 -43.403  24.970  1.00  0.00    -0.274 N 
ATOM     22  C   UNL     1     -14.639 -44.732  24.548  1.00  0.00     0.234 C 
ATOM     23  O   UNL     1     -15.292 -45.129  23.580  1.00  0.00    -0.274 OA
BRANCH  21  24
ATOM     24  C   UNL     1     -15.233 -42.402  24.227  1.00  0.00     0.260 C 
ATOM     25  O   UNL     1     -14.607 -41.602  23.530  1.00  0.00    -0.269 OA
BRANCH  24  26
ATOM     26  C   UNL     1     -16.717 -42.275  24.303  1.00  0.00     0.040 A 
ATOM     27  C   UNL     1     -17.407 -42.460  25.509  1.00  0.00     0.014 A 
ATOM     28  C   UNL     1     -17.418 -41.885  23.155  1.00  0.00     0.014 A 
ATOM     29  C   UNL     1     -18.792 -42.290  25.552  1.00  0.00     0.001 A 
ATOM     30  C   UNL     1     -18.802 -41.716  23.203  1.00  0.00     0.001 A 
ATOM     31  C   UNL     1     -19.488 -41.920  24.400  1.00  0.00     0.000 A 
ENDBRANCH  24  26
ENDBRANCH  21  24
ENDBRANCH   3  13
TORSDOF 5
ENDMDL
MODEL 7
REMARK VINA RESULT:   -10.951      2.560      3.796
REMARK INTER + INTRA:         -14.247
REMARK INTER:                 -13.162
REMARK INTRA:                  -1.086
REMARK UNBOUND:                -0.095
REMARK SMILES COc1ccccc1C(=O)Nc1ccc2c(c1)CN(C(=O)c1ccccc1)C(=O)C2
REMARK SMILES IDX 9 1 10 2 11 3 8 5 3 6 4 7 5 8 7 9 6 10 2 11 1 12 12 13 13 14
REMARK SMILES IDX 17 15 14 16 16 17 15 18 18 19 30 20 19 21 28 22 29 23 20 24
REMARK SMILES IDX 21 25 22 26 23 27 27 28 24 29 26 30 25 31
REMARK H PARENT 11 4
ROOT
ATOM      1  C   UNL     1     -18.049 -42.610  25.361  1.00  0.00     0.259 C 
ATOM      2  O   UNL     1     -17.831 -43.374  24.425  1.00  0.00    -0.269 OA
ATOM      3  N   UNL     1     -17.156 -42.324  26.374  1.00  0.00    -0.322 N 
ATOM      4  H   UNL     1     -17.488 -41.668  27.073  1.00  0.00     0.170 HD
ENDROOT
BRANCH   1   5
ATOM      5  C   UNL     1     -19.391 -41.921  25.427  1.00  0.00     0.082 A 
ATOM      6  C   UNL     1     -20.232 -41.884  26.562  1.00  0.00     0.131 A 
ATOM      7  C   UNL     1     -21.459 -41.205  26.481  1.00  0.00     0.047 A 
ATOM      8  C   UNL     1     -21.853 -40.568  25.300  1.00  0.00     0.004 A 
ATOM      9  C   UNL     1     -19.808 -41.271  24.248  1.00  0.00     0.018 A 
ATOM     10  C   UNL     1     -21.029 -40.600  24.184  1.00  0.00     0.001 A 
BRANCH   6  11
ATOM     11  O   UNL     1     -19.804 -42.523  27.700  1.00  0.00    -0.496 OA
ATOM     12  C   UNL     1     -20.390 -43.782  28.019  1.00  0.00     0.278 C 
ENDBRANCH   6  11
ENDBRANCH   1   5
BRANCH   3  13
ATOM     13  C   UNL     1     -15.850 -42.822  26.557  1.00  0.00     0.041 A 
ATOM     14  C   UNL     1     -14.790 -42.579  25.683  1.00  0.00     0.026 A 
ATOM     15  C   UNL     1     -15.624 -43.611  27.692  1.00  0.00     0.032 A 
ATOM     16  C   UNL     1     -13.522 -43.115  25.935  1.00  0.00     0.007 A 
ATOM     17  C   UNL     1     -14.352 -44.138  27.956  1.00  0.00    -0.022 A 
ATOM     18  C   UNL     1     -13.298 -43.888  27.076  1.00  0.00    -0.033 A 
ATOM     19  C   UNL     1     -14.088 -45.020  29.142  1.00  0.00     0.164 C 
ATOM     20  C   UNL     1     -11.959 -44.514  27.353  1.00  0.00     0.136 C 
ATOM     21  N   UNL     1     -12.763 -44.788  29.697  1.00  0.00    -0.274 N 
ATOM     22  C   UNL     1     -11.678 -44.813  28.822  1.00  0.00     0.234 C 
ATOM     23  O   UNL     1     -10.521 -45.060  29.168  1.00  0.00    -0.274 OA
BRANCH  21  24
ATOM     24  C   UNL     1     -12.613 -45.170  31.031  1.00  0.00     0.260 C 
ATOM     25  O   UNL     1     -12.331 -46.322  31.364  1.00  0.00    -0.269 OA
BRANCH  24  26
ATOM     26  C   UNL     1     -12.832 -44.151  32.098  1.00  0.00     0.040 A 
ATOM     27  C   UNL     1     -11.809 -43.282  32.502  1.00  0.00     0.014 A 
ATOM     28  C   UNL     1     -14.114 -44.017  32.646  1.00  0.00     0.014 A 
ATOM     29  C   UNL     1     -12.063 -42.311  33.473  1.00  0.00     0.001 A 
ATOM     30  C   UNL     1     -14.362 -43.045  33.616  1.00  0.00     0.001 A 
ATOM     31  C   UNL     1     -13.337 -42.195  34.030  1.00  0.00     0.000 A 
ENDBRANCH  24  26
ENDBRANCH  21  24
ENDBRANCH   3  13
TORSDOF 5
ENDMDL
MODEL 8
REMARK VINA RESULT:   -10.849      2.526      3.966
REMARK INTER + INTRA:         -14.115
REMARK INTER:                 -13.796
REMARK INTRA:                  -0.319
REMARK UNBOUND:                -0.095
REMARK SMILES COc1ccccc1C(=O)Nc1ccc2c(c1)CN(C(=O)c1ccccc1)C(=O)C2
REMARK SMILES IDX 9 1 10 2 11 3 8 5 3 6 4 7 5 8 7 9 6 10 2 11 1 12 12 13 13 14
REMARK SMILES IDX 17 15 14 16 16 17 15 18 18 19 30 20 19 21 28 22 29 23 20 24
REMARK SMILES IDX 21 25 22 26 23 27 27 28 24 29 26 30 25 31
REMARK H PARENT 11 4
ROOT
ATOM      1  C   UNL     1     -17.873 -42.464  25.335  1.00  0.00     0.259 C 
ATOM      2  O   UNL     1     -17.567 -42.997  24.272  1.00  0.00    -0.269 OA
ATOM      3  N   UNL     1     -17.063 -42.402  26.452  1.00  0.00    -0.322 N 
ATOM      4  H   UNL     1     -17.463 -41.923  27.251  1.00  0.00     0.170 HD
ENDROOT
BRANCH   1   5
ATOM      5  C   UNL     1     -19.235 -41.823  25.450  1.00  0.00     0.082 A 
ATOM      6  C   UNL     1     -20.015 -41.366  24.365  1.00  0.00     0.131 A 
ATOM      7  C   UNL     1     -21.268 -40.785  24.620  1.00  0.00     0.047 A 
ATOM      8  C   UNL     1     -21.749 -40.657  25.926  1.00  0.00     0.004 A 
ATOM      9  C   UNL     1     -19.741 -41.684  26.759  1.00  0.00     0.018 A 
ATOM     10  C   UNL     1     -20.988 -41.106  26.996  1.00  0.00     0.001 A 
BRANCH   6  11
ATOM     11  O   UNL     1     -19.502 -41.512  23.099  1.00  0.00    -0.496 OA
ATOM     12  C   UNL     1     -19.717 -40.457  22.166  1.00  0.00     0.278 C 
ENDBRANCH   6  11
ENDBRANCH   1   5
BRANCH   3  13
ATOM     13  C   UNL     1     -15.761 -42.913  26.618  1.00  0.00     0.041 A 
ATOM     14  C   UNL     1     -14.721 -42.719  25.709  1.00  0.00     0.026 A 
ATOM     15  C   UNL     1     -15.516 -43.664  27.775  1.00  0.00     0.032 A 
ATOM     16  C   UNL     1     -13.455 -43.265  25.947  1.00  0.00     0.007 A 
ATOM     17  C   UNL     1     -14.246 -44.201  28.025  1.00  0.00    -0.022 A 
ATOM     18  C   UNL     1     -13.211 -44.000  27.109  1.00  0.00    -0.033 A 
ATOM     19  C   UNL     1     -13.962 -45.043  29.235  1.00  0.00     0.164 C 
ATOM     20  C   UNL     1     -11.875 -44.636  27.374  1.00  0.00     0.136 C 
ATOM     21  N   UNL     1     -12.620 -44.812  29.747  1.00  0.00    -0.274 N 
ATOM     22  C   UNL     1     -11.559 -44.886  28.845  1.00  0.00     0.234 C 
ATOM     23  O   UNL     1     -10.397 -45.138  29.169  1.00  0.00    -0.274 OA
BRANCH  21  24
ATOM     24  C   UNL     1     -12.440 -45.147  31.090  1.00  0.00     0.260 C 
ATOM     25  O   UNL     1     -12.691 -46.269  31.533  1.00  0.00    -0.269 OA
BRANCH  24  26
ATOM     26  C   UNL     1     -11.952 -44.099  32.031  1.00  0.00     0.040 A 
ATOM     27  C   UNL     1     -12.837 -43.224  32.677  1.00  0.00     0.014 A 
ATOM     28  C   UNL     1     -10.584 -44.047  32.330  1.00  0.00     0.014 A 
ATOM     29  C   UNL     1     -12.349 -42.284  33.586  1.00  0.00     0.001 A 
ATOM     30  C   UNL     1     -10.102 -43.105  33.239  1.00  0.00     0.001 A 
ATOM     31  C   UNL     1     -10.983 -42.224  33.865  1.00  0.00     0.000 A 
ENDBRANCH  24  26
ENDBRANCH  21  24
ENDBRANCH   3  13
TORSDOF 5
ENDMDL
MODEL 9
REMARK VINA RESULT:   -10.773      3.490      6.337
REMARK INTER + INTRA:         -14.017
REMARK INTER:                 -13.887
REMARK INTRA:                  -0.130
REMARK UNBOUND:                -0.095
REMARK SMILES COc1ccccc1C(=O)Nc1ccc2c(c1)CN(C(=O)c1ccccc1)C(=O)C2
REMARK SMILES IDX 9 1 10 2 11 3 8 5 3 6 4 7 5 8 7 9 6 10 2 11 1 12 12 13 13 14
REMARK SMILES IDX 17 15 14 16 16 17 15 18 18 19 30 20 19 21 28 22 29 23 20 24
REMARK SMILES IDX 21 25 22 26 23 27 27 28 24 29 26 30 25 31
REMARK H PARENT 11 4
ROOT
ATOM      1  C   UNL     1     -18.543 -41.628  22.998  1.00  0.00     0.259 C 
ATOM      2  O   UNL     1     -17.356 -41.814  22.747  1.00  0.00    -0.269 OA
ATOM      3  N   UNL     1     -19.115 -41.737  24.250  1.00  0.00    -0.322 N 
ATOM      4  H   UNL     1     -20.111 -41.548  24.290  1.00  0.00     0.170 HD
ENDROOT
BRANCH   1   5
ATOM      5  C   UNL     1     -19.466 -41.250  21.864  1.00  0.00     0.082 A 
ATOM      6  C   UNL     1     -20.678 -41.904  21.548  1.00  0.00     0.131 A 
ATOM      7  C   UNL     1     -21.438 -41.446  20.459  1.00  0.00     0.047 A 
ATOM      8  C   UNL     1     -21.014 -40.356  19.692  1.00  0.00     0.004 A 
ATOM      9  C   UNL     1     -19.058 -40.154  21.077  1.00  0.00     0.018 A 
ATOM     10  C   UNL     1     -19.825 -39.710  20.001  1.00  0.00     0.001 A 
BRANCH   6  11
ATOM     11  O   UNL     1     -21.056 -42.970  22.328  1.00  0.00    -0.496 OA
ATOM     12  C   UNL     1     -22.287 -43.619  22.021  1.00  0.00     0.278 C 
ENDBRANCH   6  11
ENDBRANCH   1   5
BRANCH   3  13
ATOM     13  C   UNL     1     -18.494 -42.072  25.470  1.00  0.00     0.041 A 
ATOM     14  C   UNL     1     -19.150 -42.097  26.701  1.00  0.00     0.026 A 
ATOM     15  C   UNL     1     -17.132 -42.395  25.422  1.00  0.00     0.032 A 
ATOM     16  C   UNL     1     -18.458 -42.436  27.869  1.00  0.00     0.007 A 
ATOM     17  C   UNL     1     -16.439 -42.751  26.587  1.00  0.00    -0.022 A 
ATOM     18  C   UNL     1     -17.104 -42.772  27.815  1.00  0.00    -0.033 A 
ATOM     19  C   UNL     1     -14.970 -43.063  26.574  1.00  0.00     0.164 C 
ATOM     20  C   UNL     1     -16.322 -43.100  29.056  1.00  0.00     0.136 C 
ATOM     21  N   UNL     1     -14.638 -44.115  27.522  1.00  0.00    -0.274 N 
ATOM     22  C   UNL     1     -15.094 -43.976  28.833  1.00  0.00     0.234 C 
ATOM     23  O   UNL     1     -14.564 -44.517  29.806  1.00  0.00    -0.274 OA
BRANCH  21  24
ATOM     24  C   UNL     1     -13.452 -44.798  27.248  1.00  0.00     0.260 C 
ATOM     25  O   UNL     1     -13.425 -45.852  26.611  1.00  0.00    -0.269 OA
BRANCH  24  26
ATOM     26  C   UNL     1     -12.170 -44.246  27.771  1.00  0.00     0.040 A 
ATOM     27  C   UNL     1     -11.255 -45.050  28.466  1.00  0.00     0.014 A 
ATOM     28  C   UNL     1     -11.847 -42.912  27.490  1.00  0.00     0.014 A 
ATOM     29  C   UNL     1     -10.044 -44.510  28.903  1.00  0.00     0.001 A 
ATOM     30  C   UNL     1     -10.635 -42.377  27.930  1.00  0.00     0.001 A 
ATOM     31  C   UNL     1      -9.737 -43.175  28.637  1.00  0.00     0.000 A 
ENDBRANCH  24  26
ENDBRANCH  21  24
ENDBRANCH   3  13
TORSDOF 5
ENDMDL
