MODEL 1
REMARK VINA RESULT:   -13.077      0.000      0.000
REMARK INTER + INTRA:         -18.280
REMARK INTER:                 -17.663
REMARK INTRA:                  -0.617
REMARK UNBOUND:                -0.617
REMARK SMILES O=C1C(=NCCN=c2c3c([nH]c4cc(Cl)ccc24)CCCC3)C=C(O)c2c(O)cccc21
REMARK SMILES IDX 5 1 4 2 3 3 24 4 23 5 26 6 27 7 32 8 2 9 29 10 31 11 30 12
REMARK SMILES IDX 1 13 25 14 28 16 6 18 7 19 8 20 9 21 18 22 10 23 22 24 17 25
REMARK SMILES IDX 12 26 11 27 19 28 21 29 16 30 13 31 20 32 14 33 15 35
REMARK H PARENT 25 15 28 17 11 34
ROOT
ATOM      1  C   UNL     1     -13.434 -45.174  27.804  1.00  0.00     0.166 C 
ENDROOT
BRANCH   1   2
ATOM      2  N   UNL     1     -14.222 -43.951  27.912  1.00  0.00    -0.279 NA
BRANCH   2   3
ATOM      3  C   UNL     1     -14.967 -43.534  26.949  1.00  0.00     0.109 C 
ATOM      4  C   UNL     1     -15.641 -43.355  24.585  1.00  0.00     0.129 C 
ATOM      5  C   UNL     1     -14.710 -43.671  25.493  1.00  0.00     0.079 C 
ATOM      6  C   UNL     1     -16.981 -42.852  24.952  1.00  0.00     0.069 A 
ATOM      7  C   UNL     1     -18.001 -42.610  24.013  1.00  0.00     0.127 A 
ATOM      8  C   UNL     1     -17.277 -42.581  26.296  1.00  0.00     0.039 A 
ATOM      9  C   UNL     1     -16.254 -42.807  27.336  1.00  0.00     0.211 C 
ATOM     10  C   UNL     1     -19.254 -42.123  24.394  1.00  0.00     0.047 A 
ATOM     11  C   UNL     1     -18.533 -42.084  26.686  1.00  0.00     0.013 A 
ATOM     12  C   UNL     1     -19.521 -41.859  25.733  1.00  0.00     0.005 A 
ATOM     13  O   UNL     1     -16.427 -42.417  28.483  1.00  0.00    -0.287 OA
BRANCH   4  14
ATOM     14  O   UNL     1     -15.399 -43.492  23.228  1.00  0.00    -0.507 OA
ATOM     15  H   UNL     1     -14.506 -43.863  23.101  1.00  0.00     0.293 HD
ENDBRANCH   4  14
BRANCH   7  16
ATOM     16  O   UNL     1     -17.843 -42.827  22.669  1.00  0.00    -0.507 OA
ATOM     17  H   UNL     1     -16.883 -42.939  22.511  1.00  0.00     0.293 HD
ENDBRANCH   7  16
ENDBRANCH   2   3
ENDBRANCH   1   2
BRANCH   1  18
ATOM     18  C   UNL     1     -12.057 -44.983  28.444  1.00  0.00     0.166 C 
BRANCH  18  19
ATOM     19  N   UNL     1     -12.052 -45.556  29.777  1.00  0.00    -0.282 NA
BRANCH  19  20
ATOM     20  C   UNL     1     -11.655 -44.979  30.863  1.00  0.00     0.072 A 
ATOM     21  C   UNL     1     -10.196 -45.154  31.206  1.00  0.00    -0.003 A 
ATOM     22  C   UNL     1     -12.435 -44.119  31.819  1.00  0.00     0.024 A 
ATOM     23  C   UNL     1      -9.609 -44.240  32.003  1.00  0.00     0.021 A 
ATOM     24  C   UNL     1      -9.467 -46.315  30.583  1.00  0.00     0.039 C 
ATOM     25  C   UNL     1     -13.820 -44.214  31.994  1.00  0.00     0.014 A 
ATOM     26  C   UNL     1     -11.707 -43.217  32.622  1.00  0.00     0.049 A 
ATOM     27  N   UNL     1     -10.303 -43.188  32.565  1.00  0.00    -0.358 N 
ATOM     28  C   UNL     1      -8.130 -44.313  32.322  1.00  0.00     0.054 C 
ATOM     29  C   UNL     1      -8.096 -46.568  31.210  1.00  0.00     0.005 C 
ATOM     30  C   UNL     1     -14.488 -43.351  32.868  1.00  0.00     0.021 A 
ATOM     31  C   UNL     1     -12.385 -42.333  33.473  1.00  0.00     0.047 A 
ATOM     32  C   UNL     1      -7.345 -45.260  31.413  1.00  0.00     0.007 C 
ATOM     33  C   UNL     1     -13.770 -42.402  33.589  1.00  0.00     0.043 A 
ATOM     34  H   UNL     1      -9.826 -42.667  33.292  1.00  0.00     0.166 HD
ATOM     35  Cl  UNL     1     -14.594 -41.331  34.653  1.00  0.00    -0.084 Cl
ENDBRANCH  19  20
ENDBRANCH  18  19
ENDBRANCH   1  18
TORSDOF 7
ENDMDL
MODEL 2
REMARK VINA RESULT:   -12.110      0.986      2.024
REMARK INTER + INTRA:         -16.974
REMARK INTER:                 -16.390
REMARK INTRA:                  -0.584
REMARK UNBOUND:                -0.617
REMARK SMILES O=C1C(=NCCN=c2c3c([nH]c4cc(Cl)ccc24)CCCC3)C=C(O)c2c(O)cccc21
REMARK SMILES IDX 5 1 4 2 3 3 24 4 23 5 26 6 27 7 32 8 2 9 29 10 31 11 30 12
REMARK SMILES IDX 1 13 25 14 28 16 6 18 7 19 8 20 9 21 18 22 10 23 22 24 17 25
REMARK SMILES IDX 12 26 11 27 19 28 21 29 16 30 13 31 20 32 14 33 15 35
REMARK H PARENT 25 15 28 17 11 34
ROOT
ATOM      1  C   UNL     1     -13.057 -44.805  27.364  1.00  0.00     0.166 C 
ENDROOT
BRANCH   1   2
ATOM      2  N   UNL     1     -13.491 -43.739  26.467  1.00  0.00    -0.279 NA
BRANCH   2   3
ATOM      3  C   UNL     1     -14.735 -43.461  26.292  1.00  0.00     0.109 C 
ATOM      4  C   UNL     1     -16.955 -42.675  27.022  1.00  0.00     0.129 C 
ATOM      5  C   UNL     1     -15.732 -43.117  27.339  1.00  0.00     0.079 C 
ATOM      6  C   UNL     1     -17.406 -42.493  25.627  1.00  0.00     0.069 A 
ATOM      7  C   UNL     1     -18.652 -41.937  25.282  1.00  0.00     0.127 A 
ATOM      8  C   UNL     1     -16.576 -42.898  24.571  1.00  0.00     0.039 A 
ATOM      9  C   UNL     1     -15.257 -43.496  24.857  1.00  0.00     0.211 C 
ATOM     10  C   UNL     1     -19.051 -41.790  23.952  1.00  0.00     0.047 A 
ATOM     11  C   UNL     1     -16.975 -42.761  23.230  1.00  0.00     0.013 A 
ATOM     12  C   UNL     1     -18.212 -42.203  22.923  1.00  0.00     0.005 A 
ATOM     13  O   UNL     1     -14.595 -44.012  23.967  1.00  0.00    -0.287 OA
BRANCH   4  14
ATOM     14  O   UNL     1     -17.878 -42.349  28.002  1.00  0.00    -0.507 OA
ATOM     15  H   UNL     1     -17.927 -41.379  28.082  1.00  0.00     0.293 HD
ENDBRANCH   4  14
BRANCH   7  16
ATOM     16  O   UNL     1     -19.558 -41.504  26.215  1.00  0.00    -0.507 OA
ATOM     17  H   UNL     1     -19.623 -40.532  26.118  1.00  0.00     0.293 HD
ENDBRANCH   7  16
ENDBRANCH   2   3
ENDBRANCH   1   2
BRANCH   1  18
ATOM     18  C   UNL     1     -11.963 -44.298  28.307  1.00  0.00     0.166 C 
BRANCH  18  19
ATOM     19  N   UNL     1     -11.974 -45.074  29.532  1.00  0.00    -0.282 NA
BRANCH  19  20
ATOM     20  C   UNL     1     -11.605 -44.671  30.703  1.00  0.00     0.072 A 
ATOM     21  C   UNL     1     -10.180 -44.987  31.089  1.00  0.00    -0.003 A 
ATOM     22  C   UNL     1     -12.384 -43.893  31.728  1.00  0.00     0.024 A 
ATOM     23  C   UNL     1      -9.585 -44.226  32.028  1.00  0.00     0.021 A 
ATOM     24  C   UNL     1      -9.489 -46.103  30.353  1.00  0.00     0.039 C 
ATOM     25  C   UNL     1     -13.780 -43.917  31.822  1.00  0.00     0.014 A 
ATOM     26  C   UNL     1     -11.650 -43.154  32.678  1.00  0.00     0.049 A 
ATOM     27  N   UNL     1     -10.245 -43.212  32.692  1.00  0.00    -0.358 N 
ATOM     28  C   UNL     1      -8.133 -44.439  32.405  1.00  0.00     0.054 C 
ATOM     29  C   UNL     1      -8.173 -46.527  31.004  1.00  0.00     0.005 C 
ATOM     30  C   UNL     1     -14.443 -43.133  32.771  1.00  0.00     0.021 A 
ATOM     31  C   UNL     1     -12.320 -42.345  33.606  1.00  0.00     0.047 A 
ATOM     32  C   UNL     1      -7.357 -45.309  31.416  1.00  0.00     0.007 C 
ATOM     33  C   UNL     1     -13.711 -42.336  33.645  1.00  0.00     0.043 A 
ATOM     34  H   UNL     1      -9.779 -42.824  33.504  1.00  0.00     0.166 HD
ATOM     35  Cl  UNL     1     -14.527 -41.360  34.803  1.00  0.00    -0.084 Cl
ENDBRANCH  19  20
ENDBRANCH  18  19
ENDBRANCH   1  18
TORSDOF 7
ENDMDL
MODEL 3
REMARK VINA RESULT:   -11.644      1.853      3.844
REMARK INTER + INTRA:         -16.345
REMARK INTER:                 -15.773
REMARK INTRA:                  -0.572
REMARK UNBOUND:                -0.617
REMARK SMILES O=C1C(=NCCN=c2c3c([nH]c4cc(Cl)ccc24)CCCC3)C=C(O)c2c(O)cccc21
REMARK SMILES IDX 5 1 4 2 3 3 24 4 23 5 26 6 27 7 32 8 2 9 29 10 31 11 30 12
REMARK SMILES IDX 1 13 25 14 28 16 6 18 7 19 8 20 9 21 18 22 10 23 22 24 17 25
REMARK SMILES IDX 12 26 11 27 19 28 21 29 16 30 13 31 20 32 14 33 15 35
REMARK H PARENT 25 15 28 17 11 34
ROOT
ATOM      1  C   UNL     1     -13.044 -44.446  28.756  1.00  0.00     0.166 C 
ENDROOT
BRANCH   1   2
ATOM      2  N   UNL     1     -14.479 -44.248  28.581  1.00  0.00    -0.279 NA
BRANCH   2   3
ATOM      3  C   UNL     1     -14.974 -43.796  27.483  1.00  0.00     0.109 C 
ATOM      4  C   UNL     1     -15.127 -43.611  25.030  1.00  0.00     0.129 C 
ATOM      5  C   UNL     1     -14.431 -43.977  26.112  1.00  0.00     0.079 C 
ATOM      6  C   UNL     1     -16.473 -43.007  25.107  1.00  0.00     0.069 A 
ATOM      7  C   UNL     1     -17.255 -42.708  23.976  1.00  0.00     0.127 A 
ATOM      8  C   UNL     1     -17.021 -42.692  26.360  1.00  0.00     0.039 A 
ATOM      9  C   UNL     1     -16.256 -42.972  27.590  1.00  0.00     0.211 C 
ATOM     10  C   UNL     1     -18.520 -42.127  24.086  1.00  0.00     0.047 A 
ATOM     11  C   UNL     1     -18.290 -42.099  26.478  1.00  0.00     0.013 A 
ATOM     12  C   UNL     1     -19.039 -41.820  25.339  1.00  0.00     0.005 A 
ATOM     13  O   UNL     1     -16.634 -42.551  28.675  1.00  0.00    -0.287 OA
BRANCH   4  14
ATOM     14  O   UNL     1     -14.618 -43.789  23.754  1.00  0.00    -0.507 OA
ATOM     15  H   UNL     1     -15.018 -44.587  23.361  1.00  0.00     0.293 HD
ENDBRANCH   4  14
BRANCH   7  16
ATOM     16  O   UNL     1     -16.837 -42.961  22.695  1.00  0.00    -0.507 OA
ATOM     17  H   UNL     1     -17.555 -43.463  22.257  1.00  0.00     0.293 HD
ENDBRANCH   7  16
ENDBRANCH   2   3
ENDBRANCH   1   2
BRANCH   1  18
ATOM     18  C   UNL     1     -12.775 -45.498  29.835  1.00  0.00     0.166 C 
BRANCH  18  19
ATOM     19  N   UNL     1     -13.174 -44.983  31.131  1.00  0.00    -0.282 NA
BRANCH  19  20
ATOM     20  C   UNL     1     -12.600 -44.034  31.794  1.00  0.00     0.072 A 
ATOM     21  C   UNL     1     -13.524 -43.042  32.458  1.00  0.00    -0.003 A 
ATOM     22  C   UNL     1     -11.135 -43.797  32.034  1.00  0.00     0.024 A 
ATOM     23  C   UNL     1     -13.066 -42.345  33.516  1.00  0.00     0.021 A 
ATOM     24  C   UNL     1     -14.930 -42.936  31.929  1.00  0.00     0.039 C 
ATOM     25  C   UNL     1     -10.126 -44.241  31.171  1.00  0.00     0.014 A 
ATOM     26  C   UNL     1     -10.777 -43.028  33.161  1.00  0.00     0.049 A 
ATOM     27  N   UNL     1     -11.770 -42.458  33.976  1.00  0.00    -0.358 N 
ATOM     28  C   UNL     1     -13.966 -41.392  34.276  1.00  0.00     0.054 C 
ATOM     29  C   UNL     1     -15.684 -41.721  32.469  1.00  0.00     0.005 C 
ATOM     30  C   UNL     1      -8.779 -44.024  31.478  1.00  0.00     0.021 A 
ATOM     31  C   UNL     1      -9.425 -42.842  33.482  1.00  0.00     0.047 A 
ATOM     32  C   UNL     1     -15.454 -41.563  33.966  1.00  0.00     0.007 C 
ATOM     33  C   UNL     1      -8.435 -43.344  32.641  1.00  0.00     0.043 A 
ATOM     34  H   UNL     1     -11.466 -41.764  34.650  1.00  0.00     0.166 HD
ATOM     35  Cl  UNL     1      -6.778 -43.091  33.028  1.00  0.00    -0.084 Cl
ENDBRANCH  19  20
ENDBRANCH  18  19
ENDBRANCH   1  18
TORSDOF 7
ENDMDL
MODEL 4
REMARK VINA RESULT:   -10.544      5.354     11.065
REMARK INTER + INTRA:         -14.859
REMARK INTER:                 -14.003
REMARK INTRA:                  -0.856
REMARK UNBOUND:                -0.617
REMARK SMILES O=C1C(=NCCN=c2c3c([nH]c4cc(Cl)ccc24)CCCC3)C=C(O)c2c(O)cccc21
REMARK SMILES IDX 5 1 4 2 3 3 24 4 23 5 26 6 27 7 32 8 2 9 29 10 31 11 30 12
REMARK SMILES IDX 1 13 25 14 28 16 6 18 7 19 8 20 9 21 18 22 10 23 22 24 17 25
REMARK SMILES IDX 12 26 11 27 19 28 21 29 16 30 13 31 20 32 14 33 15 35
REMARK H PARENT 25 15 28 17 11 34
ROOT
ATOM      1  C   UNL     1     -16.129 -41.674  22.839  1.00  0.00     0.166 C 
ENDROOT
BRANCH   1   2
ATOM      2  N   UNL     1     -16.469 -42.853  23.629  1.00  0.00    -0.279 NA
BRANCH   2   3
ATOM      3  C   UNL     1     -15.957 -43.065  24.790  1.00  0.00     0.109 C 
ATOM      4  C   UNL     1     -15.908 -42.922  27.251  1.00  0.00     0.129 C 
ATOM      5  C   UNL     1     -16.407 -42.493  26.086  1.00  0.00     0.079 C 
ATOM      6  C   UNL     1     -14.887 -43.986  27.343  1.00  0.00     0.069 A 
ATOM      7  C   UNL     1     -14.428 -44.515  28.564  1.00  0.00     0.127 A 
ATOM      8  C   UNL     1     -14.319 -44.507  26.171  1.00  0.00     0.039 A 
ATOM      9  C   UNL     1     -14.748 -43.997  24.854  1.00  0.00     0.211 C 
ATOM     10  C   UNL     1     -13.452 -45.513  28.615  1.00  0.00     0.047 A 
ATOM     11  C   UNL     1     -13.331 -45.506  26.215  1.00  0.00     0.013 A 
ATOM     12  C   UNL     1     -12.901 -46.010  27.438  1.00  0.00     0.005 A 
ATOM     13  O   UNL     1     -14.149 -44.307  23.834  1.00  0.00    -0.287 OA
BRANCH   4  14
ATOM     14  O   UNL     1     -16.336 -42.391  28.456  1.00  0.00    -0.507 OA
ATOM     15  H   UNL     1     -17.188 -42.798  28.699  1.00  0.00     0.293 HD
ENDBRANCH   4  14
BRANCH   7  16
ATOM     16  O   UNL     1     -14.895 -44.093  29.781  1.00  0.00    -0.507 OA
ATOM     17  H   UNL     1     -14.131 -43.714  30.263  1.00  0.00     0.293 HD
ENDBRANCH   7  16
ENDBRANCH   2   3
ENDBRANCH   1   2
BRANCH   1  18
ATOM     18  C   UNL     1     -17.397 -40.986  22.329  1.00  0.00     0.166 C 
BRANCH  18  19
ATOM     19  N   UNL     1     -18.551 -41.821  22.601  1.00  0.00    -0.282 NA
BRANCH  19  20
ATOM     20  C   UNL     1     -19.777 -41.429  22.717  1.00  0.00     0.072 A 
ATOM     21  C   UNL     1     -20.342 -41.438  24.116  1.00  0.00    -0.003 A 
ATOM     22  C   UNL     1     -20.715 -40.924  21.656  1.00  0.00     0.024 A 
ATOM     23  C   UNL     1     -21.383 -40.631  24.395  1.00  0.00     0.021 A 
ATOM     24  C   UNL     1     -19.663 -42.313  25.137  1.00  0.00     0.039 C 
ATOM     25  C   UNL     1     -20.617 -41.272  20.303  1.00  0.00     0.014 A 
ATOM     26  C   UNL     1     -21.786 -40.106  22.072  1.00  0.00     0.049 A 
ATOM     27  N   UNL     1     -21.990 -39.844  23.437  1.00  0.00    -0.358 N 
ATOM     28  C   UNL     1     -21.947 -40.534  25.797  1.00  0.00     0.054 C 
ATOM     29  C   UNL     1     -20.471 -42.471  26.424  1.00  0.00     0.005 C 
ATOM     30  C   UNL     1     -21.496 -40.729  19.362  1.00  0.00     0.021 A 
ATOM     31  C   UNL     1     -22.645 -39.539  21.120  1.00  0.00     0.047 A 
ATOM     32  C   UNL     1     -21.040 -41.132  26.874  1.00  0.00     0.007 C 
ATOM     33  C   UNL     1     -22.493 -39.850  19.772  1.00  0.00     0.043 A 
ATOM     34  H   UNL     1     -22.874 -39.418  23.695  1.00  0.00     0.166 HD
ATOM     35  Cl  UNL     1     -23.566 -39.170  18.612  1.00  0.00    -0.084 Cl
ENDBRANCH  19  20
ENDBRANCH  18  19
ENDBRANCH   1  18
TORSDOF 7
ENDMDL
MODEL 5
REMARK VINA RESULT:   -10.399      3.854      9.952
REMARK INTER + INTRA:         -14.663
REMARK INTER:                 -14.153
REMARK INTRA:                  -0.510
REMARK UNBOUND:                -0.617
REMARK SMILES O=C1C(=NCCN=c2c3c([nH]c4cc(Cl)ccc24)CCCC3)C=C(O)c2c(O)cccc21
REMARK SMILES IDX 5 1 4 2 3 3 24 4 23 5 26 6 27 7 32 8 2 9 29 10 31 11 30 12
REMARK SMILES IDX 1 13 25 14 28 16 6 18 7 19 8 20 9 21 18 22 10 23 22 24 17 25
REMARK SMILES IDX 12 26 11 27 19 28 21 29 16 30 13 31 20 32 14 33 15 35
REMARK H PARENT 25 15 28 17 11 34
ROOT
ATOM      1  C   UNL     1     -15.072 -42.879  26.048  1.00  0.00     0.166 C 
ENDROOT
BRANCH   1   2
ATOM      2  N   UNL     1     -14.312 -44.066  26.427  1.00  0.00    -0.279 NA
BRANCH   2   3
ATOM      3  C   UNL     1     -13.150 -43.984  26.974  1.00  0.00     0.109 C 
ATOM      4  C   UNL     1     -11.196 -42.769  27.857  1.00  0.00     0.129 C 
ATOM      5  C   UNL     1     -12.309 -42.768  27.114  1.00  0.00     0.079 C 
ATOM      6  C   UNL     1     -10.721 -43.961  28.589  1.00  0.00     0.069 A 
ATOM      7  C   UNL     1      -9.608 -43.949  29.451  1.00  0.00     0.127 A 
ATOM      8  C   UNL     1     -11.385 -45.186  28.426  1.00  0.00     0.039 A 
ATOM      9  C   UNL     1     -12.557 -45.276  27.533  1.00  0.00     0.211 C 
ATOM     10  C   UNL     1      -9.180 -45.098  30.119  1.00  0.00     0.047 A 
ATOM     11  C   UNL     1     -10.954 -46.348  29.089  1.00  0.00     0.013 A 
ATOM     12  C   UNL     1      -9.853 -46.301  29.937  1.00  0.00     0.005 A 
ATOM     13  O   UNL     1     -13.043 -46.360  27.241  1.00  0.00    -0.287 OA
BRANCH   4  14
ATOM     14  O   UNL     1     -10.419 -41.630  27.991  1.00  0.00    -0.507 OA
ATOM     15  H   UNL     1     -10.869 -41.006  28.590  1.00  0.00     0.293 HD
ENDBRANCH   4  14
BRANCH   7  16
ATOM     16  O   UNL     1      -8.869 -42.821  29.696  1.00  0.00    -0.507 OA
ATOM     17  H   UNL     1      -8.169 -42.787  29.011  1.00  0.00     0.293 HD
ENDBRANCH   7  16
ENDBRANCH   2   3
ENDBRANCH   1   2
BRANCH   1  18
ATOM     18  C   UNL     1     -15.883 -43.145  24.778  1.00  0.00     0.166 C 
BRANCH  18  19
ATOM     19  N   UNL     1     -16.869 -42.097  24.597  1.00  0.00    -0.282 NA
BRANCH  19  20
ATOM     20  C   UNL     1     -18.154 -42.237  24.602  1.00  0.00     0.072 A 
ATOM     21  C   UNL     1     -18.865 -41.830  23.335  1.00  0.00    -0.003 A 
ATOM     22  C   UNL     1     -19.043 -42.788  25.682  1.00  0.00     0.024 A 
ATOM     23  C   UNL     1     -20.073 -42.367  23.075  1.00  0.00     0.021 A 
ATOM     24  C   UNL     1     -18.149 -40.888  22.404  1.00  0.00     0.039 C 
ATOM     25  C   UNL     1     -18.718 -42.761  27.043  1.00  0.00     0.014 A 
ATOM     26  C   UNL     1     -20.298 -43.300  25.292  1.00  0.00     0.049 A 
ATOM     27  N   UNL     1     -20.709 -43.224  23.950  1.00  0.00    -0.358 N 
ATOM     28  C   UNL     1     -20.806 -42.062  21.785  1.00  0.00     0.054 C 
ATOM     29  C   UNL     1     -19.055 -40.320  21.312  1.00  0.00     0.005 C 
ATOM     30  C   UNL     1     -19.572 -43.333  27.991  1.00  0.00     0.021 A 
ATOM     31  C   UNL     1     -21.135 -43.901  26.242  1.00  0.00     0.047 A 
ATOM     32  C   UNL     1     -19.929 -41.413  20.712  1.00  0.00     0.007 C 
ATOM     33  C   UNL     1     -20.767 -43.917  27.584  1.00  0.00     0.043 A 
ATOM     34  H   UNL     1     -21.685 -43.425  23.758  1.00  0.00     0.166 HD
ATOM     35  Cl  UNL     1     -21.811 -44.634  28.748  1.00  0.00    -0.084 Cl
ENDBRANCH  19  20
ENDBRANCH  18  19
ENDBRANCH   1  18
TORSDOF 7
ENDMDL
MODEL 6
REMARK VINA RESULT:   -10.385      4.536     10.350
REMARK INTER + INTRA:         -14.645
REMARK INTER:                 -13.848
REMARK INTRA:                  -0.796
REMARK UNBOUND:                -0.617
REMARK SMILES O=C1C(=NCCN=c2c3c([nH]c4cc(Cl)ccc24)CCCC3)C=C(O)c2c(O)cccc21
REMARK SMILES IDX 5 1 4 2 3 3 24 4 23 5 26 6 27 7 32 8 2 9 29 10 31 11 30 12
REMARK SMILES IDX 1 13 25 14 28 16 6 18 7 19 8 20 9 21 18 22 10 23 22 24 17 25
REMARK SMILES IDX 12 26 11 27 19 28 21 29 16 30 13 31 20 32 14 33 15 35
REMARK H PARENT 25 15 28 17 11 34
ROOT
ATOM      1  C   UNL     1     -16.302 -41.505  23.012  1.00  0.00     0.166 C 
ENDROOT
BRANCH   1   2
ATOM      2  N   UNL     1     -16.466 -42.789  23.685  1.00  0.00    -0.279 NA
BRANCH   2   3
ATOM      3  C   UNL     1     -15.959 -43.019  24.845  1.00  0.00     0.109 C 
ATOM      4  C   UNL     1     -15.921 -42.923  27.307  1.00  0.00     0.129 C 
ATOM      5  C   UNL     1     -16.417 -42.475  26.148  1.00  0.00     0.079 C 
ATOM      6  C   UNL     1     -14.894 -43.982  27.385  1.00  0.00     0.069 A 
ATOM      7  C   UNL     1     -14.436 -44.531  28.597  1.00  0.00     0.127 A 
ATOM      8  C   UNL     1     -14.317 -44.477  26.205  1.00  0.00     0.039 A 
ATOM      9  C   UNL     1     -14.744 -43.944  24.896  1.00  0.00     0.211 C 
ATOM     10  C   UNL     1     -13.454 -45.523  28.633  1.00  0.00     0.047 A 
ATOM     11  C   UNL     1     -13.323 -45.470  26.234  1.00  0.00     0.013 A 
ATOM     12  C   UNL     1     -12.895 -45.994  27.450  1.00  0.00     0.005 A 
ATOM     13  O   UNL     1     -14.138 -44.232  23.873  1.00  0.00    -0.287 OA
BRANCH   4  14
ATOM     14  O   UNL     1     -16.358 -42.417  28.521  1.00  0.00    -0.507 OA
ATOM     15  H   UNL     1     -17.256 -42.750  28.699  1.00  0.00     0.293 HD
ENDBRANCH   4  14
BRANCH   7  16
ATOM     16  O   UNL     1     -14.912 -44.135  29.819  1.00  0.00    -0.507 OA
ATOM     17  H   UNL     1     -14.647 -44.824  30.464  1.00  0.00     0.293 HD
ENDBRANCH   7  16
ENDBRANCH   2   3
ENDBRANCH   1   2
BRANCH   1  18
ATOM     18  C   UNL     1     -17.481 -41.238  22.073  1.00  0.00     0.166 C 
BRANCH  18  19
ATOM     19  N   UNL     1     -18.649 -40.860  22.846  1.00  0.00    -0.282 NA
BRANCH  19  20
ATOM     20  C   UNL     1     -19.643 -41.622  23.163  1.00  0.00     0.072 A 
ATOM     21  C   UNL     1     -20.600 -41.956  22.044  1.00  0.00    -0.003 A 
ATOM     22  C   UNL     1     -19.964 -42.261  24.486  1.00  0.00     0.024 A 
ATOM     23  C   UNL     1     -21.345 -43.073  22.148  1.00  0.00     0.021 A 
ATOM     24  C   UNL     1     -20.617 -41.045  20.846  1.00  0.00     0.039 C 
ATOM     25  C   UNL     1     -19.554 -41.739  25.719  1.00  0.00     0.014 A 
ATOM     26  C   UNL     1     -20.778 -43.412  24.471  1.00  0.00     0.049 A 
ATOM     27  N   UNL     1     -21.313 -43.887  23.262  1.00  0.00    -0.358 N 
ATOM     28  C   UNL     1     -22.267 -43.507  21.027  1.00  0.00     0.054 C 
ATOM     29  C   UNL     1     -21.803 -41.300  19.916  1.00  0.00     0.005 C 
ATOM     30  C   UNL     1     -19.849 -42.409  26.909  1.00  0.00     0.021 A 
ATOM     31  C   UNL     1     -21.043 -44.098  25.665  1.00  0.00     0.047 A 
ATOM     32  C   UNL     1     -22.009 -42.793  19.699  1.00  0.00     0.007 C 
ATOM     33  C   UNL     1     -20.575 -43.595  26.875  1.00  0.00     0.043 A 
ATOM     34  H   UNL     1     -22.039 -44.593  23.328  1.00  0.00     0.166 HD
ATOM     35  Cl  UNL     1     -20.926 -44.428  28.339  1.00  0.00    -0.084 Cl
ENDBRANCH  19  20
ENDBRANCH  18  19
ENDBRANCH   1  18
TORSDOF 7
ENDMDL
