MODEL 1
REMARK VINA RESULT:    -9.631      0.000      0.000
REMARK INTER + INTRA:         -14.214
REMARK INTER:                 -13.290
REMARK INTRA:                  -0.924
REMARK UNBOUND:                -0.924
REMARK SMILES COc1cccc([C@H]2C=C(c3cc(F)ccc3F)NN2c2ccc(S(N)(=O)=O)cc2)c1OC
REMARK SMILES IDX 21 1 22 2 23 3 24 4 29 5 30 6 20 7 19 8 10 9 9 10 8 11 11 13
REMARK SMILES IDX 12 14 17 15 13 16 16 17 15 18 18 19 14 20 7 21 6 22 31 23
REMARK SMILES IDX 5 24 3 25 4 26 32 27 33 28 2 29 1 30 25 31 27 32 28 33 26 34
REMARK H PARENT 19 12 26 35 26 36
ROOT
ATOM      1  C   UNL     1     -19.065 -41.351  23.709  1.00  0.00     0.058 A 
ATOM      2  C   UNL     1     -18.333 -41.171  22.520  1.00  0.00     0.029 A 
ATOM      3  C   UNL     1     -18.905 -40.600  21.378  1.00  0.00     0.024 A 
ATOM      4  C   UNL     1     -20.235 -40.188  21.414  1.00  0.00     0.082 A 
ATOM      5  C   UNL     1     -20.995 -40.363  22.568  1.00  0.00     0.024 A 
ATOM      6  C   UNL     1     -20.408 -40.936  23.703  1.00  0.00     0.029 A 
ENDROOT
BRANCH   1   7
ATOM      7  N   UNL     1     -18.463 -41.922  24.828  1.00  0.00    -0.276 N 
ATOM      8  N   UNL     1     -17.162 -42.393  24.894  1.00  0.00    -0.297 N 
ATOM      9  C   UNL     1     -16.842 -42.719  26.207  1.00  0.00     0.063 C 
ATOM     10  C   UNL     1     -17.924 -42.566  26.989  1.00  0.00     0.033 C 
ATOM     11  C   UNL     1     -19.101 -42.057  26.171  1.00  0.00     0.165 C 
ATOM     12  H   UNL     1     -16.444 -41.809  24.460  1.00  0.00     0.188 HD
BRANCH   9  13
ATOM     13  C   UNL     1     -15.487 -43.109  26.609  1.00  0.00     0.038 A 
ATOM     14  C   UNL     1     -15.284 -44.032  27.646  1.00  0.00     0.052 A 
ATOM     15  C   UNL     1     -14.352 -42.595  25.960  1.00  0.00     0.132 A 
ATOM     16  C   UNL     1     -13.993 -44.406  28.012  1.00  0.00     0.124 A 
ATOM     17  C   UNL     1     -13.059 -42.971  26.330  1.00  0.00     0.043 A 
ATOM     18  C   UNL     1     -12.879 -43.883  27.366  1.00  0.00     0.042 A 
ATOM     19  F   UNL     1     -14.486 -41.704  24.964  1.00  0.00    -0.206 F 
ATOM     20  F   UNL     1     -13.822 -45.287  29.006  1.00  0.00    -0.207 F 
ENDBRANCH   9  13
BRANCH  11  21
ATOM     21  C   UNL     1     -20.264 -43.034  26.202  1.00  0.00     0.026 A 
ATOM     22  C   UNL     1     -20.177 -44.286  25.567  1.00  0.00     0.010 A 
ATOM     23  C   UNL     1     -21.442 -42.722  26.910  1.00  0.00     0.166 A 
ATOM     24  C   UNL     1     -21.245 -45.178  25.599  1.00  0.00     0.004 A 
ATOM     25  C   UNL     1     -22.542 -43.603  26.910  1.00  0.00     0.161 A 
ATOM     26  C   UNL     1     -22.425 -44.836  26.261  1.00  0.00     0.050 A 
BRANCH  23  27
ATOM     27  O   UNL     1     -21.472 -41.490  27.526  1.00  0.00    -0.492 OA
ATOM     28  C   UNL     1     -22.235 -40.516  26.815  1.00  0.00     0.278 C 
ENDBRANCH  23  27
BRANCH  25  29
ATOM     29  O   UNL     1     -23.679 -43.182  27.551  1.00  0.00    -0.493 OA
ATOM     30  C   UNL     1     -24.039 -43.847  28.754  1.00  0.00     0.278 C 
ENDBRANCH  25  29
ENDBRANCH  11  21
ENDBRANCH   1   7
BRANCH   4  31
ATOM     31  S   UNL     1     -20.980 -39.462  19.981  1.00  0.00     0.238 S 
ATOM     32  O   UNL     1     -21.639 -38.240  20.373  1.00  0.00    -0.207 OA
ATOM     33  O   UNL     1     -21.648 -40.502  19.231  1.00  0.00    -0.207 OA
BRANCH  31  34
ATOM     34  N   UNL     1     -19.622 -39.052  19.070  1.00  0.00    -0.225 NA
ATOM     35  H   UNL     1     -19.198 -38.216  19.474  1.00  0.00     0.137 HD
ATOM     36  H   UNL     1     -19.828 -38.933  18.078  1.00  0.00     0.137 HD
ENDBRANCH  31  34
ENDBRANCH   4  31
TORSDOF 7
ENDMDL
MODEL 2
REMARK VINA RESULT:    -9.270      1.804      2.263
REMARK INTER + INTRA:         -13.716
REMARK INTER:                 -12.884
REMARK INTRA:                  -0.832
REMARK UNBOUND:                -0.924
REMARK SMILES COc1cccc([C@H]2C=C(c3cc(F)ccc3F)NN2c2ccc(S(N)(=O)=O)cc2)c1OC
REMARK SMILES IDX 21 1 22 2 23 3 24 4 29 5 30 6 20 7 19 8 10 9 9 10 8 11 11 13
REMARK SMILES IDX 12 14 17 15 13 16 16 17 15 18 18 19 14 20 7 21 6 22 31 23
REMARK SMILES IDX 5 24 3 25 4 26 32 27 33 28 2 29 1 30 25 31 27 32 28 33 26 34
REMARK H PARENT 19 12 26 35 26 36
ROOT
ATOM      1  C   UNL     1     -20.534 -40.505  23.137  1.00  0.00     0.058 A 
ATOM      2  C   UNL     1     -19.910 -40.227  21.906  1.00  0.00     0.029 A 
ATOM      3  C   UNL     1     -20.561 -39.519  20.890  1.00  0.00     0.024 A 
ATOM      4  C   UNL     1     -21.861 -39.065  21.100  1.00  0.00     0.082 A 
ATOM      5  C   UNL     1     -22.516 -39.334  22.300  1.00  0.00     0.024 A 
ATOM      6  C   UNL     1     -21.851 -40.043  23.306  1.00  0.00     0.029 A 
ENDROOT
BRANCH   1   7
ATOM      7  N   UNL     1     -19.855 -41.212  24.128  1.00  0.00    -0.276 N 
ATOM      8  N   UNL     1     -18.622 -41.825  23.983  1.00  0.00    -0.297 N 
ATOM      9  C   UNL     1     -18.165 -42.271  25.217  1.00  0.00     0.063 C 
ATOM     10  C   UNL     1     -19.104 -42.054  26.153  1.00  0.00     0.033 C 
ATOM     11  C   UNL     1     -20.314 -41.367  25.540  1.00  0.00     0.165 C 
ATOM     12  H   UNL     1     -17.906 -41.294  23.480  1.00  0.00     0.188 HD
BRANCH   9  13
ATOM     13  C   UNL     1     -16.822 -42.832  25.400  1.00  0.00     0.038 A 
ATOM     14  C   UNL     1     -16.157 -43.460  24.337  1.00  0.00     0.052 A 
ATOM     15  C   UNL     1     -16.151 -42.741  26.630  1.00  0.00     0.132 A 
ATOM     16  C   UNL     1     -14.876 -43.979  24.517  1.00  0.00     0.124 A 
ATOM     17  C   UNL     1     -14.867 -43.262  26.807  1.00  0.00     0.043 A 
ATOM     18  C   UNL     1     -14.226 -43.888  25.742  1.00  0.00     0.042 A 
ATOM     19  F   UNL     1     -16.741 -42.155  27.684  1.00  0.00    -0.206 F 
ATOM     20  F   UNL     1     -14.260 -44.576  23.489  1.00  0.00    -0.207 F 
ENDBRANCH   9  13
BRANCH  11  21
ATOM     21  C   UNL     1     -21.569 -42.211  25.688  1.00  0.00     0.026 A 
ATOM     22  C   UNL     1     -21.771 -43.354  24.893  1.00  0.00     0.010 A 
ATOM     23  C   UNL     1     -22.537 -41.890  26.660  1.00  0.00     0.166 A 
ATOM     24  C   UNL     1     -22.922 -44.126  25.033  1.00  0.00     0.004 A 
ATOM     25  C   UNL     1     -23.724 -42.643  26.776  1.00  0.00     0.161 A 
ATOM     26  C   UNL     1     -23.897 -43.768  25.965  1.00  0.00     0.050 A 
BRANCH  23  27
ATOM     27  O   UNL     1     -22.286 -40.770  27.421  1.00  0.00    -0.492 OA
ATOM     28  C   UNL     1     -23.080 -39.642  27.054  1.00  0.00     0.278 C 
ENDBRANCH  23  27
BRANCH  25  29
ATOM     29  O   UNL     1     -24.651 -42.208  27.689  1.00  0.00    -0.493 OA
ATOM     30  C   UNL     1     -24.839 -42.993  28.858  1.00  0.00     0.278 C 
ENDBRANCH  25  29
ENDBRANCH  11  21
ENDBRANCH   1   7
BRANCH   4  31
ATOM     31  S   UNL     1     -22.705 -38.167  19.828  1.00  0.00     0.238 S 
ATOM     32  O   UNL     1     -24.024 -37.825  20.304  1.00  0.00    -0.207 OA
ATOM     33  O   UNL     1     -22.479 -38.831  18.564  1.00  0.00    -0.207 OA
BRANCH  31  34
ATOM     34  N   UNL     1     -21.794 -36.750  19.759  1.00  0.00    -0.225 NA
ATOM     35  H   UNL     1     -22.278 -36.024  20.290  1.00  0.00     0.137 HD
ATOM     36  H   UNL     1     -21.590 -36.452  18.806  1.00  0.00     0.137 HD
ENDBRANCH  31  34
ENDBRANCH   4  31
TORSDOF 7
ENDMDL
MODEL 3
REMARK VINA RESULT:    -9.057      4.411      7.979
REMARK INTER + INTRA:         -13.423
REMARK INTER:                 -12.175
REMARK INTRA:                  -1.248
REMARK UNBOUND:                -0.924
REMARK SMILES COc1cccc([C@H]2C=C(c3cc(F)ccc3F)NN2c2ccc(S(N)(=O)=O)cc2)c1OC
REMARK SMILES IDX 21 1 22 2 23 3 24 4 29 5 30 6 20 7 19 8 10 9 9 10 8 11 11 13
REMARK SMILES IDX 12 14 17 15 13 16 16 17 15 18 18 19 14 20 7 21 6 22 31 23
REMARK SMILES IDX 5 24 3 25 4 26 32 27 33 28 2 29 1 30 25 31 27 32 28 33 26 34
REMARK H PARENT 19 12 26 35 26 36
ROOT
ATOM      1  C   UNL     1     -19.298 -41.789  26.309  1.00  0.00     0.058 A 
ATOM      2  C   UNL     1     -18.685 -42.036  27.552  1.00  0.00     0.029 A 
ATOM      3  C   UNL     1     -17.386 -42.550  27.647  1.00  0.00     0.024 A 
ATOM      4  C   UNL     1     -16.672 -42.819  26.483  1.00  0.00     0.082 A 
ATOM      5  C   UNL     1     -17.252 -42.602  25.235  1.00  0.00     0.024 A 
ATOM      6  C   UNL     1     -18.551 -42.087  25.156  1.00  0.00     0.029 A 
ENDROOT
BRANCH   1   7
ATOM      7  N   UNL     1     -20.592 -41.275  26.251  1.00  0.00    -0.276 N 
ATOM      8  N   UNL     1     -21.442 -41.101  27.330  1.00  0.00    -0.297 N 
ATOM      9  C   UNL     1     -22.572 -40.396  26.935  1.00  0.00     0.063 C 
ATOM     10  C   UNL     1     -22.534 -40.185  25.609  1.00  0.00     0.033 C 
ATOM     11  C   UNL     1     -21.256 -40.758  25.018  1.00  0.00     0.165 C 
ATOM     12  H   UNL     1     -21.026 -40.710  28.179  1.00  0.00     0.188 HD
BRANCH   9  13
ATOM     13  C   UNL     1     -23.583 -39.937  27.893  1.00  0.00     0.038 A 
ATOM     14  C   UNL     1     -23.699 -38.577  28.217  1.00  0.00     0.052 A 
ATOM     15  C   UNL     1     -24.481 -40.831  28.498  1.00  0.00     0.132 A 
ATOM     16  C   UNL     1     -24.671 -38.148  29.119  1.00  0.00     0.124 A 
ATOM     17  C   UNL     1     -25.454 -40.399  29.402  1.00  0.00     0.043 A 
ATOM     18  C   UNL     1     -25.548 -39.046  29.715  1.00  0.00     0.042 A 
ATOM     19  F   UNL     1     -24.414 -42.145  28.229  1.00  0.00    -0.206 F 
ATOM     20  F   UNL     1     -24.762 -36.845  29.415  1.00  0.00    -0.207 F 
ENDBRANCH   9  13
BRANCH  11  21
ATOM     21  C   UNL     1     -21.552 -41.832  23.984  1.00  0.00     0.026 A 
ATOM     22  C   UNL     1     -22.229 -43.012  24.339  1.00  0.00     0.010 A 
ATOM     23  C   UNL     1     -21.193 -41.643  22.635  1.00  0.00     0.166 A 
ATOM     24  C   UNL     1     -22.500 -43.992  23.388  1.00  0.00     0.004 A 
ATOM     25  C   UNL     1     -21.426 -42.652  21.676  1.00  0.00     0.161 A 
ATOM     26  C   UNL     1     -22.094 -43.817  22.065  1.00  0.00     0.050 A 
BRANCH  23  27
ATOM     27  O   UNL     1     -20.544 -40.466  22.337  1.00  0.00    -0.492 OA
ATOM     28  C   UNL     1     -21.426 -39.408  21.964  1.00  0.00     0.278 C 
ENDBRANCH  23  27
BRANCH  25  29
ATOM     29  O   UNL     1     -20.966 -42.422  20.405  1.00  0.00    -0.493 OA
ATOM     30  C   UNL     1     -21.911 -41.999  19.431  1.00  0.00     0.278 C 
ENDBRANCH  25  29
ENDBRANCH  11  21
ENDBRANCH   1   7
BRANCH   4  31
ATOM     31  S   UNL     1     -15.028 -43.470  26.579  1.00  0.00     0.238 S 
ATOM     32  O   UNL     1     -14.781 -44.273  25.405  1.00  0.00    -0.207 OA
ATOM     33  O   UNL     1     -14.802 -43.960  27.920  1.00  0.00    -0.207 OA
BRANCH  31  34
ATOM     34  N   UNL     1     -14.105 -42.066  26.452  1.00  0.00    -0.225 NA
ATOM     35  H   UNL     1     -13.954 -41.688  27.389  1.00  0.00     0.137 HD
ATOM     36  H   UNL     1     -14.515 -41.374  25.824  1.00  0.00     0.137 HD
ENDBRANCH  31  34
ENDBRANCH   4  31
TORSDOF 7
ENDMDL
MODEL 4
REMARK VINA RESULT:    -9.050      2.950      5.795
REMARK INTER + INTRA:         -13.413
REMARK INTER:                 -12.058
REMARK INTRA:                  -1.355
REMARK UNBOUND:                -0.924
REMARK SMILES COc1cccc([C@H]2C=C(c3cc(F)ccc3F)NN2c2ccc(S(N)(=O)=O)cc2)c1OC
REMARK SMILES IDX 21 1 22 2 23 3 24 4 29 5 30 6 20 7 19 8 10 9 9 10 8 11 11 13
REMARK SMILES IDX 12 14 17 15 13 16 16 17 15 18 18 19 14 20 7 21 6 22 31 23
REMARK SMILES IDX 5 24 3 25 4 26 32 27 33 28 2 29 1 30 25 31 27 32 28 33 26 34
REMARK H PARENT 19 12 26 35 26 36
ROOT
ATOM      1  C   UNL     1     -21.337 -41.827  26.102  1.00  0.00     0.058 A 
ATOM      2  C   UNL     1     -21.692 -40.537  26.542  1.00  0.00     0.029 A 
ATOM      3  C   UNL     1     -22.849 -40.304  27.294  1.00  0.00     0.024 A 
ATOM      4  C   UNL     1     -23.673 -41.375  27.626  1.00  0.00     0.082 A 
ATOM      5  C   UNL     1     -23.363 -42.663  27.196  1.00  0.00     0.024 A 
ATOM      6  C   UNL     1     -22.202 -42.880  26.445  1.00  0.00     0.029 A 
ENDROOT
BRANCH   1   7
ATOM      7  N   UNL     1     -20.176 -42.023  25.356  1.00  0.00    -0.276 N 
ATOM      8  N   UNL     1     -18.885 -42.029  25.857  1.00  0.00    -0.297 N 
ATOM      9  C   UNL     1     -17.996 -42.438  24.871  1.00  0.00     0.063 C 
ATOM     10  C   UNL     1     -18.652 -42.609  23.710  1.00  0.00     0.033 C 
ATOM     11  C   UNL     1     -20.136 -42.330  23.896  1.00  0.00     0.165 C 
ATOM     12  H   UNL     1     -18.740 -42.534  26.735  1.00  0.00     0.188 HD
BRANCH   9  13
ATOM     13  C   UNL     1     -16.576 -42.680  25.147  1.00  0.00     0.038 A 
ATOM     14  C   UNL     1     -16.164 -43.197  26.384  1.00  0.00     0.052 A 
ATOM     15  C   UNL     1     -15.587 -42.427  24.183  1.00  0.00     0.132 A 
ATOM     16  C   UNL     1     -14.814 -43.435  26.633  1.00  0.00     0.124 A 
ATOM     17  C   UNL     1     -14.235 -42.667  24.435  1.00  0.00     0.043 A 
ATOM     18  C   UNL     1     -13.846 -43.174  25.672  1.00  0.00     0.042 A 
ATOM     19  F   UNL     1     -15.922 -41.927  22.982  1.00  0.00    -0.206 F 
ATOM     20  F   UNL     1     -14.443 -43.928  27.822  1.00  0.00    -0.207 F 
ENDBRANCH   9  13
BRANCH  11  21
ATOM     21  C   UNL     1     -20.602 -41.184  23.014  1.00  0.00     0.026 A 
ATOM     22  C   UNL     1     -19.748 -40.109  22.711  1.00  0.00     0.010 A 
ATOM     23  C   UNL     1     -21.890 -41.200  22.443  1.00  0.00     0.166 A 
ATOM     24  C   UNL     1     -20.179 -39.061  21.901  1.00  0.00     0.004 A 
ATOM     25  C   UNL     1     -22.346 -40.120  21.658  1.00  0.00     0.161 A 
ATOM     26  C   UNL     1     -21.474 -39.063  21.383  1.00  0.00     0.050 A 
BRANCH  23  27
ATOM     27  O   UNL     1     -22.682 -42.281  22.759  1.00  0.00    -0.492 OA
ATOM     28  C   UNL     1     -22.631 -43.327  21.791  1.00  0.00     0.278 C 
ENDBRANCH  23  27
BRANCH  25  29
ATOM     29  O   UNL     1     -23.643 -40.177  21.213  1.00  0.00    -0.493 OA
ATOM     30  C   UNL     1     -23.852 -40.313  19.815  1.00  0.00     0.278 C 
ENDBRANCH  25  29
ENDBRANCH  11  21
ENDBRANCH   1   7
BRANCH   4  31
ATOM     31  S   UNL     1     -25.143 -41.104  28.577  1.00  0.00     0.238 S 
ATOM     32  O   UNL     1     -26.174 -41.990  28.092  1.00  0.00    -0.207 OA
ATOM     33  O   UNL     1     -25.343 -39.680  28.723  1.00  0.00    -0.207 OA
BRANCH  31  34
ATOM     34  N   UNL     1     -24.662 -41.649  30.098  1.00  0.00    -0.225 NA
ATOM     35  H   UNL     1     -23.751 -41.243  30.317  1.00  0.00     0.137 HD
ATOM     36  H   UNL     1     -24.655 -42.666  30.174  1.00  0.00     0.137 HD
ENDBRANCH  31  34
ENDBRANCH   4  31
TORSDOF 7
ENDMDL
MODEL 5
REMARK VINA RESULT:    -9.002      4.066      7.554
REMARK INTER + INTRA:         -13.347
REMARK INTER:                 -12.038
REMARK INTRA:                  -1.309
REMARK UNBOUND:                -0.924
REMARK SMILES COc1cccc([C@H]2C=C(c3cc(F)ccc3F)NN2c2ccc(S(N)(=O)=O)cc2)c1OC
REMARK SMILES IDX 21 1 22 2 23 3 24 4 29 5 30 6 20 7 19 8 10 9 9 10 8 11 11 13
REMARK SMILES IDX 12 14 17 15 13 16 16 17 15 18 18 19 14 20 7 21 6 22 31 23
REMARK SMILES IDX 5 24 3 25 4 26 32 27 33 28 2 29 1 30 25 31 27 32 28 33 26 34
REMARK H PARENT 19 12 26 35 26 36
ROOT
ATOM      1  C   UNL     1     -18.644 -42.023  24.269  1.00  0.00     0.058 A 
ATOM      2  C   UNL     1     -18.617 -42.039  25.676  1.00  0.00     0.029 A 
ATOM      3  C   UNL     1     -17.480 -42.434  26.390  1.00  0.00     0.024 A 
ATOM      4  C   UNL     1     -16.337 -42.817  25.693  1.00  0.00     0.082 A 
ATOM      5  C   UNL     1     -16.331 -42.828  24.300  1.00  0.00     0.024 A 
ATOM      6  C   UNL     1     -17.476 -42.430  23.601  1.00  0.00     0.029 A 
ENDROOT
BRANCH   1   7
ATOM      7  N   UNL     1     -19.794 -41.622  23.591  1.00  0.00    -0.276 N 
ATOM      8  N   UNL     1     -19.920 -40.479  22.819  1.00  0.00    -0.297 N 
ATOM      9  C   UNL     1     -21.135 -40.493  22.145  1.00  0.00     0.063 C 
ATOM     10  C   UNL     1     -21.852 -41.564  22.524  1.00  0.00     0.033 C 
ATOM     11  C   UNL     1     -21.067 -42.398  23.526  1.00  0.00     0.165 C 
ATOM     12  H   UNL     1     -19.139 -40.263  22.194  1.00  0.00     0.188 HD
BRANCH   9  13
ATOM     13  C   UNL     1     -21.485 -39.483  21.141  1.00  0.00     0.038 A 
ATOM     14  C   UNL     1     -22.628 -38.685  21.295  1.00  0.00     0.052 A 
ATOM     15  C   UNL     1     -20.684 -39.265  20.008  1.00  0.00     0.132 A 
ATOM     16  C   UNL     1     -22.946 -37.720  20.342  1.00  0.00     0.124 A 
ATOM     17  C   UNL     1     -21.006 -38.297  19.054  1.00  0.00     0.043 A 
ATOM     18  C   UNL     1     -22.147 -37.519  19.223  1.00  0.00     0.042 A 
ATOM     19  F   UNL     1     -19.580 -40.003  19.805  1.00  0.00    -0.206 F 
ATOM     20  F   UNL     1     -24.043 -36.969  20.508  1.00  0.00    -0.207 F 
ENDBRANCH   9  13
BRANCH  11  21
ATOM     21  C   UNL     1     -21.794 -42.498  24.857  1.00  0.00     0.026 A 
ATOM     22  C   UNL     1     -22.473 -41.392  25.397  1.00  0.00     0.010 A 
ATOM     23  C   UNL     1     -21.838 -43.721  25.556  1.00  0.00     0.166 A 
ATOM     24  C   UNL     1     -23.138 -41.489  26.617  1.00  0.00     0.004 A 
ATOM     25  C   UNL     1     -22.474 -43.813  26.812  1.00  0.00     0.161 A 
ATOM     26  C   UNL     1     -23.132 -42.691  27.324  1.00  0.00     0.050 A 
BRANCH  23  27
ATOM     27  O   UNL     1     -21.169 -44.777  24.979  1.00  0.00    -0.492 OA
ATOM     28  C   UNL     1     -22.030 -45.711  24.329  1.00  0.00     0.278 C 
ENDBRANCH  23  27
BRANCH  25  29
ATOM     29  O   UNL     1     -22.395 -45.017  27.464  1.00  0.00    -0.493 OA
ATOM     30  C   UNL     1     -23.557 -45.474  28.141  1.00  0.00     0.278 C 
ENDBRANCH  25  29
ENDBRANCH  11  21
ENDBRANCH   1   7
BRANCH   4  31
ATOM     31  S   UNL     1     -14.886 -43.322  26.575  1.00  0.00     0.238 S 
ATOM     32  O   UNL     1     -13.953 -42.221  26.595  1.00  0.00    -0.207 OA
ATOM     33  O   UNL     1     -14.517 -44.649  26.137  1.00  0.00    -0.207 OA
BRANCH  31  34
ATOM     34  N   UNL     1     -15.494 -43.515  28.135  1.00  0.00    -0.225 NA
ATOM     35  H   UNL     1     -14.861 -43.057  28.792  1.00  0.00     0.137 HD
ATOM     36  H   UNL     1     -15.657 -44.492  28.381  1.00  0.00     0.137 HD
ENDBRANCH  31  34
ENDBRANCH   4  31
TORSDOF 7
ENDMDL
MODEL 6
REMARK VINA RESULT:    -8.883      3.263      6.124
REMARK INTER + INTRA:         -13.183
REMARK INTER:                 -12.446
REMARK INTRA:                  -0.737
REMARK UNBOUND:                -0.924
REMARK SMILES COc1cccc([C@H]2C=C(c3cc(F)ccc3F)NN2c2ccc(S(N)(=O)=O)cc2)c1OC
REMARK SMILES IDX 21 1 22 2 23 3 24 4 29 5 30 6 20 7 19 8 10 9 9 10 8 11 11 13
REMARK SMILES IDX 12 14 17 15 13 16 16 17 15 18 18 19 14 20 7 21 6 22 31 23
REMARK SMILES IDX 5 24 3 25 4 26 32 27 33 28 2 29 1 30 25 31 27 32 28 33 26 34
REMARK H PARENT 19 12 26 35 26 36
ROOT
ATOM      1  C   UNL     1     -22.127 -40.528  25.717  1.00  0.00     0.058 A 
ATOM      2  C   UNL     1     -23.132 -39.936  24.929  1.00  0.00     0.029 A 
ATOM      3  C   UNL     1     -24.263 -39.339  25.498  1.00  0.00     0.024 A 
ATOM      4  C   UNL     1     -24.399 -39.320  26.884  1.00  0.00     0.082 A 
ATOM      5  C   UNL     1     -23.432 -39.909  27.695  1.00  0.00     0.024 A 
ATOM      6  C   UNL     1     -22.307 -40.502  27.110  1.00  0.00     0.029 A 
ENDROOT
BRANCH   1   7
ATOM      7  N   UNL     1     -21.013 -41.112  25.116  1.00  0.00    -0.276 N 
ATOM      8  N   UNL     1     -19.769 -41.273  25.704  1.00  0.00    -0.297 N 
ATOM      9  C   UNL     1     -18.959 -42.057  24.891  1.00  0.00     0.063 C 
ATOM     10  C   UNL     1     -19.601 -42.336  23.744  1.00  0.00     0.033 C 
ATOM     11  C   UNL     1     -20.995 -41.728  23.756  1.00  0.00     0.165 C 
ATOM     12  H   UNL     1     -19.762 -41.597  26.674  1.00  0.00     0.188 HD
BRANCH   9  13
ATOM     13  C   UNL     1     -17.634 -42.519  25.317  1.00  0.00     0.038 A 
ATOM     14  C   UNL     1     -16.703 -42.991  24.380  1.00  0.00     0.052 A 
ATOM     15  C   UNL     1     -17.243 -42.483  26.666  1.00  0.00     0.132 A 
ATOM     16  C   UNL     1     -15.442 -43.415  24.793  1.00  0.00     0.124 A 
ATOM     17  C   UNL     1     -15.978 -42.910  27.077  1.00  0.00     0.043 A 
ATOM     18  C   UNL     1     -15.071 -43.381  26.132  1.00  0.00     0.042 A 
ATOM     19  F   UNL     1     -18.095 -42.046  27.608  1.00  0.00    -0.206 F 
ATOM     20  F   UNL     1     -14.569 -43.863  23.882  1.00  0.00    -0.207 F 
ENDBRANCH   9  13
BRANCH  11  21
ATOM     21  C   UNL     1     -21.176 -40.727  22.627  1.00  0.00     0.026 A 
ATOM     22  C   UNL     1     -20.293 -39.645  22.469  1.00  0.00     0.010 A 
ATOM     23  C   UNL     1     -22.212 -40.891  21.686  1.00  0.00     0.166 A 
ATOM     24  C   UNL     1     -20.462 -38.731  21.432  1.00  0.00     0.004 A 
ATOM     25  C   UNL     1     -22.414 -39.945  20.660  1.00  0.00     0.161 A 
ATOM     26  C   UNL     1     -21.522 -38.876  20.536  1.00  0.00     0.050 A 
BRANCH  23  27
ATOM     27  O   UNL     1     -23.042 -41.973  21.878  1.00  0.00    -0.492 OA
ATOM     28  C   UNL     1     -22.652 -43.129  21.137  1.00  0.00     0.278 C 
ENDBRANCH  23  27
BRANCH  25  29
ATOM     29  O   UNL     1     -23.498 -40.135  19.841  1.00  0.00    -0.493 OA
ATOM     30  C   UNL     1     -23.246 -40.517  18.496  1.00  0.00     0.278 C 
ENDBRANCH  25  29
ENDBRANCH  11  21
ENDBRANCH   1   7
BRANCH   4  31
ATOM     31  S   UNL     1     -25.822 -38.571  27.626  1.00  0.00     0.238 S 
ATOM     32  O   UNL     1     -25.991 -39.117  28.951  1.00  0.00    -0.207 OA
ATOM     33  O   UNL     1     -26.890 -38.540  26.653  1.00  0.00    -0.207 OA
BRANCH  31  34
ATOM     34  N   UNL     1     -25.312 -36.972  27.785  1.00  0.00    -0.225 NA
ATOM     35  H   UNL     1     -24.637 -36.769  27.046  1.00  0.00     0.137 HD
ATOM     36  H   UNL     1     -24.938 -36.762  28.710  1.00  0.00     0.137 HD
ENDBRANCH  31  34
ENDBRANCH   4  31
TORSDOF 7
ENDMDL
MODEL 7
REMARK VINA RESULT:    -8.868      4.438      7.306
REMARK INTER + INTRA:         -13.163
REMARK INTER:                 -11.893
REMARK INTRA:                  -1.270
REMARK UNBOUND:                -0.924
REMARK SMILES COc1cccc([C@H]2C=C(c3cc(F)ccc3F)NN2c2ccc(S(N)(=O)=O)cc2)c1OC
REMARK SMILES IDX 21 1 22 2 23 3 24 4 29 5 30 6 20 7 19 8 10 9 9 10 8 11 11 13
REMARK SMILES IDX 12 14 17 15 13 16 16 17 15 18 18 19 14 20 7 21 6 22 31 23
REMARK SMILES IDX 5 24 3 25 4 26 32 27 33 28 2 29 1 30 25 31 27 32 28 33 26 34
REMARK H PARENT 19 12 26 35 26 36
ROOT
ATOM      1  C   UNL     1     -19.351 -42.187  25.426  1.00  0.00     0.058 A 
ATOM      2  C   UNL     1     -18.882 -42.183  24.098  1.00  0.00     0.029 A 
ATOM      3  C   UNL     1     -17.528 -42.359  23.792  1.00  0.00     0.024 A 
ATOM      4  C   UNL     1     -16.614 -42.551  24.825  1.00  0.00     0.082 A 
ATOM      5  C   UNL     1     -17.039 -42.546  26.152  1.00  0.00     0.024 A 
ATOM      6  C   UNL     1     -18.397 -42.369  26.442  1.00  0.00     0.029 A 
ENDROOT
BRANCH   1   7
ATOM      7  N   UNL     1     -20.707 -42.011  25.694  1.00  0.00    -0.276 N 
ATOM      8  N   UNL     1     -21.236 -41.366  26.800  1.00  0.00    -0.297 N 
ATOM      9  C   UNL     1     -22.608 -41.212  26.649  1.00  0.00     0.063 C 
ATOM     10  C   UNL     1     -23.011 -41.821  25.520  1.00  0.00     0.033 C 
ATOM     11  C   UNL     1     -21.822 -42.428  24.793  1.00  0.00     0.165 C 
ATOM     12  H   UNL     1     -20.782 -40.492  27.078  1.00  0.00     0.188 HD
BRANCH   9  13
ATOM     13  C   UNL     1     -23.419 -40.438  27.594  1.00  0.00     0.038 A 
ATOM     14  C   UNL     1     -23.384 -39.036  27.589  1.00  0.00     0.052 A 
ATOM     15  C   UNL     1     -24.271 -41.067  28.517  1.00  0.00     0.132 A 
ATOM     16  C   UNL     1     -24.167 -38.309  28.482  1.00  0.00     0.124 A 
ATOM     17  C   UNL     1     -25.055 -40.335  29.412  1.00  0.00     0.043 A 
ATOM     18  C   UNL     1     -25.001 -38.945  29.395  1.00  0.00     0.042 A 
ATOM     19  F   UNL     1     -24.341 -42.407  28.572  1.00  0.00    -0.206 F 
ATOM     20  F   UNL     1     -24.117 -36.971  28.461  1.00  0.00    -0.207 F 
ENDBRANCH   9  13
BRANCH  11  21
ATOM     21  C   UNL     1     -21.966 -43.935  24.652  1.00  0.00     0.026 A 
ATOM     22  C   UNL     1     -21.541 -44.802  25.674  1.00  0.00     0.010 A 
ATOM     23  C   UNL     1     -22.571 -44.491  23.507  1.00  0.00     0.166 A 
ATOM     24  C   UNL     1     -21.676 -46.181  25.541  1.00  0.00     0.004 A 
ATOM     25  C   UNL     1     -22.670 -45.889  23.349  1.00  0.00     0.161 A 
ATOM     26  C   UNL     1     -22.231 -46.723  24.381  1.00  0.00     0.050 A 
BRANCH  23  27
ATOM     27  O   UNL     1     -22.980 -43.599  22.542  1.00  0.00    -0.492 OA
ATOM     28  C   UNL     1     -21.995 -43.351  21.540  1.00  0.00     0.278 C 
ENDBRANCH  23  27
BRANCH  25  29
ATOM     29  O   UNL     1     -23.193 -46.346  22.166  1.00  0.00    -0.493 OA
ATOM     30  C   UNL     1     -22.930 -47.696  21.810  1.00  0.00     0.278 C 
ENDBRANCH  25  29
ENDBRANCH  11  21
ENDBRANCH   1   7
BRANCH   4  31
ATOM     31  S   UNL     1     -14.895 -42.775  24.462  1.00  0.00     0.238 S 
ATOM     32  O   UNL     1     -14.746 -43.962  23.655  1.00  0.00    -0.207 OA
ATOM     33  O   UNL     1     -14.134 -42.552  25.670  1.00  0.00    -0.207 OA
BRANCH  31  34
ATOM     34  N   UNL     1     -14.585 -41.439  23.482  1.00  0.00    -0.225 NA
ATOM     35  H   UNL     1     -14.851 -41.668  22.523  1.00  0.00     0.137 HD
ATOM     36  H   UNL     1     -13.619 -41.116  23.542  1.00  0.00     0.137 HD
ENDBRANCH  31  34
ENDBRANCH   4  31
TORSDOF 7
ENDMDL
MODEL 8
REMARK VINA RESULT:    -8.665      3.843      6.065
REMARK INTER + INTRA:         -12.881
REMARK INTER:                 -11.374
REMARK INTRA:                  -1.507
REMARK UNBOUND:                -0.924
REMARK SMILES COc1cccc([C@H]2C=C(c3cc(F)ccc3F)NN2c2ccc(S(N)(=O)=O)cc2)c1OC
REMARK SMILES IDX 21 1 22 2 23 3 24 4 29 5 30 6 20 7 19 8 10 9 9 10 8 11 11 13
REMARK SMILES IDX 12 14 17 15 13 16 16 17 15 18 18 19 14 20 7 21 6 22 31 23
REMARK SMILES IDX 5 24 3 25 4 26 32 27 33 28 2 29 1 30 25 31 27 32 28 33 26 34
REMARK H PARENT 19 12 26 35 26 36
ROOT
ATOM      1  C   UNL     1     -21.531 -43.583  21.535  1.00  0.00     0.058 A 
ATOM      2  C   UNL     1     -21.472 -43.629  20.129  1.00  0.00     0.029 A 
ATOM      3  C   UNL     1     -22.355 -44.412  19.377  1.00  0.00     0.024 A 
ATOM      4  C   UNL     1     -23.327 -45.163  20.031  1.00  0.00     0.082 A 
ATOM      5  C   UNL     1     -23.407 -45.155  21.421  1.00  0.00     0.024 A 
ATOM      6  C   UNL     1     -22.517 -44.366  22.160  1.00  0.00     0.029 A 
ENDROOT
BRANCH   1   7
ATOM      7  N   UNL     1     -20.638 -42.791  22.253  1.00  0.00    -0.276 N 
ATOM      8  N   UNL     1     -19.949 -43.176  23.390  1.00  0.00    -0.297 N 
ATOM      9  C   UNL     1     -19.011 -42.208  23.728  1.00  0.00     0.063 C 
ATOM     10  C   UNL     1     -19.129 -41.154  22.903  1.00  0.00     0.033 C 
ATOM     11  C   UNL     1     -20.218 -41.409  21.872  1.00  0.00     0.165 C 
ATOM     12  H   UNL     1     -19.541 -44.115  23.380  1.00  0.00     0.188 HD
BRANCH   9  13
ATOM     13  C   UNL     1     -18.034 -42.405  24.804  1.00  0.00     0.038 A 
ATOM     14  C   UNL     1     -18.407 -42.256  26.148  1.00  0.00     0.052 A 
ATOM     15  C   UNL     1     -16.705 -42.769  24.531  1.00  0.00     0.132 A 
ATOM     16  C   UNL     1     -17.475 -42.457  27.164  1.00  0.00     0.124 A 
ATOM     17  C   UNL     1     -15.773 -42.970  25.551  1.00  0.00     0.043 A 
ATOM     18  C   UNL     1     -16.161 -42.811  26.878  1.00  0.00     0.042 A 
ATOM     19  F   UNL     1     -16.290 -42.921  23.263  1.00  0.00    -0.206 F 
ATOM     20  F   UNL     1     -17.852 -42.308  28.440  1.00  0.00    -0.207 F 
ENDBRANCH   9  13
BRANCH  11  21
ATOM     21  C   UNL     1     -21.331 -40.380  21.971  1.00  0.00     0.026 A 
ATOM     22  C   UNL     1     -22.005 -40.157  23.185  1.00  0.00     0.010 A 
ATOM     23  C   UNL     1     -21.681 -39.595  20.855  1.00  0.00     0.166 A 
ATOM     24  C   UNL     1     -23.024 -39.211  23.272  1.00  0.00     0.004 A 
ATOM     25  C   UNL     1     -22.741 -38.667  20.926  1.00  0.00     0.161 A 
ATOM     26  C   UNL     1     -23.395 -38.476  22.147  1.00  0.00     0.050 A 
BRANCH  23  27
ATOM     27  O   UNL     1     -20.983 -39.843  19.694  1.00  0.00    -0.492 OA
ATOM     28  C   UNL     1     -19.858 -38.984  19.511  1.00  0.00     0.278 C 
ENDBRANCH  23  27
BRANCH  25  29
ATOM     29  O   UNL     1     -23.071 -38.007  19.770  1.00  0.00    -0.493 OA
ATOM     30  C   UNL     1     -23.552 -36.676  19.888  1.00  0.00     0.278 C 
ENDBRANCH  25  29
ENDBRANCH  11  21
ENDBRANCH   1   7
BRANCH   4  31
ATOM     31  S   UNL     1     -24.455 -46.162  19.099  1.00  0.00     0.238 S 
ATOM     32  O   UNL     1     -23.743 -47.312  18.595  1.00  0.00    -0.207 OA
ATOM     33  O   UNL     1     -25.243 -45.299  18.249  1.00  0.00    -0.207 OA
BRANCH  31  34
ATOM     34  N   UNL     1     -25.508 -46.689  20.305  1.00  0.00    -0.225 NA
ATOM     35  H   UNL     1     -26.301 -47.157  19.863  1.00  0.00     0.137 HD
ATOM     36  H   UNL     1     -25.807 -45.941  20.929  1.00  0.00     0.137 HD
ENDBRANCH  31  34
ENDBRANCH   4  31
TORSDOF 7
ENDMDL
MODEL 9
REMARK VINA RESULT:    -8.166      4.000      7.290
REMARK INTER + INTRA:         -12.193
REMARK INTER:                 -11.905
REMARK INTRA:                  -0.288
REMARK UNBOUND:                -0.924
REMARK SMILES COc1cccc([C@H]2C=C(c3cc(F)ccc3F)NN2c2ccc(S(N)(=O)=O)cc2)c1OC
REMARK SMILES IDX 21 1 22 2 23 3 24 4 29 5 30 6 20 7 19 8 10 9 9 10 8 11 11 13
REMARK SMILES IDX 12 14 17 15 13 16 16 17 15 18 18 19 14 20 7 21 6 22 31 23
REMARK SMILES IDX 5 24 3 25 4 26 32 27 33 28 2 29 1 30 25 31 27 32 28 33 26 34
REMARK H PARENT 19 12 26 35 26 36
ROOT
ATOM      1  C   UNL     1     -18.321 -42.499  24.715  1.00  0.00     0.058 A 
ATOM      2  C   UNL     1     -17.219 -42.931  23.952  1.00  0.00     0.029 A 
ATOM      3  C   UNL     1     -15.989 -43.246  24.540  1.00  0.00     0.024 A 
ATOM      4  C   UNL     1     -15.847 -43.139  25.921  1.00  0.00     0.082 A 
ATOM      5  C   UNL     1     -16.910 -42.702  26.707  1.00  0.00     0.024 A 
ATOM      6  C   UNL     1     -18.134 -42.391  26.104  1.00  0.00     0.029 A 
ENDROOT
BRANCH   1   7
ATOM      7  N   UNL     1     -19.532 -42.196  24.096  1.00  0.00    -0.276 N 
ATOM      8  N   UNL     1     -19.895 -40.958  23.593  1.00  0.00    -0.297 N 
ATOM      9  C   UNL     1     -21.084 -41.064  22.883  1.00  0.00     0.063 C 
ATOM     10  C   UNL     1     -21.563 -42.316  22.985  1.00  0.00     0.033 C 
ATOM     11  C   UNL     1     -20.619 -43.178  23.808  1.00  0.00     0.165 C 
ATOM     12  H   UNL     1     -19.179 -40.453  23.064  1.00  0.00     0.188 HD
BRANCH   9  13
ATOM     13  C   UNL     1     -21.641 -39.946  22.114  1.00  0.00     0.038 A 
ATOM     14  C   UNL     1     -21.030 -39.517  20.928  1.00  0.00     0.052 A 
ATOM     15  C   UNL     1     -22.811 -39.285  22.524  1.00  0.00     0.132 A 
ATOM     16  C   UNL     1     -21.573 -38.462  20.197  1.00  0.00     0.124 A 
ATOM     17  C   UNL     1     -23.353 -38.227  21.790  1.00  0.00     0.043 A 
ATOM     18  C   UNL     1     -22.727 -37.812  20.618  1.00  0.00     0.042 A 
ATOM     19  F   UNL     1     -23.436 -39.649  23.655  1.00  0.00    -0.206 F 
ATOM     20  F   UNL     1     -20.972 -38.068  19.068  1.00  0.00    -0.207 F 
ENDBRANCH   9  13
BRANCH  11  21
ATOM     21  C   UNL     1     -21.301 -43.721  25.053  1.00  0.00     0.026 A 
ATOM     22  C   UNL     1     -21.297 -45.098  25.339  1.00  0.00     0.010 A 
ATOM     23  C   UNL     1     -21.916 -42.846  25.970  1.00  0.00     0.166 A 
ATOM     24  C   UNL     1     -21.922 -45.591  26.482  1.00  0.00     0.004 A 
ATOM     25  C   UNL     1     -22.588 -43.344  27.106  1.00  0.00     0.161 A 
ATOM     26  C   UNL     1     -22.571 -44.719  27.357  1.00  0.00     0.050 A 
BRANCH  23  27
ATOM     27  O   UNL     1     -21.881 -41.507  25.650  1.00  0.00    -0.492 OA
ATOM     28  C   UNL     1     -21.386 -40.682  26.704  1.00  0.00     0.278 C 
ENDBRANCH  23  27
BRANCH  25  29
ATOM     29  O   UNL     1     -23.233 -42.430  27.899  1.00  0.00    -0.493 OA
ATOM     30  C   UNL     1     -24.484 -42.809  28.456  1.00  0.00     0.278 C 
ENDBRANCH  25  29
ENDBRANCH  11  21
ENDBRANCH   1   7
BRANCH   4  31
ATOM     31  S   UNL     1     -14.299 -43.532  26.688  1.00  0.00     0.238 S 
ATOM     32  O   UNL     1     -13.480 -42.344  26.706  1.00  0.00    -0.207 OA
ATOM     33  O   UNL     1     -13.830 -44.795  26.163  1.00  0.00    -0.207 OA
BRANCH  31  34
ATOM     34  N   UNL     1     -14.783 -43.855  28.270  1.00  0.00    -0.225 NA
ATOM     35  H   UNL     1     -14.322 -43.191  28.894  1.00  0.00     0.137 HD
ATOM     36  H   UNL     1     -14.613 -44.821  28.550  1.00  0.00     0.137 HD
ENDBRANCH  31  34
ENDBRANCH   4  31
TORSDOF 7
ENDMDL
