MODEL 1
REMARK VINA RESULT:   -12.742      0.000      0.000
REMARK INTER + INTRA:         -19.942
REMARK INTER:                 -19.073
REMARK INTRA:                  -0.869
REMARK UNBOUND:                -0.869
REMARK SMILES O=C(Cc1cc(=O)oc2cc(O)ccc12)NCCCCN=c1c2c([nH]c3ccccc13)CCCC2
REMARK SMILES IDX 18 1 19 2 20 3 21 4 22 5 25 6 24 7 26 8 23 9 32 10 27 11
REMARK SMILES IDX 31 12 35 13 33 14 28 15 30 16 34 17 29 18 17 20 16 21 2 22
REMARK SMILES IDX 1 24 3 25 4 26 5 27 15 28 6 29 14 30 9 31 8 32 13 33 10 34
REMARK SMILES IDX 11 35 7 36 12 37
REMARK H PARENT 25 19 16 23 12 38
ROOT
ATOM      1  C   UNL     1     -11.929 -46.651  27.530  1.00  0.00     0.023 C 
ENDROOT
BRANCH   1   2
ATOM      2  C   UNL     1     -10.574 -46.546  28.236  1.00  0.00     0.025 C 
BRANCH   2   3
ATOM      3  C   UNL     1     -10.396 -45.256  29.033  1.00  0.00     0.143 C 
BRANCH   3   4
ATOM      4  N   UNL     1     -10.590 -45.537  30.436  1.00  0.00    -0.284 NA
BRANCH   4   5
ATOM      5  C   UNL     1     -10.711 -44.721  31.417  1.00  0.00     0.072 A 
ATOM      6  N   UNL     1     -10.578 -42.535  33.231  1.00  0.00    -0.358 N 
ATOM      7  C   UNL     1     -11.805 -43.063  32.887  1.00  0.00     0.021 A 
ATOM      8  C   UNL     1      -9.393 -43.216  32.938  1.00  0.00     0.048 A 
ATOM      9  C   UNL     1     -11.958 -44.108  32.040  1.00  0.00    -0.003 A 
ATOM     10  C   UNL     1     -12.986 -42.394  33.568  1.00  0.00     0.054 C 
ATOM     11  C   UNL     1      -8.172 -42.780  33.467  1.00  0.00     0.027 A 
ATOM     12  C   UNL     1      -9.407 -44.297  32.049  1.00  0.00     0.024 A 
ATOM     13  C   UNL     1     -13.313 -44.712  31.784  1.00  0.00     0.039 C 
ATOM     14  C   UNL     1     -14.353 -42.830  33.051  1.00  0.00     0.007 C 
ATOM     15  C   UNL     1      -6.982 -43.437  33.148  1.00  0.00     0.002 A 
ATOM     16  C   UNL     1      -8.207 -44.954  31.728  1.00  0.00     0.012 A 
ATOM     17  C   UNL     1     -14.373 -44.331  32.819  1.00  0.00     0.005 C 
ATOM     18  C   UNL     1      -7.000 -44.527  32.282  1.00  0.00     0.001 A 
ATOM     19  H   UNL     1     -10.555 -41.899  34.020  1.00  0.00     0.166 HD
ENDBRANCH   4   5
ENDBRANCH   3   4
ENDBRANCH   2   3
ENDBRANCH   1   2
BRANCH   1  20
ATOM     20  C   UNL     1     -13.047 -45.800  28.128  1.00  0.00     0.116 C 
BRANCH  20  21
ATOM     21  N   UNL     1     -13.745 -45.014  27.130  1.00  0.00    -0.356 N 
ATOM     22  C   UNL     1     -13.388 -43.696  26.907  1.00  0.00     0.224 C 
ATOM     23  H   UNL     1     -14.152 -45.514  26.349  1.00  0.00     0.163 HD
ATOM     24  O   UNL     1     -12.559 -43.098  27.586  1.00  0.00    -0.275 OA
BRANCH  22  25
ATOM     25  C   UNL     1     -14.114 -43.056  25.725  1.00  0.00     0.136 C 
BRANCH  25  26
ATOM     26  C   UNL     1     -15.573 -42.825  26.027  1.00  0.00    -0.020 A 
ATOM     27  C   UNL     1     -16.014 -42.777  27.294  1.00  0.00     0.098 A 
ATOM     28  C   UNL     1     -16.553 -42.625  24.946  1.00  0.00     0.022 A 
ATOM     29  C   UNL     1     -17.417 -42.541  27.666  1.00  0.00     0.336 A 
ATOM     30  C   UNL     1     -16.229 -42.652  23.582  1.00  0.00     0.016 A 
ATOM     31  C   UNL     1     -17.889 -42.397  25.287  1.00  0.00     0.142 A 
ATOM     32  O   UNL     1     -18.313 -42.355  26.630  1.00  0.00    -0.423 OA
ATOM     33  C   UNL     1     -17.214 -42.456  22.604  1.00  0.00     0.047 A 
ATOM     34  C   UNL     1     -18.881 -42.197  24.326  1.00  0.00     0.094 A 
ATOM     35  C   UNL     1     -18.531 -42.230  22.986  1.00  0.00     0.119 A 
ATOM     36  O   UNL     1     -17.753 -42.496  28.844  1.00  0.00    -0.246 OA
BRANCH  35  37
ATOM     37  O   UNL     1     -19.516 -42.034  22.064  1.00  0.00    -0.508 OA
ATOM     38  H   UNL     1     -19.936 -42.887  21.867  1.00  0.00     0.293 HD
ENDBRANCH  35  37
ENDBRANCH  25  26
ENDBRANCH  22  25
ENDBRANCH  20  21
ENDBRANCH   1  20
TORSDOF 9
ENDMDL
MODEL 2
REMARK VINA RESULT:   -12.579      1.256      2.454
REMARK INTER + INTRA:         -19.698
REMARK INTER:                 -18.739
REMARK INTRA:                  -0.959
REMARK UNBOUND:                -0.869
REMARK SMILES O=C(Cc1cc(=O)oc2cc(O)ccc12)NCCCCN=c1c2c([nH]c3ccccc13)CCCC2
REMARK SMILES IDX 18 1 19 2 20 3 21 4 22 5 25 6 24 7 26 8 23 9 32 10 27 11
REMARK SMILES IDX 31 12 35 13 33 14 28 15 30 16 34 17 29 18 17 20 16 21 2 22
REMARK SMILES IDX 1 24 3 25 4 26 5 27 15 28 6 29 14 30 9 31 8 32 13 33 10 34
REMARK SMILES IDX 11 35 7 36 12 37
REMARK H PARENT 25 19 16 23 12 38
ROOT
ATOM      1  C   UNL     1     -12.079 -46.164  27.791  1.00  0.00     0.023 C 
ENDROOT
BRANCH   1   2
ATOM      2  C   UNL     1     -10.842 -45.536  28.438  1.00  0.00     0.025 C 
BRANCH   2   3
ATOM      3  C   UNL     1     -10.008 -46.523  29.252  1.00  0.00     0.143 C 
BRANCH   3   4
ATOM      4  N   UNL     1     -10.424 -46.464  30.633  1.00  0.00    -0.284 NA
BRANCH   4   5
ATOM      5  C   UNL     1     -10.573 -45.441  31.392  1.00  0.00     0.072 A 
ATOM      6  N   UNL     1     -10.508 -42.884  32.633  1.00  0.00    -0.358 N 
ATOM      7  C   UNL     1     -11.718 -43.509  32.421  1.00  0.00     0.021 A 
ATOM      8  C   UNL     1      -9.304 -43.586  32.514  1.00  0.00     0.048 A 
ATOM      9  C   UNL     1     -11.839 -44.729  31.847  1.00  0.00    -0.003 A 
ATOM     10  C   UNL     1     -12.921 -42.727  32.920  1.00  0.00     0.054 C 
ATOM     11  C   UNL     1      -8.098 -43.005  32.928  1.00  0.00     0.027 A 
ATOM     12  C   UNL     1      -9.285 -44.847  31.909  1.00  0.00     0.024 A 
ATOM     13  C   UNL     1     -13.178 -45.410  31.738  1.00  0.00     0.039 C 
ATOM     14  C   UNL     1     -14.273 -43.307  32.518  1.00  0.00     0.007 C 
ATOM     15  C   UNL     1      -6.891 -43.689  32.779  1.00  0.00     0.002 A 
ATOM     16  C   UNL     1      -8.067 -45.530  31.757  1.00  0.00     0.012 A 
ATOM     17  C   UNL     1     -14.256 -44.820  32.649  1.00  0.00     0.005 C 
ATOM     18  C   UNL     1      -6.876 -44.955  32.197  1.00  0.00     0.001 A 
ATOM     19  H   UNL     1     -10.506 -42.078  33.249  1.00  0.00     0.166 HD
ENDBRANCH   4   5
ENDBRANCH   3   4
ENDBRANCH   2   3
ENDBRANCH   1   2
BRANCH   1  20
ATOM     20  C   UNL     1     -13.421 -45.612  28.270  1.00  0.00     0.116 C 
BRANCH  20  21
ATOM     21  N   UNL     1     -13.645 -44.245  27.845  1.00  0.00    -0.356 N 
ATOM     22  C   UNL     1     -14.082 -43.978  26.560  1.00  0.00     0.224 C 
ATOM     23  H   UNL     1     -13.896 -43.573  28.560  1.00  0.00     0.163 HD
ATOM     24  O   UNL     1     -14.205 -44.842  25.697  1.00  0.00    -0.275 OA
BRANCH  22  25
ATOM     25  C   UNL     1     -14.412 -42.506  26.317  1.00  0.00     0.136 C 
BRANCH  25  26
ATOM     26  C   UNL     1     -15.666 -42.346  25.496  1.00  0.00    -0.020 A 
ATOM     27  C   UNL     1     -15.599 -42.161  24.168  1.00  0.00     0.098 A 
ATOM     28  C   UNL     1     -16.999 -42.405  26.120  1.00  0.00     0.022 A 
ATOM     29  C   UNL     1     -16.778 -42.013  23.301  1.00  0.00     0.336 A 
ATOM     30  C   UNL     1     -17.212 -42.589  27.494  1.00  0.00     0.016 A 
ATOM     31  C   UNL     1     -18.126 -42.267  25.305  1.00  0.00     0.142 A 
ATOM     32  O   UNL     1     -18.015 -42.075  23.915  1.00  0.00    -0.423 OA
ATOM     33  C   UNL     1     -18.510 -42.634  28.022  1.00  0.00     0.047 A 
ATOM     34  C   UNL     1     -19.425 -42.312  25.814  1.00  0.00     0.094 A 
ATOM     35  C   UNL     1     -19.604 -42.495  27.176  1.00  0.00     0.119 A 
ATOM     36  O   UNL     1     -16.649 -41.860  22.092  1.00  0.00    -0.246 OA
BRANCH  35  37
ATOM     37  O   UNL     1     -20.881 -42.534  27.652  1.00  0.00    -0.508 OA
ATOM     38  H   UNL     1     -21.455 -42.939  26.982  1.00  0.00     0.293 HD
ENDBRANCH  35  37
ENDBRANCH  25  26
ENDBRANCH  22  25
ENDBRANCH  20  21
ENDBRANCH   1  20
TORSDOF 9
ENDMDL
MODEL 3
REMARK VINA RESULT:   -12.178      0.893      3.272
REMARK INTER + INTRA:         -19.099
REMARK INTER:                 -18.178
REMARK INTRA:                  -0.921
REMARK UNBOUND:                -0.869
REMARK SMILES O=C(Cc1cc(=O)oc2cc(O)ccc12)NCCCCN=c1c2c([nH]c3ccccc13)CCCC2
REMARK SMILES IDX 18 1 19 2 20 3 21 4 22 5 25 6 24 7 26 8 23 9 32 10 27 11
REMARK SMILES IDX 31 12 35 13 33 14 28 15 30 16 34 17 29 18 17 20 16 21 2 22
REMARK SMILES IDX 1 24 3 25 4 26 5 27 15 28 6 29 14 30 9 31 8 32 13 33 10 34
REMARK SMILES IDX 11 35 7 36 12 37
REMARK H PARENT 25 19 16 23 12 38
ROOT
ATOM      1  C   UNL     1     -10.700 -44.891  28.107  1.00  0.00     0.023 C 
ENDROOT
BRANCH   1   2
ATOM      2  C   UNL     1     -10.822 -46.179  28.925  1.00  0.00     0.025 C 
BRANCH   2   3
ATOM      3  C   UNL     1     -12.026 -46.198  29.864  1.00  0.00     0.143 C 
BRANCH   3   4
ATOM      4  N   UNL     1     -11.569 -46.006  31.220  1.00  0.00    -0.284 NA
BRANCH   4   5
ATOM      5  C   UNL     1     -11.173 -44.931  31.798  1.00  0.00     0.072 A 
ATOM      6  N   UNL     1     -10.685 -42.759  33.566  1.00  0.00    -0.358 N 
ATOM      7  C   UNL     1      -9.623 -43.409  32.974  1.00  0.00     0.021 A 
ATOM      8  C   UNL     1     -11.992 -42.950  33.108  1.00  0.00     0.048 A 
ATOM      9  C   UNL     1      -9.766 -44.445  32.114  1.00  0.00    -0.003 A 
ATOM     10  C   UNL     1      -8.261 -42.845  33.341  1.00  0.00     0.054 C 
ATOM     11  C   UNL     1     -13.035 -42.138  33.572  1.00  0.00     0.027 A 
ATOM     12  C   UNL     1     -12.282 -44.007  32.238  1.00  0.00     0.024 A 
ATOM     13  C   UNL     1      -8.575 -45.048  31.415  1.00  0.00     0.039 C 
ATOM     14  C   UNL     1      -7.074 -43.671  32.857  1.00  0.00     0.007 C 
ATOM     15  C   UNL     1     -14.346 -42.349  33.143  1.00  0.00     0.002 A 
ATOM     16  C   UNL     1     -13.604 -44.218  31.812  1.00  0.00     0.012 A 
ATOM     17  C   UNL     1      -7.322 -44.171  31.445  1.00  0.00     0.005 C 
ATOM     18  C   UNL     1     -14.631 -43.387  32.259  1.00  0.00     0.001 A 
ATOM     19  H   UNL     1     -10.488 -41.876  34.025  1.00  0.00     0.166 HD
ENDBRANCH   4   5
ENDBRANCH   3   4
ENDBRANCH   2   3
ENDBRANCH   1   2
BRANCH   1  20
ATOM     20  C   UNL     1     -11.654 -43.766  28.508  1.00  0.00     0.116 C 
BRANCH  20  21
ATOM     21  N   UNL     1     -12.382 -43.225  27.378  1.00  0.00    -0.356 N 
ATOM     22  C   UNL     1     -13.438 -43.929  26.829  1.00  0.00     0.224 C 
ATOM     23  H   UNL     1     -12.409 -42.217  27.285  1.00  0.00     0.163 HD
ATOM     24  O   UNL     1     -13.750 -45.062  27.183  1.00  0.00    -0.275 OA
BRANCH  22  25
ATOM     25  C   UNL     1     -14.193 -43.159  25.747  1.00  0.00     0.136 C 
BRANCH  25  26
ATOM     26  C   UNL     1     -15.618 -42.880  26.153  1.00  0.00    -0.020 A 
ATOM     27  C   UNL     1     -15.960 -42.800  27.449  1.00  0.00     0.098 A 
ATOM     28  C   UNL     1     -16.670 -42.668  25.145  1.00  0.00     0.022 A 
ATOM     29  C   UNL     1     -17.324 -42.517  27.920  1.00  0.00     0.336 A 
ATOM     30  C   UNL     1     -16.451 -42.725  23.761  1.00  0.00     0.016 A 
ATOM     31  C   UNL     1     -17.970 -42.395  25.582  1.00  0.00     0.142 A 
ATOM     32  O   UNL     1     -18.290 -42.320  26.951  1.00  0.00    -0.423 OA
ATOM     33  C   UNL     1     -17.501 -42.515  22.857  1.00  0.00     0.047 A 
ATOM     34  C   UNL     1     -19.026 -42.181  24.695  1.00  0.00     0.094 A 
ATOM     35  C   UNL     1     -18.779 -42.244  23.333  1.00  0.00     0.119 A 
ATOM     36  O   UNL     1     -17.569 -42.444  29.119  1.00  0.00    -0.246 OA
BRANCH  35  37
ATOM     37  O   UNL     1     -19.825 -42.033  22.484  1.00  0.00    -0.508 OA
ATOM     38  H   UNL     1     -19.688 -41.192  22.019  1.00  0.00     0.293 HD
ENDBRANCH  35  37
ENDBRANCH  25  26
ENDBRANCH  22  25
ENDBRANCH  20  21
ENDBRANCH   1  20
TORSDOF 9
ENDMDL
MODEL 4
REMARK VINA RESULT:   -11.910      3.370     10.986
REMARK INTER + INTRA:         -18.697
REMARK INTER:                 -17.865
REMARK INTRA:                  -0.833
REMARK UNBOUND:                -0.869
REMARK SMILES O=C(Cc1cc(=O)oc2cc(O)ccc12)NCCCCN=c1c2c([nH]c3ccccc13)CCCC2
REMARK SMILES IDX 18 1 19 2 20 3 21 4 22 5 25 6 24 7 26 8 23 9 32 10 27 11
REMARK SMILES IDX 31 12 35 13 33 14 28 15 30 16 34 17 29 18 17 20 16 21 2 22
REMARK SMILES IDX 1 24 3 25 4 26 5 27 15 28 6 29 14 30 9 31 8 32 13 33 10 34
REMARK SMILES IDX 11 35 7 36 12 37
REMARK H PARENT 25 19 16 23 12 38
ROOT
ATOM      1  C   UNL     1     -15.164 -42.498  24.686  1.00  0.00     0.023 C 
ENDROOT
BRANCH   1   2
ATOM      2  C   UNL     1     -16.066 -42.906  23.519  1.00  0.00     0.025 C 
BRANCH   2   3
ATOM      3  C   UNL     1     -16.694 -41.723  22.786  1.00  0.00     0.143 C 
BRANCH   3   4
ATOM      4  N   UNL     1     -18.102 -41.979  22.597  1.00  0.00    -0.284 NA
BRANCH   4   5
ATOM      5  C   UNL     1     -19.112 -41.359  23.088  1.00  0.00     0.072 A 
ATOM      6  N   UNL     1     -21.666 -40.250  23.663  1.00  0.00    -0.358 N 
ATOM      7  C   UNL     1     -20.960 -40.890  24.659  1.00  0.00     0.021 A 
ATOM      8  C   UNL     1     -21.048 -39.885  22.463  1.00  0.00     0.048 A 
ATOM      9  C   UNL     1     -19.735 -41.437  24.474  1.00  0.00    -0.003 A 
ATOM     10  C   UNL     1     -21.657 -40.905  26.009  1.00  0.00     0.054 C 
ATOM     11  C   UNL     1     -21.709 -39.059  21.545  1.00  0.00     0.027 A 
ATOM     12  C   UNL     1     -19.792 -40.407  22.134  1.00  0.00     0.024 A 
ATOM     13  C   UNL     1     -18.965 -42.029  25.625  1.00  0.00     0.039 C 
ATOM     14  C   UNL     1     -20.987 -41.776  27.066  1.00  0.00     0.007 C 
ATOM     15  C   UNL     1     -21.108 -38.721  20.330  1.00  0.00     0.002 A 
ATOM     16  C   UNL     1     -19.193 -40.068  20.910  1.00  0.00     0.012 A 
ATOM     17  C   UNL     1     -19.479 -41.611  27.004  1.00  0.00     0.005 C 
ATOM     18  C   UNL     1     -19.847 -39.223  20.014  1.00  0.00     0.001 A 
ATOM     19  H   UNL     1     -22.469 -39.700  23.947  1.00  0.00     0.166 HD
ENDBRANCH   4   5
ENDBRANCH   3   4
ENDBRANCH   2   3
ENDBRANCH   1   2
BRANCH   1  20
ATOM     20  C   UNL     1     -15.463 -43.184  26.018  1.00  0.00     0.116 C 
BRANCH  20  21
ATOM     21  N   UNL     1     -14.544 -44.267  26.306  1.00  0.00    -0.356 N 
ATOM     22  C   UNL     1     -13.367 -44.019  26.988  1.00  0.00     0.224 C 
ATOM     23  H   UNL     1     -14.937 -45.196  26.398  1.00  0.00     0.163 HD
ATOM     24  O   UNL     1     -12.989 -42.891  27.294  1.00  0.00    -0.275 OA
BRANCH  22  25
ATOM     25  C   UNL     1     -12.584 -45.282  27.342  1.00  0.00     0.136 C 
BRANCH  25  26
ATOM     26  C   UNL     1     -12.270 -45.349  28.815  1.00  0.00    -0.020 A 
ATOM     27  C   UNL     1     -13.092 -45.985  29.664  1.00  0.00     0.098 A 
ATOM     28  C   UNL     1     -11.048 -44.737  29.362  1.00  0.00     0.022 A 
ATOM     29  C   UNL     1     -12.845 -46.105  31.109  1.00  0.00     0.336 A 
ATOM     30  C   UNL     1     -10.107 -44.042  28.589  1.00  0.00     0.016 A 
ATOM     31  C   UNL     1     -10.801 -44.847  30.734  1.00  0.00     0.142 A 
ATOM     32  O   UNL     1     -11.688 -45.523  31.593  1.00  0.00    -0.423 OA
ATOM     33  C   UNL     1      -8.964 -43.482  29.177  1.00  0.00     0.047 A 
ATOM     34  C   UNL     1      -9.667 -44.298  31.334  1.00  0.00     0.094 A 
ATOM     35  C   UNL     1      -8.755 -43.616  30.544  1.00  0.00     0.119 A 
ATOM     36  O   UNL     1     -13.629 -46.712  31.830  1.00  0.00    -0.246 OA
BRANCH  35  37
ATOM     37  O   UNL     1      -7.656 -43.086  31.152  1.00  0.00    -0.508 OA
ATOM     38  H   UNL     1      -7.741 -43.200  32.112  1.00  0.00     0.293 HD
ENDBRANCH  35  37
ENDBRANCH  25  26
ENDBRANCH  22  25
ENDBRANCH  20  21
ENDBRANCH   1  20
TORSDOF 9
ENDMDL
MODEL 5
REMARK VINA RESULT:   -11.896      3.068     10.102
REMARK INTER + INTRA:         -18.676
REMARK INTER:                 -18.250
REMARK INTRA:                  -0.426
REMARK UNBOUND:                -0.869
REMARK SMILES O=C(Cc1cc(=O)oc2cc(O)ccc12)NCCCCN=c1c2c([nH]c3ccccc13)CCCC2
REMARK SMILES IDX 18 1 19 2 20 3 21 4 22 5 25 6 24 7 26 8 23 9 32 10 27 11
REMARK SMILES IDX 31 12 35 13 33 14 28 15 30 16 34 17 29 18 17 20 16 21 2 22
REMARK SMILES IDX 1 24 3 25 4 26 5 27 15 28 6 29 14 30 9 31 8 32 13 33 10 34
REMARK SMILES IDX 11 35 7 36 12 37
REMARK H PARENT 25 19 16 23 12 38
ROOT
ATOM      1  C   UNL     1     -13.440 -44.254  26.888  1.00  0.00     0.023 C 
ENDROOT
BRANCH   1   2
ATOM      2  C   UNL     1     -13.646 -43.327  25.686  1.00  0.00     0.025 C 
BRANCH   2   3
ATOM      3  C   UNL     1     -14.740 -43.796  24.730  1.00  0.00     0.143 C 
BRANCH   3   4
ATOM      4  N   UNL     1     -15.567 -42.669  24.371  1.00  0.00    -0.284 NA
BRANCH   4   5
ATOM      5  C   UNL     1     -16.741 -42.360  24.786  1.00  0.00     0.072 A 
ATOM      6  N   UNL     1     -19.536 -42.059  25.209  1.00  0.00    -0.358 N 
ATOM      7  C   UNL     1     -18.715 -42.376  26.271  1.00  0.00     0.021 A 
ATOM      8  C   UNL     1     -19.004 -41.607  23.998  1.00  0.00     0.048 A 
ATOM      9  C   UNL     1     -17.374 -42.528  26.160  1.00  0.00    -0.003 A 
ATOM     10  C   UNL     1     -19.437 -42.511  27.601  1.00  0.00     0.054 C 
ATOM     11  C   UNL     1     -19.843 -41.094  23.000  1.00  0.00     0.027 A 
ATOM     12  C   UNL     1     -17.635 -41.736  23.742  1.00  0.00     0.024 A 
ATOM     13  C   UNL     1     -16.515 -42.769  27.372  1.00  0.00     0.039 C 
ATOM     14  C   UNL     1     -18.582 -43.053  28.741  1.00  0.00     0.007 C 
ATOM     15  C   UNL     1     -19.319 -40.674  21.776  1.00  0.00     0.002 A 
ATOM     16  C   UNL     1     -17.112 -41.316  22.508  1.00  0.00     0.012 A 
ATOM     17  C   UNL     1     -17.196 -42.433  28.700  1.00  0.00     0.005 C 
ATOM     18  C   UNL     1     -17.951 -40.782  21.531  1.00  0.00     0.001 A 
ATOM     19  H   UNL     1     -20.482 -41.766  25.429  1.00  0.00     0.166 HD
ENDBRANCH   4   5
ENDBRANCH   3   4
ENDBRANCH   2   3
ENDBRANCH   1   2
BRANCH   1  20
ATOM     20  C   UNL     1     -12.179 -43.993  27.709  1.00  0.00     0.116 C 
BRANCH  20  21
ATOM     21  N   UNL     1     -12.304 -44.443  29.081  1.00  0.00    -0.356 N 
ATOM     22  C   UNL     1     -11.833 -45.690  29.450  1.00  0.00     0.224 C 
ATOM     23  H   UNL     1     -12.324 -43.732  29.802  1.00  0.00     0.163 HD
ATOM     24  O   UNL     1     -11.388 -46.507  28.650  1.00  0.00    -0.275 OA
BRANCH  22  25
ATOM     25  C   UNL     1     -11.905 -45.952  30.954  1.00  0.00     0.136 C 
BRANCH  25  26
ATOM     26  C   UNL     1     -11.583 -44.714  31.751  1.00  0.00    -0.020 A 
ATOM     27  C   UNL     1     -12.561 -43.908  32.195  1.00  0.00     0.098 A 
ATOM     28  C   UNL     1     -10.192 -44.361  32.082  1.00  0.00     0.022 A 
ATOM     29  C   UNL     1     -12.324 -42.694  32.990  1.00  0.00     0.336 A 
ATOM     30  C   UNL     1      -9.077 -45.111  31.680  1.00  0.00     0.016 A 
ATOM     31  C   UNL     1      -9.955 -43.210  32.840  1.00  0.00     0.142 A 
ATOM     32  O   UNL     1     -11.009 -42.390  33.287  1.00  0.00    -0.423 OA
ATOM     33  C   UNL     1      -7.779 -44.716  32.030  1.00  0.00     0.047 A 
ATOM     34  C   UNL     1      -8.670 -42.804  33.198  1.00  0.00     0.094 A 
ATOM     35  C   UNL     1      -7.588 -43.566  32.787  1.00  0.00     0.119 A 
ATOM     36  O   UNL     1     -13.263 -42.007  33.377  1.00  0.00    -0.246 OA
BRANCH  35  37
ATOM     37  O   UNL     1      -6.340 -43.150  33.147  1.00  0.00    -0.508 OA
ATOM     38  H   UNL     1      -5.758 -43.191  32.371  1.00  0.00     0.293 HD
ENDBRANCH  35  37
ENDBRANCH  25  26
ENDBRANCH  22  25
ENDBRANCH  20  21
ENDBRANCH   1  20
TORSDOF 9
ENDMDL
MODEL 6
REMARK VINA RESULT:   -11.542      1.416      4.015
REMARK INTER + INTRA:         -18.147
REMARK INTER:                 -17.210
REMARK INTRA:                  -0.937
REMARK UNBOUND:                -0.869
REMARK SMILES O=C(Cc1cc(=O)oc2cc(O)ccc12)NCCCCN=c1c2c([nH]c3ccccc13)CCCC2
REMARK SMILES IDX 18 1 19 2 20 3 21 4 22 5 25 6 24 7 26 8 23 9 32 10 27 11
REMARK SMILES IDX 31 12 35 13 33 14 28 15 30 16 34 17 29 18 17 20 16 21 2 22
REMARK SMILES IDX 1 24 3 25 4 26 5 27 15 28 6 29 14 30 9 31 8 32 13 33 10 34
REMARK SMILES IDX 11 35 7 36 12 37
REMARK H PARENT 25 19 16 23 12 38
ROOT
ATOM      1  C   UNL     1     -11.739 -46.048  27.976  1.00  0.00     0.023 C 
ENDROOT
BRANCH   1   2
ATOM      2  C   UNL     1     -11.092 -46.504  29.287  1.00  0.00     0.025 C 
BRANCH   2   3
ATOM      3  C   UNL     1     -11.925 -46.185  30.526  1.00  0.00     0.143 C 
BRANCH   3   4
ATOM      4  N   UNL     1     -12.040 -44.752  30.661  1.00  0.00    -0.284 NA
BRANCH   4   5
ATOM      5  C   UNL     1     -11.563 -43.983  31.570  1.00  0.00     0.072 A 
ATOM      6  N   UNL     1     -10.906 -42.621  33.978  1.00  0.00    -0.358 N 
ATOM      7  C   UNL     1      -9.898 -43.085  33.160  1.00  0.00     0.021 A 
ATOM      8  C   UNL     1     -12.227 -42.551  33.524  1.00  0.00     0.048 A 
ATOM      9  C   UNL     1     -10.122 -43.734  31.992  1.00  0.00    -0.003 A 
ATOM     10  C   UNL     1      -8.497 -42.778  33.659  1.00  0.00     0.054 C 
ATOM     11  C   UNL     1     -13.205 -41.892  34.281  1.00  0.00     0.027 A 
ATOM     12  C   UNL     1     -12.599 -43.207  32.346  1.00  0.00     0.024 A 
ATOM     13  C   UNL     1      -8.983 -44.123  31.087  1.00  0.00     0.039 C 
ATOM     14  C   UNL     1      -7.376 -43.452  32.874  1.00  0.00     0.007 C 
ATOM     15  C   UNL     1     -14.532 -41.851  33.848  1.00  0.00     0.002 A 
ATOM     16  C   UNL     1     -13.936 -43.166  31.915  1.00  0.00     0.012 A 
ATOM     17  C   UNL     1      -7.670 -43.398  31.386  1.00  0.00     0.005 C 
ATOM     18  C   UNL     1     -14.897 -42.484  32.662  1.00  0.00     0.001 A 
ATOM     19  H   UNL     1     -10.643 -41.975  34.714  1.00  0.00     0.166 HD
ENDBRANCH   4   5
ENDBRANCH   3   4
ENDBRANCH   2   3
ENDBRANCH   1   2
BRANCH   1  20
ATOM     20  C   UNL     1     -13.240 -45.771  28.047  1.00  0.00     0.116 C 
BRANCH  20  21
ATOM     21  N   UNL     1     -13.565 -44.386  27.772  1.00  0.00    -0.356 N 
ATOM     22  C   UNL     1     -14.104 -44.028  26.550  1.00  0.00     0.224 C 
ATOM     23  H   UNL     1     -13.800 -43.799  28.563  1.00  0.00     0.163 HD
ATOM     24  O   UNL     1     -14.241 -44.813  25.616  1.00  0.00    -0.275 OA
BRANCH  22  25
ATOM     25  C   UNL     1     -14.528 -42.562  26.472  1.00  0.00     0.136 C 
BRANCH  25  26
ATOM     26  C   UNL     1     -15.733 -42.377  25.585  1.00  0.00    -0.020 A 
ATOM     27  C   UNL     1     -15.592 -42.205  24.261  1.00  0.00     0.098 A 
ATOM     28  C   UNL     1     -17.097 -42.399  26.139  1.00  0.00     0.022 A 
ATOM     29  C   UNL     1     -16.719 -42.035  23.332  1.00  0.00     0.336 A 
ATOM     30  C   UNL     1     -17.386 -42.568  27.500  1.00  0.00     0.016 A 
ATOM     31  C   UNL     1     -18.177 -42.241  25.265  1.00  0.00     0.142 A 
ATOM     32  O   UNL     1     -17.988 -42.062  23.881  1.00  0.00    -0.423 OA
ATOM     33  C   UNL     1     -18.710 -42.577  27.959  1.00  0.00     0.047 A 
ATOM     34  C   UNL     1     -19.501 -42.250  25.705  1.00  0.00     0.094 A 
ATOM     35  C   UNL     1     -19.755 -42.418  27.057  1.00  0.00     0.119 A 
ATOM     36  O   UNL     1     -16.524 -41.894  22.130  1.00  0.00    -0.246 OA
BRANCH  35  37
ATOM     37  O   UNL     1     -21.056 -42.422  27.465  1.00  0.00    -0.508 OA
ATOM     38  H   UNL     1     -21.631 -42.461  26.684  1.00  0.00     0.293 HD
ENDBRANCH  35  37
ENDBRANCH  25  26
ENDBRANCH  22  25
ENDBRANCH  20  21
ENDBRANCH   1  20
TORSDOF 9
ENDMDL
MODEL 7
REMARK VINA RESULT:   -11.064      3.042      9.556
REMARK INTER + INTRA:         -17.430
REMARK INTER:                 -17.213
REMARK INTRA:                  -0.218
REMARK UNBOUND:                -0.869
REMARK SMILES O=C(Cc1cc(=O)oc2cc(O)ccc12)NCCCCN=c1c2c([nH]c3ccccc13)CCCC2
REMARK SMILES IDX 18 1 19 2 20 3 21 4 22 5 25 6 24 7 26 8 23 9 32 10 27 11
REMARK SMILES IDX 31 12 35 13 33 14 28 15 30 16 34 17 29 18 17 20 16 21 2 22
REMARK SMILES IDX 1 24 3 25 4 26 5 27 15 28 6 29 14 30 9 31 8 32 13 33 10 34
REMARK SMILES IDX 11 35 7 36 12 37
REMARK H PARENT 25 19 16 23 12 38
ROOT
ATOM      1  C   UNL     1     -12.935 -44.264  27.285  1.00  0.00     0.023 C 
ENDROOT
BRANCH   1   2
ATOM      2  C   UNL     1     -13.420 -43.227  26.268  1.00  0.00     0.025 C 
BRANCH   2   3
ATOM      3  C   UNL     1     -14.362 -43.799  25.211  1.00  0.00     0.143 C 
BRANCH   3   4
ATOM      4  N   UNL     1     -15.177 -42.733  24.679  1.00  0.00    -0.284 NA
BRANCH   4   5
ATOM      5  C   UNL     1     -16.379 -42.405  24.980  1.00  0.00     0.072 A 
ATOM      6  N   UNL     1     -19.197 -42.059  25.133  1.00  0.00    -0.358 N 
ATOM      7  C   UNL     1     -18.487 -42.387  26.268  1.00  0.00     0.021 A 
ATOM      8  C   UNL     1     -18.544 -41.617  23.978  1.00  0.00     0.048 A 
ATOM      9  C   UNL     1     -17.145 -42.561  26.286  1.00  0.00    -0.003 A 
ATOM     10  C   UNL     1     -19.335 -42.508  27.523  1.00  0.00     0.054 C 
ATOM     11  C   UNL     1     -19.275 -41.093  22.904  1.00  0.00     0.027 A 
ATOM     12  C   UNL     1     -17.159 -41.768  23.855  1.00  0.00     0.024 A 
ATOM     13  C   UNL     1     -16.409 -42.813  27.576  1.00  0.00     0.039 C 
ATOM     14  C   UNL     1     -18.602 -43.062  28.740  1.00  0.00     0.007 C 
ATOM     15  C   UNL     1     -18.630 -40.683  21.736  1.00  0.00     0.002 A 
ATOM     16  C   UNL     1     -16.514 -41.359  22.676  1.00  0.00     0.012 A 
ATOM     17  C   UNL     1     -17.210 -42.464  28.832  1.00  0.00     0.005 C 
ATOM     18  C   UNL     1     -17.247 -40.813  21.623  1.00  0.00     0.001 A 
ATOM     19  H   UNL     1     -20.155 -41.751  25.261  1.00  0.00     0.166 HD
ENDBRANCH   4   5
ENDBRANCH   3   4
ENDBRANCH   2   3
ENDBRANCH   1   2
BRANCH   1  20
ATOM     20  C   UNL     1     -11.559 -43.994  27.891  1.00  0.00     0.116 C 
BRANCH  20  21
ATOM     21  N   UNL     1     -11.433 -44.507  29.241  1.00  0.00    -0.356 N 
ATOM     22  C   UNL     1     -10.939 -45.781  29.458  1.00  0.00     0.224 C 
ATOM     23  H   UNL     1     -11.293 -43.832  29.982  1.00  0.00     0.163 HD
ATOM     24  O   UNL     1     -10.681 -46.568  28.552  1.00  0.00    -0.275 OA
BRANCH  22  25
ATOM     25  C   UNL     1     -10.730 -46.115  30.934  1.00  0.00     0.136 C 
BRANCH  25  26
ATOM     26  C   UNL     1     -10.616 -44.869  31.775  1.00  0.00    -0.020 A 
ATOM     27  C   UNL     1      -9.415 -44.351  32.076  1.00  0.00     0.098 A 
ATOM     28  C   UNL     1     -11.815 -44.175  32.275  1.00  0.00     0.022 A 
ATOM     29  C   UNL     1      -9.226 -43.132  32.877  1.00  0.00     0.336 A 
ATOM     30  C   UNL     1     -13.127 -44.608  32.037  1.00  0.00     0.016 A 
ATOM     31  C   UNL     1     -11.647 -43.013  33.035  1.00  0.00     0.142 A 
ATOM     32  O   UNL     1     -10.369 -42.500  33.330  1.00  0.00    -0.423 OA
ATOM     33  C   UNL     1     -14.223 -43.898  32.545  1.00  0.00     0.047 A 
ATOM     34  C   UNL     1     -12.727 -42.293  33.546  1.00  0.00     0.094 A 
ATOM     35  C   UNL     1     -14.013 -42.747  33.295  1.00  0.00     0.119 A 
ATOM     36  O   UNL     1      -8.101 -42.702  33.106  1.00  0.00    -0.246 OA
BRANCH  35  37
ATOM     37  O   UNL     1     -15.053 -42.029  33.805  1.00  0.00    -0.508 OA
ATOM     38  H   UNL     1     -15.865 -42.556  33.732  1.00  0.00     0.293 HD
ENDBRANCH  35  37
ENDBRANCH  25  26
ENDBRANCH  22  25
ENDBRANCH  20  21
ENDBRANCH   1  20
TORSDOF 9
ENDMDL
MODEL 8
REMARK VINA RESULT:   -10.599      3.404     11.164
REMARK INTER + INTRA:         -16.735
REMARK INTER:                 -15.941
REMARK INTRA:                  -0.795
REMARK UNBOUND:                -0.869
REMARK SMILES O=C(Cc1cc(=O)oc2cc(O)ccc12)NCCCCN=c1c2c([nH]c3ccccc13)CCCC2
REMARK SMILES IDX 18 1 19 2 20 3 21 4 22 5 25 6 24 7 26 8 23 9 32 10 27 11
REMARK SMILES IDX 31 12 35 13 33 14 28 15 30 16 34 17 29 18 17 20 16 21 2 22
REMARK SMILES IDX 1 24 3 25 4 26 5 27 15 28 6 29 14 30 9 31 8 32 13 33 10 34
REMARK SMILES IDX 11 35 7 36 12 37
REMARK H PARENT 25 19 16 23 12 38
ROOT
ATOM      1  C   UNL     1     -16.273 -42.710  25.049  1.00  0.00     0.023 C 
ENDROOT
BRANCH   1   2
ATOM      2  C   UNL     1     -17.105 -42.976  23.792  1.00  0.00     0.025 C 
BRANCH   2   3
ATOM      3  C   UNL     1     -17.561 -41.706  23.078  1.00  0.00     0.143 C 
BRANCH   3   4
ATOM      4  N   UNL     1     -18.937 -41.440  23.422  1.00  0.00    -0.284 NA
BRANCH   4   5
ATOM      5  C   UNL     1     -19.921 -42.258  23.517  1.00  0.00     0.072 A 
ATOM      6  N   UNL     1     -21.811 -44.360  23.213  1.00  0.00    -0.358 N 
ATOM      7  C   UNL     1     -21.286 -44.089  24.459  1.00  0.00     0.021 A 
ATOM      8  C   UNL     1     -21.658 -43.459  22.155  1.00  0.00     0.048 A 
ATOM      9  C   UNL     1     -20.390 -43.101  24.693  1.00  0.00    -0.003 A 
ATOM     10  C   UNL     1     -21.824 -44.974  25.570  1.00  0.00     0.054 C 
ATOM     11  C   UNL     1     -22.362 -43.640  20.958  1.00  0.00     0.027 A 
ATOM     12  C   UNL     1     -20.739 -42.409  22.256  1.00  0.00     0.024 A 
ATOM     13  C   UNL     1     -19.933 -42.781  26.092  1.00  0.00     0.039 C 
ATOM     14  C   UNL     1     -21.112 -44.823  26.910  1.00  0.00     0.007 C 
ATOM     15  C   UNL     1     -22.185 -42.762  19.888  1.00  0.00     0.002 A 
ATOM     16  C   UNL     1     -20.560 -41.529  21.176  1.00  0.00     0.012 A 
ATOM     17  C   UNL     1     -20.827 -43.358  27.191  1.00  0.00     0.005 C 
ATOM     18  C   UNL     1     -21.286 -41.703  19.998  1.00  0.00     0.001 A 
ATOM     19  H   UNL     1     -22.618 -44.973  23.175  1.00  0.00     0.166 HD
ENDBRANCH   4   5
ENDBRANCH   3   4
ENDBRANCH   2   3
ENDBRANCH   1   2
BRANCH   1  20
ATOM     20  C   UNL     1     -14.784 -43.030  24.931  1.00  0.00     0.116 C 
BRANCH  20  21
ATOM     21  N   UNL     1     -14.416 -44.241  25.637  1.00  0.00    -0.356 N 
ATOM     22  C   UNL     1     -13.619 -44.175  26.765  1.00  0.00     0.224 C 
ATOM     23  H   UNL     1     -15.055 -45.025  25.576  1.00  0.00     0.163 HD
ATOM     24  O   UNL     1     -13.106 -43.135  27.168  1.00  0.00    -0.275 OA
BRANCH  22  25
ATOM     25  C   UNL     1     -13.446 -45.516  27.475  1.00  0.00     0.136 C 
BRANCH  25  26
ATOM     26  C   UNL     1     -13.080 -45.335  28.926  1.00  0.00    -0.020 A 
ATOM     27  C   UNL     1     -13.943 -44.776  29.789  1.00  0.00     0.098 A 
ATOM     28  C   UNL     1     -11.776 -45.782  29.444  1.00  0.00     0.022 A 
ATOM     29  C   UNL     1     -13.662 -44.582  31.219  1.00  0.00     0.336 A 
ATOM     30  C   UNL     1     -10.782 -46.379  28.654  1.00  0.00     0.016 A 
ATOM     31  C   UNL     1     -11.499 -45.605  30.803  1.00  0.00     0.142 A 
ATOM     32  O   UNL     1     -12.431 -45.013  31.676  1.00  0.00    -0.423 OA
ATOM     33  C   UNL     1      -9.561 -46.779  29.213  1.00  0.00     0.047 A 
ATOM     34  C   UNL     1     -10.289 -46.000  31.376  1.00  0.00     0.094 A 
ATOM     35  C   UNL     1      -9.327 -46.586  30.569  1.00  0.00     0.119 A 
ATOM     36  O   UNL     1     -14.499 -44.076  31.958  1.00  0.00    -0.246 OA
BRANCH  35  37
ATOM     37  O   UNL     1      -8.152 -46.963  31.150  1.00  0.00    -0.508 OA
ATOM     38  H   UNL     1      -8.341 -47.595  31.862  1.00  0.00     0.293 HD
ENDBRANCH  35  37
ENDBRANCH  25  26
ENDBRANCH  22  25
ENDBRANCH  20  21
ENDBRANCH   1  20
TORSDOF 9
ENDMDL
MODEL 9
REMARK VINA RESULT:   -10.309      4.241     10.491
REMARK INTER + INTRA:         -16.301
REMARK INTER:                 -15.161
REMARK INTRA:                  -1.140
REMARK UNBOUND:                -0.869
REMARK SMILES O=C(Cc1cc(=O)oc2cc(O)ccc12)NCCCCN=c1c2c([nH]c3ccccc13)CCCC2
REMARK SMILES IDX 18 1 19 2 20 3 21 4 22 5 25 6 24 7 26 8 23 9 32 10 27 11
REMARK SMILES IDX 31 12 35 13 33 14 28 15 30 16 34 17 29 18 17 20 16 21 2 22
REMARK SMILES IDX 1 24 3 25 4 26 5 27 15 28 6 29 14 30 9 31 8 32 13 33 10 34
REMARK SMILES IDX 11 35 7 36 12 37
REMARK H PARENT 25 19 16 23 12 38
ROOT
ATOM      1  C   UNL     1     -18.754 -41.989  23.984  1.00  0.00     0.023 C 
ENDROOT
BRANCH   1   2
ATOM      2  C   UNL     1     -19.837 -41.112  23.350  1.00  0.00     0.025 C 
BRANCH   2   3
ATOM      3  C   UNL     1     -20.782 -41.875  22.425  1.00  0.00     0.143 C 
BRANCH   3   4
ATOM      4  N   UNL     1     -21.935 -42.305  23.180  1.00  0.00    -0.284 NA
BRANCH   4   5
ATOM      5  C   UNL     1     -22.221 -42.096  24.413  1.00  0.00     0.072 A 
ATOM      6  N   UNL     1     -22.214 -41.766  27.237  1.00  0.00    -0.358 N 
ATOM      7  C   UNL     1     -22.788 -40.800  26.438  1.00  0.00     0.021 A 
ATOM      8  C   UNL     1     -21.890 -43.026  26.723  1.00  0.00     0.048 A 
ATOM      9  C   UNL     1     -22.843 -40.882  25.088  1.00  0.00    -0.003 A 
ATOM     10  C   UNL     1     -23.392 -39.635  27.203  1.00  0.00     0.054 C 
ATOM     11  C   UNL     1     -21.501 -44.065  27.579  1.00  0.00     0.027 A 
ATOM     12  C   UNL     1     -21.877 -43.237  25.341  1.00  0.00     0.024 A 
ATOM     13  C   UNL     1     -23.576 -39.849  24.274  1.00  0.00     0.039 C 
ATOM     14  C   UNL     1     -23.851 -38.468  26.334  1.00  0.00     0.007 C 
ATOM     15  C   UNL     1     -21.144 -45.313  27.067  1.00  0.00     0.002 A 
ATOM     16  C   UNL     1     -21.513 -44.493  24.829  1.00  0.00     0.012 A 
ATOM     17  C   UNL     1     -24.542 -38.984  25.085  1.00  0.00     0.005 C 
ATOM     18  C   UNL     1     -21.154 -45.529  25.691  1.00  0.00     0.001 A 
ATOM     19  H   UNL     1     -22.404 -41.715  28.232  1.00  0.00     0.166 HD
ENDBRANCH   4   5
ENDBRANCH   3   4
ENDBRANCH   2   3
ENDBRANCH   1   2
BRANCH   1  20
ATOM     20  C   UNL     1     -17.691 -42.517  23.022  1.00  0.00     0.116 C 
BRANCH  20  21
ATOM     21  N   UNL     1     -16.707 -43.352  23.681  1.00  0.00    -0.356 N 
ATOM     22  C   UNL     1     -15.451 -42.851  23.971  1.00  0.00     0.224 C 
ATOM     23  H   UNL     1     -17.054 -44.089  24.283  1.00  0.00     0.163 HD
ATOM     24  O   UNL     1     -15.068 -41.742  23.611  1.00  0.00    -0.275 OA
BRANCH  22  25
ATOM     25  C   UNL     1     -14.587 -43.802  24.797  1.00  0.00     0.136 C 
BRANCH  25  26
ATOM     26  C   UNL     1     -14.912 -43.717  26.266  1.00  0.00    -0.020 A 
ATOM     27  C   UNL     1     -15.917 -42.941  26.704  1.00  0.00     0.098 A 
ATOM     28  C   UNL     1     -14.153 -44.493  27.261  1.00  0.00     0.022 A 
ATOM     29  C   UNL     1     -16.302 -42.820  28.118  1.00  0.00     0.336 A 
ATOM     30  C   UNL     1     -13.081 -45.338  26.942  1.00  0.00     0.016 A 
ATOM     31  C   UNL     1     -14.512 -44.387  28.608  1.00  0.00     0.142 A 
ATOM     32  O   UNL     1     -15.573 -43.562  29.028  1.00  0.00    -0.423 OA
ATOM     33  C   UNL     1     -12.400 -46.047  27.942  1.00  0.00     0.047 A 
ATOM     34  C   UNL     1     -13.847 -45.088  29.615  1.00  0.00     0.094 A 
ATOM     35  C   UNL     1     -12.791 -45.915  29.269  1.00  0.00     0.119 A 
ATOM     36  O   UNL     1     -17.239 -42.103  28.452  1.00  0.00    -0.246 OA
BRANCH  35  37
ATOM     37  O   UNL     1     -12.154 -46.589  30.269  1.00  0.00    -0.508 OA
ATOM     38  H   UNL     1     -11.208 -46.644  30.059  1.00  0.00     0.293 HD
ENDBRANCH  35  37
ENDBRANCH  25  26
ENDBRANCH  22  25
ENDBRANCH  20  21
ENDBRANCH   1  20
TORSDOF 9
ENDMDL
