MODEL 1
REMARK VINA RESULT:    -9.942      0.000      0.000
REMARK INTER + INTRA:         -14.797
REMARK INTER:                 -13.720
REMARK INTRA:                  -1.077
REMARK UNBOUND:                -1.077
REMARK SMILES COc1ccc(OC)c([C@@H]2C=C(c3cc(F)ccc3F)NN2c2ccc(S(N)(=O)=O)cc2)c1
REMARK SMILES IDX 23 1 24 2 25 3 26 4 31 5 32 6 22 7 21 8 12 9 11 10 10 11
REMARK SMILES IDX 13 13 14 14 19 15 15 16 18 17 17 18 20 19 16 20 9 21 33 22
REMARK SMILES IDX 6 23 3 24 5 25 4 26 7 27 8 28 2 29 1 30 27 31 29 32 30 33
REMARK SMILES IDX 28 34
REMARK H PARENT 21 12 28 35 28 36
ROOT
ATOM      1  C   UNL     1     -17.693 -42.522  25.171  1.00  0.00     0.058 A 
ATOM      2  C   UNL     1     -16.655 -43.110  24.422  1.00  0.00     0.029 A 
ATOM      3  C   UNL     1     -15.467 -43.551  25.016  1.00  0.00     0.024 A 
ATOM      4  C   UNL     1     -15.299 -43.409  26.390  1.00  0.00     0.082 A 
ATOM      5  C   UNL     1     -16.315 -42.857  27.170  1.00  0.00     0.024 A 
ATOM      6  C   UNL     1     -17.498 -42.422  26.558  1.00  0.00     0.029 A 
ENDROOT
BRANCH   1   7
ATOM      7  N   UNL     1     -18.876 -42.111  24.538  1.00  0.00    -0.276 N 
ATOM      8  N   UNL     1     -18.872 -41.393  23.344  1.00  0.00    -0.297 N 
ATOM      9  C   UNL     1     -20.037 -40.650  23.213  1.00  0.00     0.063 C 
ATOM     10  C   UNL     1     -20.770 -40.757  24.334  1.00  0.00     0.033 C 
ATOM     11  C   UNL     1     -20.087 -41.696  25.313  1.00  0.00     0.165 C 
ATOM     12  H   UNL     1     -18.679 -41.944  22.504  1.00  0.00     0.188 HD
BRANCH   9  13
ATOM     13  C   UNL     1     -20.378 -39.937  21.977  1.00  0.00     0.038 A 
ATOM     14  C   UNL     1     -21.628 -39.319  21.825  1.00  0.00     0.052 A 
ATOM     15  C   UNL     1     -19.463 -39.828  20.916  1.00  0.00     0.132 A 
ATOM     16  C   UNL     1     -21.937 -38.635  20.650  1.00  0.00     0.124 A 
ATOM     17  C   UNL     1     -19.777 -39.143  19.741  1.00  0.00     0.043 A 
ATOM     18  C   UNL     1     -21.024 -38.541  19.607  1.00  0.00     0.042 A 
ATOM     19  F   UNL     1     -18.251 -40.403  21.002  1.00  0.00    -0.206 F 
ATOM     20  F   UNL     1     -23.137 -38.051  20.527  1.00  0.00    -0.207 F 
ENDBRANCH   9  13
BRANCH  11  21
ATOM     21  C   UNL     1     -20.986 -42.843  25.744  1.00  0.00     0.026 A 
ATOM     22  C   UNL     1     -20.803 -44.103  25.127  1.00  0.00     0.056 A 
ATOM     23  C   UNL     1     -21.972 -42.732  26.738  1.00  0.00     0.124 A 
ATOM     24  C   UNL     1     -21.584 -45.206  25.481  1.00  0.00     0.119 A 
ATOM     25  C   UNL     1     -22.737 -43.839  27.111  1.00  0.00     0.050 A 
ATOM     26  C   UNL     1     -22.549 -45.065  26.476  1.00  0.00     0.050 A 
BRANCH  23  27
ATOM     27  O   UNL     1     -22.133 -41.555  27.419  1.00  0.00    -0.496 OA
ATOM     28  C   UNL     1     -23.384 -40.944  27.106  1.00  0.00     0.278 C 
ENDBRANCH  23  27
BRANCH  24  29
ATOM     29  O   UNL     1     -21.497 -46.460  24.944  1.00  0.00    -0.497 OA
ATOM     30  C   UNL     1     -22.440 -46.803  23.937  1.00  0.00     0.278 C 
ENDBRANCH  24  29
ENDBRANCH  11  21
ENDBRANCH   1   7
BRANCH   4  31
ATOM     31  S   UNL     1     -13.804 -43.962  27.161  1.00  0.00     0.238 S 
ATOM     32  O   UNL     1     -13.443 -45.243  26.601  1.00  0.00    -0.207 OA
ATOM     33  O   UNL     1     -12.881 -42.852  27.226  1.00  0.00    -0.207 OA
BRANCH  31  34
ATOM     34  N   UNL     1     -14.320 -44.218  28.744  1.00  0.00    -0.225 NA
ATOM     35  H   UNL     1     -14.833 -43.426  29.130  1.00  0.00     0.137 HD
ATOM     36  H   UNL     1     -13.510 -44.461  29.317  1.00  0.00     0.137 HD
ENDBRANCH  31  34
ENDBRANCH   4  31
TORSDOF 7
ENDMDL
MODEL 2
REMARK VINA RESULT:    -9.323      4.590      7.676
REMARK INTER + INTRA:         -13.942
REMARK INTER:                 -12.696
REMARK INTRA:                  -1.246
REMARK UNBOUND:                -1.077
REMARK SMILES COc1ccc(OC)c([C@@H]2C=C(c3cc(F)ccc3F)NN2c2ccc(S(N)(=O)=O)cc2)c1
REMARK SMILES IDX 23 1 24 2 25 3 26 4 31 5 32 6 22 7 21 8 12 9 11 10 10 11
REMARK SMILES IDX 13 13 14 14 19 15 15 16 18 17 17 18 20 19 16 20 9 21 33 22
REMARK SMILES IDX 6 23 3 24 5 25 4 26 7 27 8 28 2 29 1 30 27 31 29 32 30 33
REMARK SMILES IDX 28 34
REMARK H PARENT 21 12 28 35 28 36
ROOT
ATOM      1  C   UNL     1     -21.341 -40.906  25.162  1.00  0.00     0.058 A 
ATOM      2  C   UNL     1     -21.406 -40.915  26.569  1.00  0.00     0.029 A 
ATOM      3  C   UNL     1     -22.480 -40.354  27.269  1.00  0.00     0.024 A 
ATOM      4  C   UNL     1     -23.523 -39.768  26.558  1.00  0.00     0.082 A 
ATOM      5  C   UNL     1     -23.510 -39.764  25.164  1.00  0.00     0.024 A 
ATOM      6  C   UNL     1     -22.426 -40.331  24.480  1.00  0.00     0.029 A 
ENDROOT
BRANCH   1   7
ATOM      7  N   UNL     1     -20.254 -41.498  24.500  1.00  0.00    -0.276 N 
ATOM      8  N   UNL     1     -19.197 -42.090  25.188  1.00  0.00    -0.297 N 
ATOM      9  C   UNL     1     -18.046 -42.093  24.411  1.00  0.00     0.063 C 
ATOM     10  C   UNL     1     -18.268 -41.419  23.270  1.00  0.00     0.033 C 
ATOM     11  C   UNL     1     -19.711 -40.948  23.219  1.00  0.00     0.165 C 
ATOM     12  H   UNL     1     -19.393 -43.016  25.576  1.00  0.00     0.188 HD
BRANCH   9  13
ATOM     13  C   UNL     1     -16.829 -42.807  24.813  1.00  0.00     0.038 A 
ATOM     14  C   UNL     1     -16.064 -43.513  23.873  1.00  0.00     0.052 A 
ATOM     15  C   UNL     1     -16.376 -42.794  26.144  1.00  0.00     0.132 A 
ATOM     16  C   UNL     1     -14.904 -44.179  24.265  1.00  0.00     0.124 A 
ATOM     17  C   UNL     1     -15.215 -43.463  26.533  1.00  0.00     0.043 A 
ATOM     18  C   UNL     1     -14.472 -44.161  25.585  1.00  0.00     0.042 A 
ATOM     19  F   UNL     1     -17.070 -42.139  27.091  1.00  0.00    -0.206 F 
ATOM     20  F   UNL     1     -14.188 -44.844  23.349  1.00  0.00    -0.207 F 
ENDBRANCH   9  13
BRANCH  11  21
ATOM     21  C   UNL     1     -20.435 -41.423  21.970  1.00  0.00     0.026 A 
ATOM     22  C   UNL     1     -21.003 -42.719  21.980  1.00  0.00     0.056 A 
ATOM     23  C   UNL     1     -20.596 -40.641  20.815  1.00  0.00     0.124 A 
ATOM     24  C   UNL     1     -21.694 -43.217  20.873  1.00  0.00     0.119 A 
ATOM     25  C   UNL     1     -21.307 -41.128  19.716  1.00  0.00     0.050 A 
ATOM     26  C   UNL     1     -21.842 -42.414  19.744  1.00  0.00     0.050 A 
BRANCH  23  27
ATOM     27  O   UNL     1     -20.133 -39.352  20.786  1.00  0.00    -0.496 OA
ATOM     28  C   UNL     1     -20.604 -38.660  19.630  1.00  0.00     0.278 C 
ENDBRANCH  23  27
BRANCH  24  29
ATOM     29  O   UNL     1     -22.271 -44.453  20.773  1.00  0.00    -0.497 OA
ATOM     30  C   UNL     1     -22.519 -44.952  19.465  1.00  0.00     0.278 C 
ENDBRANCH  24  29
ENDBRANCH  11  21
ENDBRANCH   1   7
BRANCH   4  31
ATOM     31  S   UNL     1     -24.893 -39.054  27.424  1.00  0.00     0.238 S 
ATOM     32  O   UNL     1     -25.519 -40.082  28.222  1.00  0.00    -0.207 OA
ATOM     33  O   UNL     1     -24.478 -37.784  27.975  1.00  0.00    -0.207 OA
BRANCH  31  34
ATOM     34  N   UNL     1     -25.933 -38.681  26.153  1.00  0.00    -0.225 NA
ATOM     35  H   UNL     1     -26.235 -37.707  26.155  1.00  0.00     0.137 HD
ATOM     36  H   UNL     1     -26.727 -39.325  26.179  1.00  0.00     0.137 HD
ENDBRANCH  31  34
ENDBRANCH   4  31
TORSDOF 7
ENDMDL
MODEL 3
REMARK VINA RESULT:    -9.301      3.067      5.735
REMARK INTER + INTRA:         -13.913
REMARK INTER:                 -12.523
REMARK INTRA:                  -1.390
REMARK UNBOUND:                -1.077
REMARK SMILES COc1ccc(OC)c([C@@H]2C=C(c3cc(F)ccc3F)NN2c2ccc(S(N)(=O)=O)cc2)c1
REMARK SMILES IDX 23 1 24 2 25 3 26 4 31 5 32 6 22 7 21 8 12 9 11 10 10 11
REMARK SMILES IDX 13 13 14 14 19 15 15 16 18 17 17 18 20 19 16 20 9 21 33 22
REMARK SMILES IDX 6 23 3 24 5 25 4 26 7 27 8 28 2 29 1 30 27 31 29 32 30 33
REMARK SMILES IDX 28 34
REMARK H PARENT 21 12 28 35 28 36
ROOT
ATOM      1  C   UNL     1     -19.047 -41.917  26.140  1.00  0.00     0.058 A 
ATOM      2  C   UNL     1     -18.298 -42.279  25.003  1.00  0.00     0.029 A 
ATOM      3  C   UNL     1     -16.983 -42.748  25.096  1.00  0.00     0.024 A 
ATOM      4  C   UNL     1     -16.390 -42.865  26.349  1.00  0.00     0.082 A 
ATOM      5  C   UNL     1     -17.106 -42.543  27.500  1.00  0.00     0.024 A 
ATOM      6  C   UNL     1     -18.422 -42.076  27.388  1.00  0.00     0.029 A 
ENDROOT
BRANCH   1   7
ATOM      7  N   UNL     1     -20.370 -41.470  26.003  1.00  0.00    -0.276 N 
ATOM      8  N   UNL     1     -21.066 -40.869  27.049  1.00  0.00    -0.297 N 
ATOM      9  C   UNL     1     -22.435 -41.022  26.881  1.00  0.00     0.063 C 
ATOM     10  C   UNL     1     -22.675 -41.806  25.817  1.00  0.00     0.033 C 
ATOM     11  C   UNL     1     -21.366 -42.192  25.151  1.00  0.00     0.165 C 
ATOM     12  H   UNL     1     -20.815 -39.895  27.238  1.00  0.00     0.188 HD
BRANCH   9  13
ATOM     13  C   UNL     1     -23.412 -40.341  27.738  1.00  0.00     0.038 A 
ATOM     14  C   UNL     1     -23.498 -38.942  27.761  1.00  0.00     0.052 A 
ATOM     15  C   UNL     1     -24.307 -41.063  28.548  1.00  0.00     0.132 A 
ATOM     16  C   UNL     1     -24.438 -38.306  28.571  1.00  0.00     0.124 A 
ATOM     17  C   UNL     1     -25.245 -40.423  29.359  1.00  0.00     0.043 A 
ATOM     18  C   UNL     1     -25.312 -39.033  29.370  1.00  0.00     0.042 A 
ATOM     19  F   UNL     1     -24.269 -42.406  28.572  1.00  0.00    -0.206 F 
ATOM     20  F   UNL     1     -24.504 -36.969  28.576  1.00  0.00    -0.207 F 
ENDBRANCH   9  13
BRANCH  11  21
ATOM     21  C   UNL     1     -21.328 -41.818  23.679  1.00  0.00     0.026 A 
ATOM     22  C   UNL     1     -20.958 -40.497  23.335  1.00  0.00     0.056 A 
ATOM     23  C   UNL     1     -21.616 -42.715  22.637  1.00  0.00     0.124 A 
ATOM     24  C   UNL     1     -20.889 -40.085  22.002  1.00  0.00     0.119 A 
ATOM     25  C   UNL     1     -21.525 -42.313  21.303  1.00  0.00     0.050 A 
ATOM     26  C   UNL     1     -21.173 -41.001  20.991  1.00  0.00     0.050 A 
BRANCH  23  27
ATOM     27  O   UNL     1     -21.903 -44.025  22.916  1.00  0.00    -0.496 OA
ATOM     28  C   UNL     1     -23.281 -44.313  22.684  1.00  0.00     0.278 C 
ENDBRANCH  23  27
BRANCH  24  29
ATOM     29  O   UNL     1     -20.552 -38.836  21.561  1.00  0.00    -0.497 OA
ATOM     30  C   UNL     1     -20.516 -38.630  20.155  1.00  0.00     0.278 C 
ENDBRANCH  24  29
ENDBRANCH  11  21
ENDBRANCH   1   7
BRANCH   4  31
ATOM     31  S   UNL     1     -14.727 -43.458  26.487  1.00  0.00     0.238 S 
ATOM     32  O   UNL     1     -14.538 -44.528  25.536  1.00  0.00    -0.207 OA
ATOM     33  O   UNL     1     -13.838 -42.322  26.570  1.00  0.00    -0.207 OA
BRANCH  31  34
ATOM     34  N   UNL     1     -14.743 -44.137  28.030  1.00  0.00    -0.225 NA
ATOM     35  H   UNL     1     -13.812 -44.367  28.375  1.00  0.00     0.137 HD
ATOM     36  H   UNL     1     -15.358 -44.952  28.022  1.00  0.00     0.137 HD
ENDBRANCH  31  34
ENDBRANCH   4  31
TORSDOF 7
ENDMDL
MODEL 4
REMARK VINA RESULT:    -9.184      4.341      7.734
REMARK INTER + INTRA:         -13.750
REMARK INTER:                 -12.320
REMARK INTRA:                  -1.431
REMARK UNBOUND:                -1.077
REMARK SMILES COc1ccc(OC)c([C@@H]2C=C(c3cc(F)ccc3F)NN2c2ccc(S(N)(=O)=O)cc2)c1
REMARK SMILES IDX 23 1 24 2 25 3 26 4 31 5 32 6 22 7 21 8 12 9 11 10 10 11
REMARK SMILES IDX 13 13 14 14 19 15 15 16 18 17 17 18 20 19 16 20 9 21 33 22
REMARK SMILES IDX 6 23 3 24 5 25 4 26 7 27 8 28 2 29 1 30 27 31 29 32 30 33
REMARK SMILES IDX 28 34
REMARK H PARENT 21 12 28 35 28 36
ROOT
ATOM      1  C   UNL     1     -20.931 -40.364  22.804  1.00  0.00     0.058 A 
ATOM      2  C   UNL     1     -22.233 -40.643  22.342  1.00  0.00     0.029 A 
ATOM      3  C   UNL     1     -22.817 -39.930  21.289  1.00  0.00     0.024 A 
ATOM      4  C   UNL     1     -22.094 -38.913  20.672  1.00  0.00     0.082 A 
ATOM      5  C   UNL     1     -20.793 -38.626  21.081  1.00  0.00     0.024 A 
ATOM      6  C   UNL     1     -20.224 -39.351  22.137  1.00  0.00     0.029 A 
ENDROOT
BRANCH   1   7
ATOM      7  N   UNL     1     -20.376 -41.118  23.850  1.00  0.00    -0.276 N 
ATOM      8  N   UNL     1     -19.001 -41.277  24.005  1.00  0.00    -0.297 N 
ATOM      9  C   UNL     1     -18.717 -42.442  24.704  1.00  0.00     0.063 C 
ATOM     10  C   UNL     1     -19.852 -43.127  24.922  1.00  0.00     0.033 C 
ATOM     11  C   UNL     1     -21.038 -42.353  24.375  1.00  0.00     0.165 C 
ATOM     12  H   UNL     1     -18.510 -40.471  24.399  1.00  0.00     0.188 HD
BRANCH   9  13
ATOM     13  C   UNL     1     -17.363 -42.773  25.162  1.00  0.00     0.038 A 
ATOM     14  C   UNL     1     -16.408 -43.288  24.272  1.00  0.00     0.052 A 
ATOM     15  C   UNL     1     -16.968 -42.568  26.495  1.00  0.00     0.132 A 
ATOM     16  C   UNL     1     -15.121 -43.588  24.716  1.00  0.00     0.124 A 
ATOM     17  C   UNL     1     -15.679 -42.871  26.936  1.00  0.00     0.043 A 
ATOM     18  C   UNL     1     -14.748 -43.385  26.039  1.00  0.00     0.042 A 
ATOM     19  F   UNL     1     -17.840 -42.082  27.395  1.00  0.00    -0.206 F 
ATOM     20  F   UNL     1     -14.225 -44.077  23.849  1.00  0.00    -0.207 F 
ENDBRANCH   9  13
BRANCH  11  21
ATOM     21  C   UNL     1     -22.104 -42.099  25.428  1.00  0.00     0.026 A 
ATOM     22  C   UNL     1     -22.119 -40.840  26.074  1.00  0.00     0.056 A 
ATOM     23  C   UNL     1     -23.091 -43.033  25.781  1.00  0.00     0.124 A 
ATOM     24  C   UNL     1     -23.076 -40.532  27.043  1.00  0.00     0.119 A 
ATOM     25  C   UNL     1     -24.064 -42.719  26.733  1.00  0.00     0.050 A 
ATOM     26  C   UNL     1     -24.047 -41.478  27.366  1.00  0.00     0.050 A 
BRANCH  23  27
ATOM     27  O   UNL     1     -23.167 -44.235  25.129  1.00  0.00    -0.496 OA
ATOM     28  C   UNL     1     -23.116 -45.326  26.048  1.00  0.00     0.278 C 
ENDBRANCH  23  27
BRANCH  24  29
ATOM     29  O   UNL     1     -23.175 -39.355  27.731  1.00  0.00    -0.497 OA
ATOM     30  C   UNL     1     -24.041 -38.360  27.200  1.00  0.00     0.278 C 
ENDBRANCH  24  29
ENDBRANCH  11  21
ENDBRANCH   1   7
BRANCH   4  31
ATOM     31  S   UNL     1     -22.816 -38.000  19.337  1.00  0.00     0.238 S 
ATOM     32  O   UNL     1     -22.285 -38.506  18.093  1.00  0.00    -0.207 OA
ATOM     33  O   UNL     1     -24.233 -37.867  19.582  1.00  0.00    -0.207 OA
BRANCH  31  34
ATOM     34  N   UNL     1     -22.164 -36.467  19.591  1.00  0.00    -0.225 NA
ATOM     35  H   UNL     1     -22.315 -35.833  18.807  1.00  0.00     0.137 HD
ATOM     36  H   UNL     1     -21.172 -36.566  19.813  1.00  0.00     0.137 HD
ENDBRANCH  31  34
ENDBRANCH   4  31
TORSDOF 7
ENDMDL
MODEL 5
REMARK VINA RESULT:    -8.966      1.588      2.001
REMARK INTER + INTRA:         -13.449
REMARK INTER:                 -11.896
REMARK INTRA:                  -1.553
REMARK UNBOUND:                -1.077
REMARK SMILES COc1ccc(OC)c([C@@H]2C=C(c3cc(F)ccc3F)NN2c2ccc(S(N)(=O)=O)cc2)c1
REMARK SMILES IDX 23 1 24 2 25 3 26 4 31 5 32 6 22 7 21 8 12 9 11 10 10 11
REMARK SMILES IDX 13 13 14 14 19 15 15 16 18 17 17 18 20 19 16 20 9 21 33 22
REMARK SMILES IDX 6 23 3 24 5 25 4 26 7 27 8 28 2 29 1 30 27 31 29 32 30 33
REMARK SMILES IDX 28 34
REMARK H PARENT 21 12 28 35 28 36
ROOT
ATOM      1  C   UNL     1     -18.763 -42.162  24.444  1.00  0.00     0.058 A 
ATOM      2  C   UNL     1     -18.603 -42.139  25.843  1.00  0.00     0.029 A 
ATOM      3  C   UNL     1     -17.395 -42.486  26.459  1.00  0.00     0.024 A 
ATOM      4  C   UNL     1     -16.313 -42.864  25.670  1.00  0.00     0.082 A 
ATOM      5  C   UNL     1     -16.424 -42.872  24.281  1.00  0.00     0.024 A 
ATOM      6  C   UNL     1     -17.641 -42.521  23.681  1.00  0.00     0.029 A 
ENDROOT
BRANCH   1   7
ATOM      7  N   UNL     1     -19.987 -41.787  23.867  1.00  0.00    -0.276 N 
ATOM      8  N   UNL     1     -20.078 -41.299  22.565  1.00  0.00    -0.297 N 
ATOM      9  C   UNL     1     -21.209 -40.509  22.414  1.00  0.00     0.063 C 
ATOM     10  C   UNL     1     -21.817 -40.357  23.603  1.00  0.00     0.033 C 
ATOM     11  C   UNL     1     -21.079 -41.150  24.668  1.00  0.00     0.165 C 
ATOM     12  H   UNL     1     -20.011 -42.006  21.828  1.00  0.00     0.188 HD
BRANCH   9  13
ATOM     13  C   UNL     1     -21.649 -40.008  21.107  1.00  0.00     0.038 A 
ATOM     14  C   UNL     1     -21.289 -38.725  20.671  1.00  0.00     0.052 A 
ATOM     15  C   UNL     1     -22.424 -40.798  20.241  1.00  0.00     0.132 A 
ATOM     16  C   UNL     1     -21.703 -38.263  19.422  1.00  0.00     0.124 A 
ATOM     17  C   UNL     1     -22.838 -40.332  18.993  1.00  0.00     0.043 A 
ATOM     18  C   UNL     1     -22.474 -39.054  18.579  1.00  0.00     0.042 A 
ATOM     19  F   UNL     1     -22.804 -42.034  20.607  1.00  0.00    -0.206 F 
ATOM     20  F   UNL     1     -21.346 -37.035  19.025  1.00  0.00    -0.207 F 
ENDBRANCH   9  13
BRANCH  11  21
ATOM     21  C   UNL     1     -21.983 -42.131  25.395  1.00  0.00     0.026 A 
ATOM     22  C   UNL     1     -22.303 -43.350  24.750  1.00  0.00     0.056 A 
ATOM     23  C   UNL     1     -22.502 -41.910  26.681  1.00  0.00     0.124 A 
ATOM     24  C   UNL     1     -23.118 -44.304  25.363  1.00  0.00     0.119 A 
ATOM     25  C   UNL     1     -23.298 -42.873  27.305  1.00  0.00     0.050 A 
ATOM     26  C   UNL     1     -23.611 -44.058  26.643  1.00  0.00     0.050 A 
BRANCH  23  27
ATOM     27  O   UNL     1     -22.158 -40.782  27.377  1.00  0.00    -0.496 OA
ATOM     28  C   UNL     1     -23.244 -39.858  27.433  1.00  0.00     0.278 C 
ENDBRANCH  23  27
BRANCH  24  29
ATOM     29  O   UNL     1     -23.494 -45.504  24.828  1.00  0.00    -0.497 OA
ATOM     30  C   UNL     1     -22.919 -45.870  23.580  1.00  0.00     0.278 C 
ENDBRANCH  24  29
ENDBRANCH  11  21
ENDBRANCH   1   7
BRANCH   4  31
ATOM     31  S   UNL     1     -14.776 -43.305  26.430  1.00  0.00     0.238 S 
ATOM     32  O   UNL     1     -14.317 -44.548  25.857  1.00  0.00    -0.207 OA
ATOM     33  O   UNL     1     -13.943 -42.126  26.503  1.00  0.00    -0.207 OA
BRANCH  31  34
ATOM     34  N   UNL     1     -15.263 -43.615  28.013  1.00  0.00    -0.225 NA
ATOM     35  H   UNL     1     -15.687 -44.535  28.128  1.00  0.00     0.137 HD
ATOM     36  H   UNL     1     -15.890 -42.868  28.315  1.00  0.00     0.137 HD
ENDBRANCH  31  34
ENDBRANCH   4  31
TORSDOF 7
ENDMDL
MODEL 6
REMARK VINA RESULT:    -8.901      1.613      2.842
REMARK INTER + INTRA:         -13.360
REMARK INTER:                 -12.182
REMARK INTRA:                  -1.179
REMARK UNBOUND:                -1.077
REMARK SMILES COc1ccc(OC)c([C@@H]2C=C(c3cc(F)ccc3F)NN2c2ccc(S(N)(=O)=O)cc2)c1
REMARK SMILES IDX 23 1 24 2 25 3 26 4 31 5 32 6 22 7 21 8 12 9 11 10 10 11
REMARK SMILES IDX 13 13 14 14 19 15 15 16 18 17 17 18 20 19 16 20 9 21 33 22
REMARK SMILES IDX 6 23 3 24 5 25 4 26 7 27 8 28 2 29 1 30 27 31 29 32 30 33
REMARK SMILES IDX 28 34
REMARK H PARENT 21 12 28 35 28 36
ROOT
ATOM      1  C   UNL     1     -18.519 -42.090  24.683  1.00  0.00     0.058 A 
ATOM      2  C   UNL     1     -17.403 -42.406  23.884  1.00  0.00     0.029 A 
ATOM      3  C   UNL     1     -16.187 -42.823  24.436  1.00  0.00     0.024 A 
ATOM      4  C   UNL     1     -16.069 -42.934  25.818  1.00  0.00     0.082 A 
ATOM      5  C   UNL     1     -17.159 -42.657  26.641  1.00  0.00     0.024 A 
ATOM      6  C   UNL     1     -18.370 -42.241  26.071  1.00  0.00     0.029 A 
ENDROOT
BRANCH   1   7
ATOM      7  N   UNL     1     -19.726 -41.694  24.087  1.00  0.00    -0.276 N 
ATOM      8  N   UNL     1     -19.809 -41.327  22.745  1.00  0.00    -0.297 N 
ATOM      9  C   UNL     1     -20.891 -40.483  22.532  1.00  0.00     0.063 C 
ATOM     10  C   UNL     1     -21.467 -40.180  23.708  1.00  0.00     0.033 C 
ATOM     11  C   UNL     1     -20.762 -40.915  24.835  1.00  0.00     0.165 C 
ATOM     12  H   UNL     1     -19.799 -42.103  22.079  1.00  0.00     0.188 HD
BRANCH   9  13
ATOM     13  C   UNL     1     -21.320 -40.081  21.188  1.00  0.00     0.038 A 
ATOM     14  C   UNL     1     -21.097 -38.777  20.721  1.00  0.00     0.052 A 
ATOM     15  C   UNL     1     -21.947 -40.988  20.316  1.00  0.00     0.132 A 
ATOM     16  C   UNL     1     -21.500 -38.410  19.438  1.00  0.00     0.124 A 
ATOM     17  C   UNL     1     -22.350 -40.616  19.033  1.00  0.00     0.043 A 
ATOM     18  C   UNL     1     -22.124 -39.316  18.590  1.00  0.00     0.042 A 
ATOM     19  F   UNL     1     -22.191 -42.250  20.708  1.00  0.00    -0.206 F 
ATOM     20  F   UNL     1     -21.276 -37.160  19.013  1.00  0.00    -0.207 F 
ENDBRANCH   9  13
BRANCH  11  21
ATOM     21  C   UNL     1     -21.714 -41.762  25.663  1.00  0.00     0.026 A 
ATOM     22  C   UNL     1     -22.370 -41.153  26.759  1.00  0.00     0.056 A 
ATOM     23  C   UNL     1     -22.002 -43.109  25.388  1.00  0.00     0.124 A 
ATOM     24  C   UNL     1     -23.268 -41.866  27.556  1.00  0.00     0.119 A 
ATOM     25  C   UNL     1     -22.917 -43.817  26.169  1.00  0.00     0.050 A 
ATOM     26  C   UNL     1     -23.537 -43.199  27.253  1.00  0.00     0.050 A 
BRANCH  23  27
ATOM     27  O   UNL     1     -21.453 -43.720  24.292  1.00  0.00    -0.496 OA
ATOM     28  C   UNL     1     -22.462 -44.128  23.369  1.00  0.00     0.278 C 
ENDBRANCH  23  27
BRANCH  24  29
ATOM     29  O   UNL     1     -23.945 -41.379  28.639  1.00  0.00    -0.497 OA
ATOM     30  C   UNL     1     -24.422 -40.042  28.561  1.00  0.00     0.278 C 
ENDBRANCH  24  29
ENDBRANCH  11  21
ENDBRANCH   1   7
BRANCH   4  31
ATOM     31  S   UNL     1     -14.539 -43.463  26.536  1.00  0.00     0.238 S 
ATOM     32  O   UNL     1     -14.144 -44.705  25.915  1.00  0.00    -0.207 OA
ATOM     33  O   UNL     1     -13.656 -42.323  26.630  1.00  0.00    -0.207 OA
BRANCH  31  34
ATOM     34  N   UNL     1     -15.013 -43.803  28.117  1.00  0.00    -0.225 NA
ATOM     35  H   UNL     1     -15.386 -44.745  28.229  1.00  0.00     0.137 HD
ATOM     36  H   UNL     1     -15.681 -43.092  28.419  1.00  0.00     0.137 HD
ENDBRANCH  31  34
ENDBRANCH   4  31
TORSDOF 7
ENDMDL
MODEL 7
REMARK VINA RESULT:    -8.853      4.477      7.383
REMARK INTER + INTRA:         -13.294
REMARK INTER:                 -11.705
REMARK INTRA:                  -1.588
REMARK UNBOUND:                -1.077
REMARK SMILES COc1ccc(OC)c([C@@H]2C=C(c3cc(F)ccc3F)NN2c2ccc(S(N)(=O)=O)cc2)c1
REMARK SMILES IDX 23 1 24 2 25 3 26 4 31 5 32 6 22 7 21 8 12 9 11 10 10 11
REMARK SMILES IDX 13 13 14 14 19 15 15 16 18 17 17 18 20 19 16 20 9 21 33 22
REMARK SMILES IDX 6 23 3 24 5 25 4 26 7 27 8 28 2 29 1 30 27 31 29 32 30 33
REMARK SMILES IDX 28 34
REMARK H PARENT 21 12 28 35 28 36
ROOT
ATOM      1  C   UNL     1     -22.479 -44.053  26.819  1.00  0.00     0.058 A 
ATOM      2  C   UNL     1     -22.608 -44.397  28.179  1.00  0.00     0.029 A 
ATOM      3  C   UNL     1     -23.565 -45.315  28.627  1.00  0.00     0.024 A 
ATOM      4  C   UNL     1     -24.418 -45.913  27.705  1.00  0.00     0.082 A 
ATOM      5  C   UNL     1     -24.304 -45.620  26.347  1.00  0.00     0.024 A 
ATOM      6  C   UNL     1     -23.339 -44.699  25.917  1.00  0.00     0.029 A 
ENDROOT
BRANCH   1   7
ATOM      7  N   UNL     1     -21.493 -43.143  26.411  1.00  0.00    -0.276 N 
ATOM      8  N   UNL     1     -20.173 -43.527  26.181  1.00  0.00    -0.297 N 
ATOM      9  C   UNL     1     -19.313 -42.449  26.338  1.00  0.00     0.063 C 
ATOM     10  C   UNL     1     -20.000 -41.382  26.778  1.00  0.00     0.033 C 
ATOM     11  C   UNL     1     -21.475 -41.725  26.890  1.00  0.00     0.165 C 
ATOM     12  H   UNL     1     -20.009 -44.016  25.298  1.00  0.00     0.188 HD
BRANCH   9  13
ATOM     13  C   UNL     1     -17.890 -42.523  25.989  1.00  0.00     0.038 A 
ATOM     14  C   UNL     1     -17.475 -42.491  24.650  1.00  0.00     0.052 A 
ATOM     15  C   UNL     1     -16.895 -42.608  26.978  1.00  0.00     0.132 A 
ATOM     16  C   UNL     1     -16.119 -42.551  24.330  1.00  0.00     0.124 A 
ATOM     17  C   UNL     1     -15.539 -42.669  26.654  1.00  0.00     0.043 A 
ATOM     18  C   UNL     1     -15.147 -42.640  25.319  1.00  0.00     0.042 A 
ATOM     19  F   UNL     1     -17.231 -42.647  28.279  1.00  0.00    -0.206 F 
ATOM     20  F   UNL     1     -15.745 -42.517  23.044  1.00  0.00    -0.207 F 
ENDBRANCH   9  13
BRANCH  11  21
ATOM     21  C   UNL     1     -22.356 -40.778  26.092  1.00  0.00     0.026 A 
ATOM     22  C   UNL     1     -22.225 -40.771  24.683  1.00  0.00     0.056 A 
ATOM     23  C   UNL     1     -23.310 -39.925  26.670  1.00  0.00     0.124 A 
ATOM     24  C   UNL     1     -23.010 -39.936  23.885  1.00  0.00     0.119 A 
ATOM     25  C   UNL     1     -24.112 -39.106  25.872  1.00  0.00     0.050 A 
ATOM     26  C   UNL     1     -23.953 -39.106  24.488  1.00  0.00     0.050 A 
BRANCH  23  27
ATOM     27  O   UNL     1     -23.529 -39.951  28.022  1.00  0.00    -0.496 OA
ATOM     28  C   UNL     1     -24.702 -40.699  28.341  1.00  0.00     0.278 C 
ENDBRANCH  23  27
BRANCH  24  29
ATOM     29  O   UNL     1     -22.958 -39.845  22.522  1.00  0.00    -0.497 OA
ATOM     30  C   UNL     1     -21.837 -39.179  21.956  1.00  0.00     0.278 C 
ENDBRANCH  24  29
ENDBRANCH  11  21
ENDBRANCH   1   7
BRANCH   4  31
ATOM     31  S   UNL     1     -25.635 -47.078  28.252  1.00  0.00     0.238 S 
ATOM     32  O   UNL     1     -26.944 -46.566  27.924  1.00  0.00    -0.207 OA
ATOM     33  O   UNL     1     -25.201 -48.405  27.880  1.00  0.00    -0.207 OA
BRANCH  31  34
ATOM     34  N   UNL     1     -25.451 -46.991  29.925  1.00  0.00    -0.225 NA
ATOM     35  H   UNL     1     -24.579 -47.405  30.254  1.00  0.00     0.137 HD
ATOM     36  H   UNL     1     -26.266 -47.421  30.366  1.00  0.00     0.137 HD
ENDBRANCH  31  34
ENDBRANCH   4  31
TORSDOF 7
ENDMDL
MODEL 8
REMARK VINA RESULT:    -8.737      4.434      7.293
REMARK INTER + INTRA:         -13.134
REMARK INTER:                 -11.616
REMARK INTRA:                  -1.518
REMARK UNBOUND:                -1.077
REMARK SMILES COc1ccc(OC)c([C@@H]2C=C(c3cc(F)ccc3F)NN2c2ccc(S(N)(=O)=O)cc2)c1
REMARK SMILES IDX 23 1 24 2 25 3 26 4 31 5 32 6 22 7 21 8 12 9 11 10 10 11
REMARK SMILES IDX 13 13 14 14 19 15 15 16 18 17 17 18 20 19 16 20 9 21 33 22
REMARK SMILES IDX 6 23 3 24 5 25 4 26 7 27 8 28 2 29 1 30 27 31 29 32 30 33
REMARK SMILES IDX 28 34
REMARK H PARENT 21 12 28 35 28 36
ROOT
ATOM      1  C   UNL     1     -21.761 -41.823  25.943  1.00  0.00     0.058 A 
ATOM      2  C   UNL     1     -22.023 -40.528  26.433  1.00  0.00     0.029 A 
ATOM      3  C   UNL     1     -23.080 -40.265  27.311  1.00  0.00     0.024 A 
ATOM      4  C   UNL     1     -23.902 -41.310  27.719  1.00  0.00     0.082 A 
ATOM      5  C   UNL     1     -23.659 -42.610  27.279  1.00  0.00     0.024 A 
ATOM      6  C   UNL     1     -22.595 -42.856  26.401  1.00  0.00     0.029 A 
ENDROOT
BRANCH   1   7
ATOM      7  N   UNL     1     -20.678 -42.046  25.079  1.00  0.00    -0.276 N 
ATOM      8  N   UNL     1     -19.477 -42.599  25.518  1.00  0.00    -0.297 N 
ATOM      9  C   UNL     1     -18.429 -42.222  24.689  1.00  0.00     0.063 C 
ATOM     10  C   UNL     1     -18.870 -41.340  23.776  1.00  0.00     0.033 C 
ATOM     11  C   UNL     1     -20.364 -41.120  23.947  1.00  0.00     0.165 C 
ATOM     12  H   UNL     1     -19.492 -43.611  25.671  1.00  0.00     0.188 HD
BRANCH   9  13
ATOM     13  C   UNL     1     -17.085 -42.796  24.811  1.00  0.00     0.038 A 
ATOM     14  C   UNL     1     -16.424 -42.824  26.048  1.00  0.00     0.052 A 
ATOM     15  C   UNL     1     -16.422 -43.355  23.705  1.00  0.00     0.132 A 
ATOM     16  C   UNL     1     -15.151 -43.382  26.154  1.00  0.00     0.124 A 
ATOM     17  C   UNL     1     -15.147 -43.911  23.815  1.00  0.00     0.043 A 
ATOM     18  C   UNL     1     -14.506 -43.925  25.050  1.00  0.00     0.042 A 
ATOM     19  F   UNL     1     -17.003 -43.353  22.493  1.00  0.00    -0.206 F 
ATOM     20  F   UNL     1     -14.539 -43.399  27.346  1.00  0.00    -0.207 F 
ENDBRANCH   9  13
BRANCH  11  21
ATOM     21  C   UNL     1     -21.142 -41.396  22.671  1.00  0.00     0.026 A 
ATOM     22  C   UNL     1     -20.758 -42.505  21.880  1.00  0.00     0.056 A 
ATOM     23  C   UNL     1     -22.237 -40.628  22.243  1.00  0.00     0.124 A 
ATOM     24  C   UNL     1     -21.435 -42.826  20.702  1.00  0.00     0.119 A 
ATOM     25  C   UNL     1     -22.931 -40.962  21.077  1.00  0.00     0.050 A 
ATOM     26  C   UNL     1     -22.523 -42.049  20.307  1.00  0.00     0.050 A 
BRANCH  23  27
ATOM     27  O   UNL     1     -22.696 -39.593  23.013  1.00  0.00    -0.496 OA
ATOM     28  C   UNL     1     -23.168 -38.516  22.204  1.00  0.00     0.278 C 
ENDBRANCH  23  27
BRANCH  24  29
ATOM     29  O   UNL     1     -21.142 -43.865  19.862  1.00  0.00    -0.497 OA
ATOM     30  C   UNL     1     -22.232 -44.646  19.389  1.00  0.00     0.278 C 
ENDBRANCH  24  29
ENDBRANCH  11  21
ENDBRANCH   1   7
BRANCH   4  31
ATOM     31  S   UNL     1     -25.245 -40.998  28.831  1.00  0.00     0.238 S 
ATOM     32  O   UNL     1     -25.345 -39.573  29.043  1.00  0.00    -0.207 OA
ATOM     33  O   UNL     1     -26.372 -41.808  28.432  1.00  0.00    -0.207 OA
BRANCH  31  34
ATOM     34  N   UNL     1     -24.667 -41.692  30.254  1.00  0.00    -0.225 NA
ATOM     35  H   UNL     1     -25.334 -41.641  31.023  1.00  0.00     0.137 HD
ATOM     36  H   UNL     1     -23.776 -41.253  30.494  1.00  0.00     0.137 HD
ENDBRANCH  31  34
ENDBRANCH   4  31
TORSDOF 7
ENDMDL
MODEL 9
REMARK VINA RESULT:    -8.734      4.157      7.487
REMARK INTER + INTRA:         -13.130
REMARK INTER:                 -11.678
REMARK INTRA:                  -1.452
REMARK UNBOUND:                -1.077
REMARK SMILES COc1ccc(OC)c([C@@H]2C=C(c3cc(F)ccc3F)NN2c2ccc(S(N)(=O)=O)cc2)c1
REMARK SMILES IDX 23 1 24 2 25 3 26 4 31 5 32 6 22 7 21 8 12 9 11 10 10 11
REMARK SMILES IDX 13 13 14 14 19 15 15 16 18 17 17 18 20 19 16 20 9 21 33 22
REMARK SMILES IDX 6 23 3 24 5 25 4 26 7 27 8 28 2 29 1 30 27 31 29 32 30 33
REMARK SMILES IDX 28 34
REMARK H PARENT 21 12 28 35 28 36
ROOT
ATOM      1  C   UNL     1     -22.416 -44.215  26.619  1.00  0.00     0.058 A 
ATOM      2  C   UNL     1     -22.650 -44.438  27.990  1.00  0.00     0.029 A 
ATOM      3  C   UNL     1     -23.565 -45.394  28.444  1.00  0.00     0.024 A 
ATOM      4  C   UNL     1     -24.269 -46.155  27.515  1.00  0.00     0.082 A 
ATOM      5  C   UNL     1     -24.046 -45.984  26.150  1.00  0.00     0.024 A 
ATOM      6  C   UNL     1     -23.125 -45.022  25.715  1.00  0.00     0.029 A 
ENDROOT
BRANCH   1   7
ATOM      7  N   UNL     1     -21.474 -43.259  26.209  1.00  0.00    -0.276 N 
ATOM      8  N   UNL     1     -20.209 -43.612  25.744  1.00  0.00    -0.297 N 
ATOM      9  C   UNL     1     -19.309 -42.571  25.929  1.00  0.00     0.063 C 
ATOM     10  C   UNL     1     -19.903 -41.575  26.608  1.00  0.00     0.033 C 
ATOM     11  C   UNL     1     -21.357 -41.925  26.877  1.00  0.00     0.165 C 
ATOM     12  H   UNL     1     -20.179 -43.970  24.786  1.00  0.00     0.188 HD
BRANCH   9  13
ATOM     13  C   UNL     1     -17.951 -42.599  25.377  1.00  0.00     0.038 A 
ATOM     14  C   UNL     1     -16.831 -42.618  26.221  1.00  0.00     0.052 A 
ATOM     15  C   UNL     1     -17.722 -42.630  23.990  1.00  0.00     0.132 A 
ATOM     16  C   UNL     1     -15.544 -42.656  25.684  1.00  0.00     0.124 A 
ATOM     17  C   UNL     1     -16.433 -42.667  23.457  1.00  0.00     0.043 A 
ATOM     18  C   UNL     1     -15.335 -42.680  24.311  1.00  0.00     0.042 A 
ATOM     19  F   UNL     1     -18.756 -42.609  23.131  1.00  0.00    -0.206 F 
ATOM     20  F   UNL     1     -14.489 -42.675  26.509  1.00  0.00    -0.207 F 
ENDBRANCH   9  13
BRANCH  11  21
ATOM     21  C   UNL     1     -22.316 -40.870  26.352  1.00  0.00     0.026 A 
ATOM     22  C   UNL     1     -23.030 -40.089  27.293  1.00  0.00     0.056 A 
ATOM     23  C   UNL     1     -22.518 -40.606  24.988  1.00  0.00     0.124 A 
ATOM     24  C   UNL     1     -23.919 -39.093  26.884  1.00  0.00     0.119 A 
ATOM     25  C   UNL     1     -23.388 -39.594  24.577  1.00  0.00     0.050 A 
ATOM     26  C   UNL     1     -24.092 -38.850  25.523  1.00  0.00     0.050 A 
BRANCH  23  27
ATOM     27  O   UNL     1     -21.793 -41.280  24.042  1.00  0.00    -0.496 OA
ATOM     28  C   UNL     1     -21.098 -40.377  23.182  1.00  0.00     0.278 C 
ENDBRANCH  23  27
BRANCH  24  29
ATOM     29  O   UNL     1     -24.662 -38.291  27.705  1.00  0.00    -0.497 OA
ATOM     30  C   UNL     1     -23.998 -37.704  28.817  1.00  0.00     0.278 C 
ENDBRANCH  24  29
ENDBRANCH  11  21
ENDBRANCH   1   7
BRANCH   4  31
ATOM     31  S   UNL     1     -25.431 -47.372  28.068  1.00  0.00     0.238 S 
ATOM     32  O   UNL     1     -26.767 -46.867  27.851  1.00  0.00    -0.207 OA
ATOM     33  O   UNL     1     -25.002 -48.668  27.595  1.00  0.00    -0.207 OA
BRANCH  31  34
ATOM     34  N   UNL     1     -25.145 -47.376  29.729  1.00  0.00    -0.225 NA
ATOM     35  H   UNL     1     -25.984 -47.200  30.280  1.00  0.00     0.137 HD
ATOM     36  H   UNL     1     -24.406 -46.702  29.935  1.00  0.00     0.137 HD
ENDBRANCH  31  34
ENDBRANCH   4  31
TORSDOF 7
ENDMDL
