MODEL 1
REMARK VINA RESULT:   -11.327      0.000      0.000
REMARK INTER + INTRA:         -15.786
REMARK INTER:                 -15.632
REMARK INTRA:                  -0.155
REMARK UNBOUND:                -0.155
REMARK SMILES COc1cc2c(cc1OC)C(O)=C(C[C@H]1CC[N@@H+](Cc3ccccc3)CC1)C2
REMARK SMILES IDX 14 1 13 2 11 3 6 4 28 5 7 6 5 7 8 8 4 9 3 10 12 11 9 13
REMARK SMILES IDX 10 14 2 15 1 16 15 17 27 18 16 19 26 20 17 21 18 22 19 24
REMARK SMILES IDX 20 25 21 26 25 27 22 28 24 29 23 30
REMARK H PARENT 12 12 18 23
ROOT
ATOM      1  C   UNL     1     -12.981 -43.868  27.265  1.00  0.00     0.039 C 
ENDROOT
BRANCH   1   2
ATOM      2  C   UNL     1     -14.216 -43.458  26.534  1.00  0.00    -0.023 C 
ATOM      3  C   UNL     1     -15.405 -43.146  27.073  1.00  0.00     0.122 C 
ATOM      4  C   UNL     1     -16.336 -42.780  26.016  1.00  0.00     0.024 A 
ATOM      5  C   UNL     1     -14.238 -43.311  25.026  1.00  0.00     0.071 C 
ATOM      6  C   UNL     1     -17.665 -42.406  26.048  1.00  0.00     0.062 A 
ATOM      7  C   UNL     1     -15.656 -42.873  24.795  1.00  0.00    -0.029 A 
ATOM      8  C   UNL     1     -18.314 -42.102  24.842  1.00  0.00     0.161 A 
ATOM      9  C   UNL     1     -16.287 -42.599  23.588  1.00  0.00     0.055 A 
ATOM     10  C   UNL     1     -17.638 -42.219  23.601  1.00  0.00     0.161 A 
BRANCH   3  11
ATOM     11  O   UNL     1     -15.736 -43.169  28.392  1.00  0.00    -0.507 OA
ATOM     12  H   UNL     1     -15.658 -44.094  28.692  1.00  0.00     0.293 HD
ENDBRANCH   3  11
BRANCH   8  13
ATOM     13  O   UNL     1     -19.634 -41.759  25.020  1.00  0.00    -0.493 OA
ATOM     14  C   UNL     1     -20.079 -41.666  26.369  1.00  0.00     0.278 C 
ENDBRANCH   8  13
BRANCH  10  15
ATOM     15  O   UNL     1     -18.365 -41.979  22.465  1.00  0.00    -0.493 OA
ATOM     16  C   UNL     1     -18.407 -40.650  21.961  1.00  0.00     0.278 C 
ENDBRANCH  10  15
ENDBRANCH   1   2
BRANCH   1  17
ATOM     17  C   UNL     1     -12.983 -45.347  27.712  1.00  0.00     0.004 C 
ATOM     18  C   UNL     1     -11.550 -45.838  27.974  1.00  0.00     0.065 C 
ATOM     19  C   UNL     1     -13.836 -45.617  28.962  1.00  0.00     0.065 C 
ATOM     20  C   UNL     1     -10.939 -45.265  29.250  1.00  0.00     0.262 C 
ATOM     21  C   UNL     1     -13.242 -44.995  30.217  1.00  0.00     0.262 C 
ATOM     22  N   UNL     1     -11.847 -45.535  30.426  1.00  0.00    -0.331 N 
ATOM     23  H   UNL     1     -11.919 -46.555  30.522  1.00  0.00     0.348 HD
BRANCH  22  24
ATOM     24  C   UNL     1     -11.267 -45.033  31.734  1.00  0.00     0.299 C 
BRANCH  24  25
ATOM     25  C   UNL     1      -9.764 -45.074  31.766  1.00  0.00     0.006 A 
ATOM     26  C   UNL     1      -9.074 -46.242  31.405  1.00  0.00     0.009 A 
ATOM     27  C   UNL     1      -9.028 -43.937  32.137  1.00  0.00     0.009 A 
ATOM     28  C   UNL     1      -7.678 -46.268  31.409  1.00  0.00     0.001 A 
ATOM     29  C   UNL     1      -7.632 -43.969  32.139  1.00  0.00     0.001 A 
ATOM     30  C   UNL     1      -6.959 -45.133  31.774  1.00  0.00     0.000 A 
ENDBRANCH  24  25
ENDBRANCH  22  24
ENDBRANCH   1  17
TORSDOF 7
ENDMDL
MODEL 2
REMARK VINA RESULT:   -11.252      0.971      2.323
REMARK INTER + INTRA:         -15.682
REMARK INTER:                 -15.432
REMARK INTRA:                  -0.249
REMARK UNBOUND:                -0.155
REMARK SMILES COc1cc2c(cc1OC)C(O)=C(C[C@H]1CC[N@@H+](Cc3ccccc3)CC1)C2
REMARK SMILES IDX 14 1 13 2 11 3 6 4 28 5 7 6 5 7 8 8 4 9 3 10 12 11 9 13
REMARK SMILES IDX 10 14 2 15 1 16 15 17 27 18 16 19 26 20 17 21 18 22 19 24
REMARK SMILES IDX 20 25 21 26 25 27 22 28 24 29 23 30
REMARK H PARENT 12 12 18 23
ROOT
ATOM      1  C   UNL     1     -13.165 -43.670  27.228  1.00  0.00     0.039 C 
ENDROOT
BRANCH   1   2
ATOM      2  C   UNL     1     -14.462 -43.264  26.613  1.00  0.00    -0.023 C 
ATOM      3  C   UNL     1     -14.705 -43.053  25.310  1.00  0.00     0.122 C 
ATOM      4  C   UNL     1     -16.103 -42.692  25.130  1.00  0.00     0.024 A 
ATOM      5  C   UNL     1     -15.714 -43.072  27.446  1.00  0.00     0.071 C 
ATOM      6  C   UNL     1     -16.831 -42.364  24.002  1.00  0.00     0.062 A 
ATOM      7  C   UNL     1     -16.714 -42.700  26.389  1.00  0.00    -0.029 A 
ATOM      8  C   UNL     1     -18.194 -42.058  24.140  1.00  0.00     0.161 A 
ATOM      9  C   UNL     1     -18.056 -42.379  26.549  1.00  0.00     0.055 A 
ATOM     10  C   UNL     1     -18.812 -42.041  25.416  1.00  0.00     0.161 A 
BRANCH   3  11
ATOM     11  O   UNL     1     -13.812 -43.137  24.288  1.00  0.00    -0.507 OA
ATOM     12  H   UNL     1     -14.114 -42.525  23.591  1.00  0.00     0.293 HD
ENDBRANCH   3  11
BRANCH   8  13
ATOM     13  O   UNL     1     -18.791 -41.738  22.943  1.00  0.00    -0.493 OA
ATOM     14  C   UNL     1     -18.094 -40.802  22.127  1.00  0.00     0.278 C 
ENDBRANCH   8  13
BRANCH  10  15
ATOM     15  O   UNL     1     -20.126 -41.658  25.473  1.00  0.00    -0.493 OA
ATOM     16  C   UNL     1     -20.657 -41.262  26.731  1.00  0.00     0.278 C 
ENDBRANCH  10  15
ENDBRANCH   1   2
BRANCH   1  17
ATOM     17  C   UNL     1     -13.134 -45.139  27.707  1.00  0.00     0.004 C 
ATOM     18  C   UNL     1     -11.688 -45.610  27.927  1.00  0.00     0.065 C 
ATOM     19  C   UNL     1     -13.939 -45.390  28.992  1.00  0.00     0.065 C 
ATOM     20  C   UNL     1     -11.037 -45.002  29.167  1.00  0.00     0.262 C 
ATOM     21  C   UNL     1     -13.307 -44.735  30.211  1.00  0.00     0.262 C 
ATOM     22  N   UNL     1     -11.899 -45.256  30.381  1.00  0.00    -0.331 N 
ATOM     23  H   UNL     1     -11.957 -46.273  30.502  1.00  0.00     0.348 HD
BRANCH  22  24
ATOM     24  C   UNL     1     -11.278 -44.719  31.656  1.00  0.00     0.299 C 
BRANCH  24  25
ATOM     25  C   UNL     1      -9.785 -44.903  31.707  1.00  0.00     0.006 A 
ATOM     26  C   UNL     1      -8.950 -43.846  32.099  1.00  0.00     0.009 A 
ATOM     27  C   UNL     1      -9.209 -46.141  31.380  1.00  0.00     0.009 A 
ATOM     28  C   UNL     1      -7.568 -44.027  32.171  1.00  0.00     0.001 A 
ATOM     29  C   UNL     1      -7.826 -46.316  31.454  1.00  0.00     0.001 A 
ATOM     30  C   UNL     1      -7.007 -45.262  31.851  1.00  0.00     0.000 A 
ENDBRANCH  24  25
ENDBRANCH  22  24
ENDBRANCH   1  17
TORSDOF 7
ENDMDL
MODEL 3
REMARK VINA RESULT:   -11.078      0.976      1.156
REMARK INTER + INTRA:         -15.441
REMARK INTER:                 -14.953
REMARK INTRA:                  -0.488
REMARK UNBOUND:                -0.155
REMARK SMILES COc1cc2c(cc1OC)C(O)=C(C[C@H]1CC[N@@H+](Cc3ccccc3)CC1)C2
REMARK SMILES IDX 14 1 13 2 11 3 6 4 28 5 7 6 5 7 8 8 4 9 3 10 12 11 9 13
REMARK SMILES IDX 10 14 2 15 1 16 15 17 27 18 16 19 26 20 17 21 18 22 19 24
REMARK SMILES IDX 20 25 21 26 25 27 22 28 24 29 23 30
REMARK H PARENT 12 12 18 23
ROOT
ATOM      1  C   UNL     1     -14.441 -43.870  28.119  1.00  0.00     0.039 C 
ENDROOT
BRANCH   1   2
ATOM      2  C   UNL     1     -15.463 -43.380  27.150  1.00  0.00    -0.023 C 
ATOM      3  C   UNL     1     -16.670 -42.870  27.440  1.00  0.00     0.122 C 
ATOM      4  C   UNL     1     -17.347 -42.493  26.209  1.00  0.00     0.024 A 
ATOM      5  C   UNL     1     -15.209 -43.378  25.655  1.00  0.00     0.071 C 
ATOM      6  C   UNL     1     -18.596 -41.952  25.973  1.00  0.00     0.062 A 
ATOM      7  C   UNL     1     -16.492 -42.789  25.141  1.00  0.00    -0.029 A 
ATOM      8  C   UNL     1     -18.983 -41.687  24.650  1.00  0.00     0.161 A 
ATOM      9  C   UNL     1     -16.864 -42.556  23.823  1.00  0.00     0.055 A 
ATOM     10  C   UNL     1     -18.130 -42.008  23.564  1.00  0.00     0.161 A 
BRANCH   3  11
ATOM     11  O   UNL     1     -17.219 -42.723  28.676  1.00  0.00    -0.507 OA
ATOM     12  H   UNL     1     -17.796 -43.494  28.827  1.00  0.00     0.293 HD
ENDBRANCH   3  11
BRANCH   8  13
ATOM     13  O   UNL     1     -20.251 -41.164  24.561  1.00  0.00    -0.493 OA
ATOM     14  C   UNL     1     -21.016 -41.170  25.762  1.00  0.00     0.278 C 
ENDBRANCH   8  13
BRANCH  10  15
ATOM     15  O   UNL     1     -18.613 -41.789  22.301  1.00  0.00    -0.493 OA
ATOM     16  C   UNL     1     -18.558 -40.468  21.778  1.00  0.00     0.278 C 
ENDBRANCH  10  15
ENDBRANCH   1   2
BRANCH   1  17
ATOM     17  C   UNL     1     -13.191 -44.485  27.450  1.00  0.00     0.004 C 
ATOM     18  C   UNL     1     -11.910 -43.805  27.960  1.00  0.00     0.065 C 
ATOM     19  C   UNL     1     -13.061 -46.003  27.654  1.00  0.00     0.065 C 
ATOM     20  C   UNL     1     -11.553 -44.187  29.393  1.00  0.00     0.262 C 
ATOM     21  C   UNL     1     -12.757 -46.372  29.098  1.00  0.00     0.262 C 
ATOM     22  N   UNL     1     -11.480 -45.690  29.527  1.00  0.00    -0.331 N 
ATOM     23  H   UNL     1     -10.731 -46.011  28.902  1.00  0.00     0.348 HD
BRANCH  22  24
ATOM     24  C   UNL     1     -11.077 -46.130  30.921  1.00  0.00     0.299 C 
BRANCH  24  25
ATOM     25  C   UNL     1      -9.794 -45.498  31.390  1.00  0.00     0.006 A 
ATOM     26  C   UNL     1      -8.556 -46.071  31.061  1.00  0.00     0.009 A 
ATOM     27  C   UNL     1      -9.817 -44.317  32.148  1.00  0.00     0.009 A 
ATOM     28  C   UNL     1      -7.367 -45.469  31.475  1.00  0.00     0.001 A 
ATOM     29  C   UNL     1      -8.624 -43.719  32.558  1.00  0.00     0.001 A 
ATOM     30  C   UNL     1      -7.402 -44.293  32.220  1.00  0.00     0.000 A 
ENDBRANCH  24  25
ENDBRANCH  22  24
ENDBRANCH   1  17
TORSDOF 7
ENDMDL
MODEL 4
REMARK VINA RESULT:   -10.435      3.296     10.260
REMARK INTER + INTRA:         -14.555
REMARK INTER:                 -14.240
REMARK INTRA:                  -0.315
REMARK UNBOUND:                -0.155
REMARK SMILES COc1cc2c(cc1OC)C(O)=C(C[C@H]1CC[N@@H+](Cc3ccccc3)CC1)C2
REMARK SMILES IDX 14 1 13 2 11 3 6 4 28 5 7 6 5 7 8 8 4 9 3 10 12 11 9 13
REMARK SMILES IDX 10 14 2 15 1 16 15 17 27 18 16 19 26 20 17 21 18 22 19 24
REMARK SMILES IDX 20 25 21 26 25 27 22 28 24 29 23 30
REMARK H PARENT 12 12 18 23
ROOT
ATOM      1  C   UNL     1     -14.171 -44.724  26.130  1.00  0.00     0.039 C 
ENDROOT
BRANCH   1   2
ATOM      2  C   UNL     1     -13.262 -44.911  27.299  1.00  0.00    -0.023 C 
ATOM      3  C   UNL     1     -12.436 -45.945  27.520  1.00  0.00     0.122 C 
ATOM      4  C   UNL     1     -11.710 -45.729  28.763  1.00  0.00     0.024 A 
ATOM      5  C   UNL     1     -13.151 -43.872  28.397  1.00  0.00     0.071 C 
ATOM      6  C   UNL     1     -10.774 -46.498  29.428  1.00  0.00     0.062 A 
ATOM      7  C   UNL     1     -12.125 -44.502  29.294  1.00  0.00    -0.029 A 
ATOM      8  C   UNL     1     -10.235 -46.019  30.632  1.00  0.00     0.161 A 
ATOM      9  C   UNL     1     -11.620 -44.021  30.495  1.00  0.00     0.055 A 
ATOM     10  C   UNL     1     -10.669 -44.789  31.186  1.00  0.00     0.161 A 
BRANCH   3  11
ATOM     11  O   UNL     1     -12.280 -47.048  26.740  1.00  0.00    -0.507 OA
ATOM     12  H   UNL     1     -11.868 -46.754  25.906  1.00  0.00     0.293 HD
ENDBRANCH   3  11
BRANCH   8  13
ATOM     13  O   UNL     1      -9.328 -46.888  31.191  1.00  0.00    -0.493 OA
ATOM     14  C   UNL     1      -7.979 -46.437  31.242  1.00  0.00     0.278 C 
ENDBRANCH   8  13
BRANCH  10  15
ATOM     15  O   UNL     1     -10.150 -44.430  32.403  1.00  0.00    -0.493 OA
ATOM     16  C   UNL     1     -10.426 -43.124  32.892  1.00  0.00     0.278 C 
ENDBRANCH  10  15
ENDBRANCH   1   2
BRANCH   1  17
ATOM     17  C   UNL     1     -14.188 -43.281  25.577  1.00  0.00     0.004 C 
ATOM     18  C   UNL     1     -14.560 -43.273  24.086  1.00  0.00     0.065 C 
ATOM     19  C   UNL     1     -15.141 -42.339  26.331  1.00  0.00     0.065 C 
ATOM     20  C   UNL     1     -16.032 -43.582  23.830  1.00  0.00     0.262 C 
ATOM     21  C   UNL     1     -16.604 -42.691  26.108  1.00  0.00     0.262 C 
ATOM     22  N   UNL     1     -16.905 -42.644  24.629  1.00  0.00    -0.331 N 
ATOM     23  H   UNL     1     -16.705 -41.693  24.300  1.00  0.00     0.348 HD
BRANCH  22  24
ATOM     24  C   UNL     1     -18.384 -42.869  24.375  1.00  0.00     0.299 C 
BRANCH  24  25
ATOM     25  C   UNL     1     -19.031 -41.737  23.625  1.00  0.00     0.006 A 
ATOM     26  C   UNL     1     -18.415 -41.189  22.489  1.00  0.00     0.009 A 
ATOM     27  C   UNL     1     -20.271 -41.225  24.040  1.00  0.00     0.009 A 
ATOM     28  C   UNL     1     -19.030 -40.157  21.780  1.00  0.00     0.001 A 
ATOM     29  C   UNL     1     -20.882 -40.192  23.326  1.00  0.00     0.001 A 
ATOM     30  C   UNL     1     -20.263 -39.661  22.197  1.00  0.00     0.000 A 
ENDBRANCH  24  25
ENDBRANCH  22  24
ENDBRANCH   1  17
TORSDOF 7
ENDMDL
MODEL 5
REMARK VINA RESULT:   -10.295      2.570      5.300
REMARK INTER + INTRA:         -14.362
REMARK INTER:                 -13.611
REMARK INTRA:                  -0.751
REMARK UNBOUND:                -0.155
REMARK SMILES COc1cc2c(cc1OC)C(O)=C(C[C@H]1CC[N@@H+](Cc3ccccc3)CC1)C2
REMARK SMILES IDX 14 1 13 2 11 3 6 4 28 5 7 6 5 7 8 8 4 9 3 10 12 11 9 13
REMARK SMILES IDX 10 14 2 15 1 16 15 17 27 18 16 19 26 20 17 21 18 22 19 24
REMARK SMILES IDX 20 25 21 26 25 27 22 28 24 29 23 30
REMARK H PARENT 12 12 18 23
ROOT
ATOM      1  C   UNL     1     -17.166 -43.040  24.745  1.00  0.00     0.039 C 
ENDROOT
BRANCH   1   2
ATOM      2  C   UNL     1     -18.215 -42.175  24.132  1.00  0.00    -0.023 C 
ATOM      3  C   UNL     1     -18.160 -41.565  22.938  1.00  0.00     0.122 C 
ATOM      4  C   UNL     1     -19.398 -40.835  22.709  1.00  0.00     0.024 A 
ATOM      5  C   UNL     1     -19.538 -41.913  24.825  1.00  0.00     0.071 C 
ATOM      6  C   UNL     1     -19.819 -40.044  21.658  1.00  0.00     0.062 A 
ATOM      7  C   UNL     1     -20.225 -41.033  23.821  1.00  0.00    -0.029 A 
ATOM      8  C   UNL     1     -21.094 -39.459  21.716  1.00  0.00     0.161 A 
ATOM      9  C   UNL     1     -21.481 -40.446  23.908  1.00  0.00     0.055 A 
ATOM     10  C   UNL     1     -21.926 -39.637  22.851  1.00  0.00     0.161 A 
BRANCH   3  11
ATOM     11  O   UNL     1     -17.126 -41.587  22.056  1.00  0.00    -0.507 OA
ATOM     12  H   UNL     1     -16.303 -41.628  22.578  1.00  0.00     0.293 HD
ENDBRANCH   3  11
BRANCH   8  13
ATOM     13  O   UNL     1     -21.377 -38.689  20.613  1.00  0.00    -0.493 OA
ATOM     14  C   UNL     1     -20.585 -38.939  19.456  1.00  0.00     0.278 C 
ENDBRANCH   8  13
BRANCH  10  15
ATOM     15  O   UNL     1     -23.123 -38.971  22.863  1.00  0.00    -0.493 OA
ATOM     16  C   UNL     1     -23.973 -39.137  23.990  1.00  0.00     0.278 C 
ENDBRANCH  10  15
ENDBRANCH   1   2
BRANCH   1  17
ATOM     17  C   UNL     1     -15.879 -42.279  25.138  1.00  0.00     0.004 C 
ATOM     18  C   UNL     1     -15.691 -42.278  26.663  1.00  0.00     0.065 C 
ATOM     19  C   UNL     1     -14.605 -42.833  24.481  1.00  0.00     0.065 C 
ATOM     20  C   UNL     1     -15.275 -43.635  27.221  1.00  0.00     0.262 C 
ATOM     21  C   UNL     1     -14.231 -44.210  25.009  1.00  0.00     0.262 C 
ATOM     22  N   UNL     1     -14.041 -44.133  26.506  1.00  0.00    -0.331 N 
ATOM     23  H   UNL     1     -13.292 -43.455  26.690  1.00  0.00     0.348 HD
BRANCH  22  24
ATOM     24  C   UNL     1     -13.547 -45.458  27.054  1.00  0.00     0.299 C 
BRANCH  24  25
ATOM     25  C   UNL     1     -12.247 -45.338  27.801  1.00  0.00     0.006 A 
ATOM     26  C   UNL     1     -11.788 -44.085  28.237  1.00  0.00     0.009 A 
ATOM     27  C   UNL     1     -11.483 -46.480  28.090  1.00  0.00     0.009 A 
ATOM     28  C   UNL     1     -10.594 -43.980  28.953  1.00  0.00     0.001 A 
ATOM     29  C   UNL     1     -10.290 -46.369  28.807  1.00  0.00     0.001 A 
ATOM     30  C   UNL     1      -9.848 -45.121  29.239  1.00  0.00     0.000 A 
ENDBRANCH  24  25
ENDBRANCH  22  24
ENDBRANCH   1  17
TORSDOF 7
ENDMDL
MODEL 6
REMARK VINA RESULT:   -10.100      2.804     10.082
REMARK INTER + INTRA:         -14.092
REMARK INTER:                 -13.569
REMARK INTRA:                  -0.523
REMARK UNBOUND:                -0.155
REMARK SMILES COc1cc2c(cc1OC)C(O)=C(C[C@H]1CC[N@@H+](Cc3ccccc3)CC1)C2
REMARK SMILES IDX 14 1 13 2 11 3 6 4 28 5 7 6 5 7 8 8 4 9 3 10 12 11 9 13
REMARK SMILES IDX 10 14 2 15 1 16 15 17 27 18 16 19 26 20 17 21 18 22 19 24
REMARK SMILES IDX 20 25 21 26 25 27 22 28 24 29 23 30
REMARK H PARENT 12 12 18 23
ROOT
ATOM      1  C   UNL     1     -14.230 -45.060  26.153  1.00  0.00     0.039 C 
ENDROOT
BRANCH   1   2
ATOM      2  C   UNL     1     -13.298 -45.218  27.307  1.00  0.00    -0.023 C 
ATOM      3  C   UNL     1     -13.417 -44.661  28.522  1.00  0.00     0.122 C 
ATOM      4  C   UNL     1     -12.308 -45.086  29.362  1.00  0.00     0.024 A 
ATOM      5  C   UNL     1     -12.071 -46.105  27.225  1.00  0.00     0.071 C 
ATOM      6  C   UNL     1     -11.971 -44.780  30.666  1.00  0.00     0.062 A 
ATOM      7  C   UNL     1     -11.501 -45.944  28.606  1.00  0.00    -0.029 A 
ATOM      8  C   UNL     1     -10.819 -45.357  31.223  1.00  0.00     0.161 A 
ATOM      9  C   UNL     1     -10.345 -46.508  29.131  1.00  0.00     0.055 A 
ATOM     10  C   UNL     1      -9.986 -46.207  30.454  1.00  0.00     0.161 A 
BRANCH   3  11
ATOM     11  O   UNL     1     -14.396 -43.814  28.940  1.00  0.00    -0.507 OA
ATOM     12  H   UNL     1     -14.039 -42.909  28.878  1.00  0.00     0.293 HD
ENDBRANCH   3  11
BRANCH   8  13
ATOM     13  O   UNL     1     -10.597 -44.956  32.520  1.00  0.00    -0.493 OA
ATOM     14  C   UNL     1     -10.429 -43.557  32.721  1.00  0.00     0.278 C 
ENDBRANCH   8  13
BRANCH  10  15
ATOM     15  O   UNL     1      -8.839 -46.667  31.047  1.00  0.00    -0.493 OA
ATOM     16  C   UNL     1      -7.686 -45.836  31.017  1.00  0.00     0.278 C 
ENDBRANCH  10  15
ENDBRANCH   1   2
BRANCH   1  17
ATOM     17  C   UNL     1     -14.101 -43.701  25.428  1.00  0.00     0.004 C 
ATOM     18  C   UNL     1     -14.621 -43.802  23.985  1.00  0.00     0.065 C 
ATOM     19  C   UNL     1     -14.828 -42.548  26.138  1.00  0.00     0.065 C 
ATOM     20  C   UNL     1     -16.140 -43.910  23.897  1.00  0.00     0.262 C 
ATOM     21  C   UNL     1     -16.341 -42.695  26.087  1.00  0.00     0.262 C 
ATOM     22  N   UNL     1     -16.785 -42.767  24.645  1.00  0.00    -0.331 N 
ATOM     23  H   UNL     1     -16.487 -41.900  24.184  1.00  0.00     0.348 HD
BRANCH  22  24
ATOM     24  C   UNL     1     -18.299 -42.792  24.549  1.00  0.00     0.299 C 
BRANCH  24  25
ATOM     25  C   UNL     1     -18.849 -41.718  23.650  1.00  0.00     0.006 A 
ATOM     26  C   UNL     1     -18.116 -41.275  22.538  1.00  0.00     0.009 A 
ATOM     27  C   UNL     1     -20.112 -41.158  23.899  1.00  0.00     0.009 A 
ATOM     28  C   UNL     1     -18.640 -40.298  21.690  1.00  0.00     0.001 A 
ATOM     29  C   UNL     1     -20.631 -40.181  23.048  1.00  0.00     0.001 A 
ATOM     30  C   UNL     1     -19.897 -39.754  21.944  1.00  0.00     0.000 A 
ENDBRANCH  24  25
ENDBRANCH  22  24
ENDBRANCH   1  17
TORSDOF 7
ENDMDL
MODEL 7
REMARK VINA RESULT:    -9.993      2.427      4.766
REMARK INTER + INTRA:         -13.945
REMARK INTER:                 -13.230
REMARK INTRA:                  -0.715
REMARK UNBOUND:                -0.155
REMARK SMILES COc1cc2c(cc1OC)C(O)=C(C[C@H]1CC[N@@H+](Cc3ccccc3)CC1)C2
REMARK SMILES IDX 14 1 13 2 11 3 6 4 28 5 7 6 5 7 8 8 4 9 3 10 12 11 9 13
REMARK SMILES IDX 10 14 2 15 1 16 15 17 27 18 16 19 26 20 17 21 18 22 19 24
REMARK SMILES IDX 20 25 21 26 25 27 22 28 24 29 23 30
REMARK H PARENT 12 12 18 23
ROOT
ATOM      1  C   UNL     1     -17.058 -43.096  24.836  1.00  0.00     0.039 C 
ENDROOT
BRANCH   1   2
ATOM      2  C   UNL     1     -18.062 -42.238  24.140  1.00  0.00    -0.023 C 
ATOM      3  C   UNL     1     -19.277 -41.892  24.592  1.00  0.00     0.122 C 
ATOM      4  C   UNL     1     -19.929 -41.029  23.618  1.00  0.00     0.024 A 
ATOM      5  C   UNL     1     -17.774 -41.609  22.791  1.00  0.00     0.071 C 
ATOM      6  C   UNL     1     -21.175 -40.433  23.604  1.00  0.00     0.062 A 
ATOM      7  C   UNL     1     -19.048 -40.852  22.544  1.00  0.00    -0.029 A 
ATOM      8  C   UNL     1     -21.533 -39.635  22.507  1.00  0.00     0.161 A 
ATOM      9  C   UNL     1     -19.392 -40.085  21.439  1.00  0.00     0.055 A 
ATOM     10  C   UNL     1     -20.655 -39.472  21.407  1.00  0.00     0.161 A 
BRANCH   3  11
ATOM     11  O   UNL     1     -19.854 -42.276  25.761  1.00  0.00    -0.507 OA
ATOM     12  H   UNL     1     -20.257 -43.151  25.610  1.00  0.00     0.293 HD
ENDBRANCH   3  11
BRANCH   8  13
ATOM     13  O   UNL     1     -22.802 -39.116  22.618  1.00  0.00    -0.493 OA
ATOM     14  C   UNL     1     -23.573 -39.580  23.722  1.00  0.00     0.278 C 
ENDBRANCH   8  13
BRANCH  10  15
ATOM     15  O   UNL     1     -21.110 -38.740  20.342  1.00  0.00    -0.493 OA
ATOM     16  C   UNL     1     -21.673 -39.438  19.238  1.00  0.00     0.278 C 
ENDBRANCH  10  15
ENDBRANCH   1   2
BRANCH   1  17
ATOM     17  C   UNL     1     -15.669 -42.436  24.984  1.00  0.00     0.004 C 
ATOM     18  C   UNL     1     -15.316 -42.235  26.466  1.00  0.00     0.065 C 
ATOM     19  C   UNL     1     -14.534 -43.221  24.306  1.00  0.00     0.065 C 
ATOM     20  C   UNL     1     -14.976 -43.535  27.188  1.00  0.00     0.262 C 
ATOM     21  C   UNL     1     -14.241 -44.540  25.005  1.00  0.00     0.262 C 
ATOM     22  N   UNL     1     -13.882 -44.268  26.447  1.00  0.00    -0.331 N 
ATOM     23  H   UNL     1     -13.055 -43.660  26.453  1.00  0.00     0.348 HD
BRANCH  22  24
ATOM     24  C   UNL     1     -13.464 -45.547  27.147  1.00  0.00     0.299 C 
BRANCH  24  25
ATOM     25  C   UNL     1     -12.152 -45.418  27.873  1.00  0.00     0.006 A 
ATOM     26  C   UNL     1     -11.679 -44.159  28.274  1.00  0.00     0.009 A 
ATOM     27  C   UNL     1     -11.392 -46.558  28.178  1.00  0.00     0.009 A 
ATOM     28  C   UNL     1     -10.475 -44.045  28.971  1.00  0.00     0.001 A 
ATOM     29  C   UNL     1     -10.188 -46.438  28.876  1.00  0.00     0.001 A 
ATOM     30  C   UNL     1      -9.733 -45.184  29.273  1.00  0.00     0.000 A 
ENDBRANCH  24  25
ENDBRANCH  22  24
ENDBRANCH   1  17
TORSDOF 7
ENDMDL
MODEL 8
REMARK VINA RESULT:    -9.986      3.398     10.817
REMARK INTER + INTRA:         -13.935
REMARK INTER:                 -13.109
REMARK INTRA:                  -0.826
REMARK UNBOUND:                -0.155
REMARK SMILES COc1cc2c(cc1OC)C(O)=C(C[C@H]1CC[N@@H+](Cc3ccccc3)CC1)C2
REMARK SMILES IDX 14 1 13 2 11 3 6 4 28 5 7 6 5 7 8 8 4 9 3 10 12 11 9 13
REMARK SMILES IDX 10 14 2 15 1 16 15 17 27 18 16 19 26 20 17 21 18 22 19 24
REMARK SMILES IDX 20 25 21 26 25 27 22 28 24 29 23 30
REMARK H PARENT 12 12 18 23
ROOT
ATOM      1  C   UNL     1     -16.433 -42.290  25.060  1.00  0.00     0.039 C 
ENDROOT
BRANCH   1   2
ATOM      2  C   UNL     1     -15.642 -43.069  26.056  1.00  0.00    -0.023 C 
ATOM      3  C   UNL     1     -15.790 -43.059  27.389  1.00  0.00     0.122 C 
ATOM      4  C   UNL     1     -14.834 -43.976  27.991  1.00  0.00     0.024 A 
ATOM      5  C   UNL     1     -14.551 -44.032  25.629  1.00  0.00     0.071 C 
ATOM      6  C   UNL     1     -14.576 -44.304  29.308  1.00  0.00     0.062 A 
ATOM      7  C   UNL     1     -14.092 -44.561  26.958  1.00  0.00    -0.029 A 
ATOM      8  C   UNL     1     -13.573 -45.245  29.590  1.00  0.00     0.161 A 
ATOM      9  C   UNL     1     -13.080 -45.477  27.217  1.00  0.00     0.055 A 
ATOM     10  C   UNL     1     -12.803 -45.821  28.549  1.00  0.00     0.161 A 
BRANCH   3  11
ATOM     11  O   UNL     1     -16.673 -42.314  28.108  1.00  0.00    -0.507 OA
ATOM     12  H   UNL     1     -17.459 -42.180  27.547  1.00  0.00     0.293 HD
ENDBRANCH   3  11
BRANCH   8  13
ATOM     13  O   UNL     1     -13.415 -45.466  30.937  1.00  0.00    -0.493 OA
ATOM     14  C   UNL     1     -13.585 -44.332  31.782  1.00  0.00     0.278 C 
ENDBRANCH   8  13
BRANCH  10  15
ATOM     15  O   UNL     1     -11.792 -46.672  28.913  1.00  0.00    -0.493 OA
ATOM     16  C   UNL     1     -10.472 -46.373  28.478  1.00  0.00     0.278 C 
ENDBRANCH  10  15
ENDBRANCH   1   2
BRANCH   1  17
ATOM     17  C   UNL     1     -17.465 -43.137  24.282  1.00  0.00     0.004 C 
ATOM     18  C   UNL     1     -18.834 -43.105  24.980  1.00  0.00     0.065 C 
ATOM     19  C   UNL     1     -17.646 -42.705  22.818  1.00  0.00     0.065 C 
ATOM     20  C   UNL     1     -19.554 -41.768  24.837  1.00  0.00     0.262 C 
ATOM     21  C   UNL     1     -18.318 -41.346  22.691  1.00  0.00     0.262 C 
ATOM     22  N   UNL     1     -19.662 -41.391  23.378  1.00  0.00    -0.331 N 
ATOM     23  H   UNL     1     -20.221 -42.119  22.920  1.00  0.00     0.348 HD
BRANCH  22  24
ATOM     24  C   UNL     1     -20.417 -40.092  23.169  1.00  0.00     0.299 C 
BRANCH  24  25
ATOM     25  C   UNL     1     -20.806 -39.862  21.734  1.00  0.00     0.006 A 
ATOM     26  C   UNL     1     -20.335 -38.737  21.039  1.00  0.00     0.009 A 
ATOM     27  C   UNL     1     -21.630 -40.780  21.063  1.00  0.00     0.009 A 
ATOM     28  C   UNL     1     -20.676 -38.540  19.700  1.00  0.00     0.001 A 
ATOM     29  C   UNL     1     -21.967 -40.578  19.724  1.00  0.00     0.001 A 
ATOM     30  C   UNL     1     -21.489 -39.461  19.043  1.00  0.00     0.000 A 
ENDBRANCH  24  25
ENDBRANCH  22  24
ENDBRANCH   1  17
TORSDOF 7
ENDMDL
MODEL 9
REMARK VINA RESULT:    -9.619      3.434     11.053
REMARK INTER + INTRA:         -13.429
REMARK INTER:                 -12.605
REMARK INTRA:                  -0.823
REMARK UNBOUND:                -0.155
REMARK SMILES COc1cc2c(cc1OC)C(O)=C(C[C@H]1CC[N@@H+](Cc3ccccc3)CC1)C2
REMARK SMILES IDX 14 1 13 2 11 3 6 4 28 5 7 6 5 7 8 8 4 9 3 10 12 11 9 13
REMARK SMILES IDX 10 14 2 15 1 16 15 17 27 18 16 19 26 20 17 21 18 22 19 24
REMARK SMILES IDX 20 25 21 26 25 27 22 28 24 29 23 30
REMARK H PARENT 12 12 18 23
ROOT
ATOM      1  C   UNL     1     -16.524 -42.287  24.992  1.00  0.00     0.039 C 
ENDROOT
BRANCH   1   2
ATOM      2  C   UNL     1     -15.729 -43.077  25.976  1.00  0.00    -0.023 C 
ATOM      3  C   UNL     1     -14.745 -43.948  25.704  1.00  0.00     0.122 C 
ATOM      4  C   UNL     1     -14.216 -44.487  26.948  1.00  0.00     0.024 A 
ATOM      5  C   UNL     1     -15.946 -42.939  27.471  1.00  0.00     0.071 C 
ATOM      6  C   UNL     1     -13.226 -45.416  27.201  1.00  0.00     0.062 A 
ATOM      7  C   UNL     1     -14.919 -43.897  28.004  1.00  0.00    -0.029 A 
ATOM      8  C   UNL     1     -12.925 -45.743  28.532  1.00  0.00     0.161 A 
ATOM      9  C   UNL     1     -14.653 -44.223  29.328  1.00  0.00     0.055 A 
ATOM     10  C   UNL     1     -13.651 -45.166  29.605  1.00  0.00     0.161 A 
BRANCH   3  11
ATOM     11  O   UNL     1     -14.291 -44.309  24.474  1.00  0.00    -0.507 OA
ATOM     12  H   UNL     1     -13.778 -45.131  24.587  1.00  0.00     0.293 HD
ENDBRANCH   3  11
BRANCH   8  13
ATOM     13  O   UNL     1     -11.932 -46.687  28.637  1.00  0.00    -0.493 OA
ATOM     14  C   UNL     1     -10.610 -46.238  28.359  1.00  0.00     0.278 C 
ENDBRANCH   8  13
BRANCH  10  15
ATOM     15  O   UNL     1     -13.349 -45.596  30.870  1.00  0.00    -0.493 OA
ATOM     16  C   UNL     1     -12.341 -44.901  31.593  1.00  0.00     0.278 C 
ENDBRANCH  10  15
ENDBRANCH   1   2
BRANCH   1  17
ATOM     17  C   UNL     1     -17.566 -43.123  24.216  1.00  0.00     0.004 C 
ATOM     18  C   UNL     1     -18.932 -43.081  24.920  1.00  0.00     0.065 C 
ATOM     19  C   UNL     1     -17.749 -42.685  22.754  1.00  0.00     0.065 C 
ATOM     20  C   UNL     1     -19.641 -41.737  24.784  1.00  0.00     0.262 C 
ATOM     21  C   UNL     1     -18.410 -41.320  22.633  1.00  0.00     0.262 C 
ATOM     22  N   UNL     1     -19.752 -41.356  23.326  1.00  0.00    -0.331 N 
ATOM     23  H   UNL     1     -20.320 -42.078  22.868  1.00  0.00     0.348 HD
BRANCH  22  24
ATOM     24  C   UNL     1     -20.496 -40.050  23.123  1.00  0.00     0.299 C 
BRANCH  24  25
ATOM     25  C   UNL     1     -20.916 -39.827  21.696  1.00  0.00     0.006 A 
ATOM     26  C   UNL     1     -20.505 -38.677  21.003  1.00  0.00     0.009 A 
ATOM     27  C   UNL     1     -21.709 -40.775  21.030  1.00  0.00     0.009 A 
ATOM     28  C   UNL     1     -20.873 -38.486  19.670  1.00  0.00     0.001 A 
ATOM     29  C   UNL     1     -22.074 -40.579  19.697  1.00  0.00     0.001 A 
ATOM     30  C   UNL     1     -21.655 -39.437  19.019  1.00  0.00     0.000 A 
ENDBRANCH  24  25
ENDBRANCH  22  24
ENDBRANCH   1  17
TORSDOF 7
ENDMDL
