MODEL 1
REMARK VINA RESULT:   -11.946      0.000      0.000
REMARK INTER + INTRA:         -16.724
REMARK INTER:                 -16.136
REMARK INTRA:                  -0.589
REMARK UNBOUND:                -0.589
REMARK SMILES COc1cc2c(cc1OC)C(=O)/C(=C/c1cc[n+](Cc3ccccc3)cc1)C2
REMARK SMILES IDX 14 1 13 2 3 3 4 4 8 5 5 6 7 7 6 8 28 9 11 10 12 11 2 12 1 13
REMARK SMILES IDX 9 14 10 15 15 16 16 17 27 18 17 19 26 20 18 21 19 22 20 23
REMARK SMILES IDX 21 24 25 25 22 26 24 27 23 28
REMARK H PARENT
ROOT
ATOM      1  C   UNL     1     -13.584 -44.141  26.337  1.00  0.00     0.016 C 
ENDROOT
BRANCH   1   2
ATOM      2  C   UNL     1     -14.798 -43.650  26.056  1.00  0.00     0.005 C 
ATOM      3  C   UNL     1     -19.033 -41.778  25.192  1.00  0.00     0.161 A 
ATOM      4  C   UNL     1     -18.183 -42.102  26.261  1.00  0.00     0.055 A 
ATOM      5  C   UNL     1     -18.638 -42.039  23.849  1.00  0.00     0.161 A 
ATOM      6  C   UNL     1     -16.954 -42.679  25.981  1.00  0.00    -0.028 A 
ATOM      7  C   UNL     1     -17.395 -42.620  23.581  1.00  0.00     0.063 A 
ATOM      8  C   UNL     1     -16.586 -42.925  24.660  1.00  0.00     0.030 A 
ATOM      9  C   UNL     1     -15.891 -43.111  26.946  1.00  0.00     0.076 C 
ATOM     10  C   UNL     1     -15.252 -43.531  24.634  1.00  0.00     0.189 C 
ATOM     11  O   UNL     1     -14.632 -43.869  23.648  1.00  0.00    -0.289 OA
BRANCH   3  12
ATOM     12  O   UNL     1     -20.273 -41.205  25.342  1.00  0.00    -0.493 OA
ATOM     13  C   UNL     1     -20.841 -41.170  26.642  1.00  0.00     0.278 C 
ENDBRANCH   3  12
BRANCH   5  14
ATOM     14  O   UNL     1     -19.545 -41.684  22.881  1.00  0.00    -0.493 OA
ATOM     15  C   UNL     1     -19.191 -40.630  21.996  1.00  0.00     0.278 C 
ENDBRANCH   5  14
ENDBRANCH   1   2
BRANCH   1  16
ATOM     16  C   UNL     1     -13.037 -44.302  27.682  1.00  0.00    -0.013 A 
ATOM     17  C   UNL     1     -11.873 -43.650  28.080  1.00  0.00     0.079 A 
ATOM     18  C   UNL     1     -13.723 -45.082  28.609  1.00  0.00     0.079 A 
ATOM     19  C   UNL     1     -11.416 -43.799  29.385  1.00  0.00     0.309 A 
ATOM     20  C   UNL     1     -13.227 -45.205  29.902  1.00  0.00     0.309 A 
ATOM     21  N   UNL     1     -12.089 -44.570  30.269  1.00  0.00    -0.201 N 
BRANCH  21  22
ATOM     22  C   UNL     1     -11.591 -44.709  31.662  1.00  0.00     0.393 C 
BRANCH  22  23
ATOM     23  C   UNL     1     -10.111 -44.987  31.676  1.00  0.00     0.017 A 
ATOM     24  C   UNL     1      -9.610 -46.224  31.241  1.00  0.00     0.010 A 
ATOM     25  C   UNL     1      -9.209 -44.012  32.129  1.00  0.00     0.010 A 
ATOM     26  C   UNL     1      -8.237 -46.481  31.272  1.00  0.00     0.001 A 
ATOM     27  C   UNL     1      -7.839 -44.273  32.159  1.00  0.00     0.001 A 
ATOM     28  C   UNL     1      -7.355 -45.507  31.732  1.00  0.00     0.000 A 
ENDBRANCH  22  23
ENDBRANCH  21  22
ENDBRANCH   1  16
TORSDOF 6
ENDMDL
MODEL 2
REMARK VINA RESULT:   -11.121      0.892      1.221
REMARK INTER + INTRA:         -15.610
REMARK INTER:                 -15.140
REMARK INTRA:                  -0.470
REMARK UNBOUND:                -0.589
REMARK SMILES COc1cc2c(cc1OC)C(=O)/C(=C/c1cc[n+](Cc3ccccc3)cc1)C2
REMARK SMILES IDX 14 1 13 2 3 3 4 4 8 5 5 6 7 7 6 8 28 9 11 10 12 11 2 12 1 13
REMARK SMILES IDX 9 14 10 15 15 16 16 17 27 18 17 19 26 20 18 21 19 22 20 23
REMARK SMILES IDX 21 24 25 25 22 26 24 27 23 28
REMARK H PARENT
ROOT
ATOM      1  C   UNL     1     -13.620 -43.148  26.158  1.00  0.00     0.016 C 
ENDROOT
BRANCH   1   2
ATOM      2  C   UNL     1     -14.932 -42.974  25.949  1.00  0.00     0.005 C 
ATOM      3  C   UNL     1     -19.537 -42.205  25.326  1.00  0.00     0.161 A 
ATOM      4  C   UNL     1     -18.564 -42.231  26.338  1.00  0.00     0.055 A 
ATOM      5  C   UNL     1     -19.183 -42.483  23.975  1.00  0.00     0.161 A 
ATOM      6  C   UNL     1     -17.255 -42.533  25.993  1.00  0.00    -0.028 A 
ATOM      7  C   UNL     1     -17.859 -42.785  23.642  1.00  0.00     0.063 A 
ATOM      8  C   UNL     1     -16.930 -42.801  24.666  1.00  0.00     0.030 A 
ATOM      9  C   UNL     1     -16.058 -42.624  26.891  1.00  0.00     0.076 C 
ATOM     10  C   UNL     1     -15.497 -43.086  24.567  1.00  0.00     0.189 C 
ATOM     11  O   UNL     1     -14.882 -43.357  23.557  1.00  0.00    -0.289 OA
BRANCH   3  12
ATOM     12  O   UNL     1     -20.864 -41.920  25.542  1.00  0.00    -0.493 OA
ATOM     13  C   UNL     1     -21.566 -42.694  26.503  1.00  0.00     0.278 C 
ENDBRANCH   3  12
BRANCH   5  14
ATOM     14  O   UNL     1     -20.212 -42.431  23.067  1.00  0.00    -0.493 OA
ATOM     15  C   UNL     1     -20.076 -41.548  21.962  1.00  0.00     0.278 C 
ENDBRANCH   5  14
ENDBRANCH   1   2
BRANCH   1  16
ATOM     16  C   UNL     1     -13.041 -43.873  27.287  1.00  0.00    -0.013 A 
ATOM     17  C   UNL     1     -11.754 -43.604  27.745  1.00  0.00     0.079 A 
ATOM     18  C   UNL     1     -13.811 -44.818  27.959  1.00  0.00     0.079 A 
ATOM     19  C   UNL     1     -11.263 -44.289  28.851  1.00  0.00     0.309 A 
ATOM     20  C   UNL     1     -13.278 -45.481  29.058  1.00  0.00     0.309 A 
ATOM     21  N   UNL     1     -12.022 -45.213  29.484  1.00  0.00    -0.201 N 
BRANCH  21  22
ATOM     22  C   UNL     1     -11.484 -45.926  30.671  1.00  0.00     0.393 C 
BRANCH  22  23
ATOM     23  C   UNL     1     -10.557 -45.036  31.457  1.00  0.00     0.017 A 
ATOM     24  C   UNL     1      -9.176 -45.285  31.485  1.00  0.00     0.010 A 
ATOM     25  C   UNL     1     -11.065 -43.945  32.179  1.00  0.00     0.010 A 
ATOM     26  C   UNL     1      -8.325 -44.464  32.229  1.00  0.00     0.001 A 
ATOM     27  C   UNL     1     -10.211 -43.128  32.921  1.00  0.00     0.001 A 
ATOM     28  C   UNL     1      -8.844 -43.390  32.947  1.00  0.00     0.000 A 
ENDBRANCH  22  23
ENDBRANCH  21  22
ENDBRANCH   1  16
TORSDOF 6
ENDMDL
MODEL 3
REMARK VINA RESULT:   -10.655      1.191      2.423
REMARK INTER + INTRA:         -14.981
REMARK INTER:                 -15.100
REMARK INTRA:                   0.119
REMARK UNBOUND:                -0.589
REMARK SMILES COc1cc2c(cc1OC)C(=O)/C(=C/c1cc[n+](Cc3ccccc3)cc1)C2
REMARK SMILES IDX 14 1 13 2 3 3 4 4 8 5 5 6 7 7 6 8 28 9 11 10 12 11 2 12 1 13
REMARK SMILES IDX 9 14 10 15 15 16 16 17 27 18 17 19 26 20 18 21 19 22 20 23
REMARK SMILES IDX 21 24 25 25 22 26 24 27 23 28
REMARK H PARENT
ROOT
ATOM      1  C   UNL     1     -13.468 -43.098  25.931  1.00  0.00     0.016 C 
ENDROOT
BRANCH   1   2
ATOM      2  C   UNL     1     -14.730 -42.929  25.515  1.00  0.00     0.005 C 
ATOM      3  C   UNL     1     -19.149 -42.492  23.943  1.00  0.00     0.161 A 
ATOM      4  C   UNL     1     -17.848 -42.744  23.480  1.00  0.00     0.055 A 
ATOM      5  C   UNL     1     -19.392 -42.267  25.329  1.00  0.00     0.161 A 
ATOM      6  C   UNL     1     -16.809 -42.771  24.398  1.00  0.00    -0.028 A 
ATOM      7  C   UNL     1     -18.336 -42.298  26.243  1.00  0.00     0.063 A 
ATOM      8  C   UNL     1     -17.069 -42.550  25.749  1.00  0.00     0.030 A 
ATOM      9  C   UNL     1     -15.352 -43.014  24.143  1.00  0.00     0.076 C 
ATOM     10  C   UNL     1     -15.816 -42.633  26.502  1.00  0.00     0.189 C 
ATOM     11  O   UNL     1     -15.683 -42.492  27.700  1.00  0.00    -0.289 OA
BRANCH   3  12
ATOM     12  O   UNL     1     -20.258 -42.440  23.133  1.00  0.00    -0.493 OA
ATOM     13  C   UNL     1     -20.417 -41.309  22.290  1.00  0.00     0.278 C 
ENDBRANCH   3  12
BRANCH   5  14
ATOM     14  O   UNL     1     -20.700 -42.029  25.672  1.00  0.00    -0.493 OA
ATOM     15  C   UNL     1     -20.950 -41.145  26.757  1.00  0.00     0.278 C 
ENDBRANCH   5  14
ENDBRANCH   1   2
BRANCH   1  16
ATOM     16  C   UNL     1     -13.070 -43.879  27.100  1.00  0.00    -0.013 A 
ATOM     17  C   UNL     1     -13.710 -45.070  27.435  1.00  0.00     0.079 A 
ATOM     18  C   UNL     1     -11.990 -43.455  27.869  1.00  0.00     0.079 A 
ATOM     19  C   UNL     1     -13.266 -45.801  28.531  1.00  0.00     0.309 A 
ATOM     20  C   UNL     1     -11.583 -44.217  28.958  1.00  0.00     0.309 A 
ATOM     21  N   UNL     1     -12.222 -45.368  29.274  1.00  0.00    -0.201 N 
BRANCH  21  22
ATOM     22  C   UNL     1     -11.756 -46.169  30.435  1.00  0.00     0.393 C 
BRANCH  22  23
ATOM     23  C   UNL     1     -10.620 -45.476  31.142  1.00  0.00     0.017 A 
ATOM     24  C   UNL     1      -9.312 -45.979  31.062  1.00  0.00     0.010 A 
ATOM     25  C   UNL     1     -10.856 -44.316  31.897  1.00  0.00     0.010 A 
ATOM     26  C   UNL     1      -8.267 -45.341  31.733  1.00  0.00     0.001 A 
ATOM     27  C   UNL     1      -9.808 -43.682  32.566  1.00  0.00     0.001 A 
ATOM     28  C   UNL     1      -8.517 -44.195  32.485  1.00  0.00     0.000 A 
ENDBRANCH  22  23
ENDBRANCH  21  22
ENDBRANCH   1  16
TORSDOF 6
ENDMDL
MODEL 4
REMARK VINA RESULT:   -10.436      3.657     10.107
REMARK INTER + INTRA:         -14.685
REMARK INTER:                 -14.076
REMARK INTRA:                  -0.609
REMARK UNBOUND:                -0.589
REMARK SMILES COc1cc2c(cc1OC)C(=O)/C(=C/c1cc[n+](Cc3ccccc3)cc1)C2
REMARK SMILES IDX 14 1 13 2 3 3 4 4 8 5 5 6 7 7 6 8 28 9 11 10 12 11 2 12 1 13
REMARK SMILES IDX 9 14 10 15 15 16 16 17 27 18 17 19 26 20 18 21 19 22 20 23
REMARK SMILES IDX 21 24 25 25 22 26 24 27 23 28
REMARK H PARENT
ROOT
ATOM      1  C   UNL     1     -13.255 -45.404  27.607  1.00  0.00     0.016 C 
ENDROOT
BRANCH   1   2
ATOM      2  C   UNL     1     -12.372 -45.003  28.532  1.00  0.00     0.005 C 
ATOM      3  C   UNL     1      -9.199 -43.470  31.657  1.00  0.00     0.161 A 
ATOM      4  C   UNL     1      -9.303 -43.864  30.314  1.00  0.00     0.055 A 
ATOM      5  C   UNL     1     -10.345 -43.479  32.504  1.00  0.00     0.161 A 
ATOM      6  C   UNL     1     -10.541 -44.261  29.831  1.00  0.00    -0.028 A 
ATOM      7  C   UNL     1     -11.587 -43.881  32.003  1.00  0.00     0.063 A 
ATOM      8  C   UNL     1     -11.649 -44.262  30.676  1.00  0.00     0.030 A 
ATOM      9  C   UNL     1     -10.892 -44.723  28.449  1.00  0.00     0.076 C 
ATOM     10  C   UNL     1     -12.825 -44.715  29.930  1.00  0.00     0.189 C 
ATOM     11  O   UNL     1     -13.953 -44.833  30.362  1.00  0.00    -0.289 OA
BRANCH   3  12
ATOM     12  O   UNL     1      -8.030 -43.058  32.250  1.00  0.00    -0.493 OA
ATOM     13  C   UNL     1      -7.028 -44.031  32.501  1.00  0.00     0.278 C 
ENDBRANCH   3  12
BRANCH   5  14
ATOM     14  O   UNL     1     -10.132 -43.076  33.799  1.00  0.00    -0.493 OA
ATOM     15  C   UNL     1     -10.814 -41.915  34.253  1.00  0.00     0.278 C 
ENDBRANCH   5  14
ENDBRANCH   1   2
BRANCH   1  16
ATOM     16  C   UNL     1     -13.826 -44.547  26.570  1.00  0.00    -0.013 A 
ATOM     17  C   UNL     1     -14.170 -45.048  25.317  1.00  0.00     0.079 A 
ATOM     18  C   UNL     1     -14.086 -43.210  26.855  1.00  0.00     0.079 A 
ATOM     19  C   UNL     1     -14.752 -44.204  24.378  1.00  0.00     0.309 A 
ATOM     20  C   UNL     1     -14.666 -42.402  25.884  1.00  0.00     0.309 A 
ATOM     21  N   UNL     1     -14.987 -42.904  24.669  1.00  0.00    -0.201 N 
BRANCH  21  22
ATOM     22  C   UNL     1     -15.620 -42.021  23.656  1.00  0.00     0.393 C 
BRANCH  22  23
ATOM     23  C   UNL     1     -17.121 -42.053  23.779  1.00  0.00     0.017 A 
ATOM     24  C   UNL     1     -17.735 -42.560  24.936  1.00  0.00     0.010 A 
ATOM     25  C   UNL     1     -17.929 -41.579  22.735  1.00  0.00     0.010 A 
ATOM     26  C   UNL     1     -19.127 -42.601  25.036  1.00  0.00     0.001 A 
ATOM     27  C   UNL     1     -19.320 -41.622  22.840  1.00  0.00     0.001 A 
ATOM     28  C   UNL     1     -19.917 -42.135  23.988  1.00  0.00     0.000 A 
ENDBRANCH  22  23
ENDBRANCH  21  22
ENDBRANCH   1  16
TORSDOF 6
ENDMDL
MODEL 5
REMARK VINA RESULT:   -10.330      2.593      4.203
REMARK INTER + INTRA:         -14.543
REMARK INTER:                 -13.976
REMARK INTRA:                  -0.566
REMARK UNBOUND:                -0.589
REMARK SMILES COc1cc2c(cc1OC)C(=O)/C(=C/c1cc[n+](Cc3ccccc3)cc1)C2
REMARK SMILES IDX 14 1 13 2 3 3 4 4 8 5 5 6 7 7 6 8 28 9 11 10 12 11 2 12 1 13
REMARK SMILES IDX 9 14 10 15 15 16 16 17 27 18 17 19 26 20 18 21 19 22 20 23
REMARK SMILES IDX 21 24 25 25 22 26 24 27 23 28
REMARK H PARENT
ROOT
ATOM      1  C   UNL     1     -15.770 -42.392  23.468  1.00  0.00     0.016 C 
ENDROOT
BRANCH   1   2
ATOM      2  C   UNL     1     -16.997 -41.932  23.189  1.00  0.00     0.005 C 
ATOM      3  C   UNL     1     -21.337 -40.283  22.398  1.00  0.00     0.161 A 
ATOM      4  C   UNL     1     -20.639 -41.145  23.259  1.00  0.00     0.055 A 
ATOM      5  C   UNL     1     -20.655 -39.596  21.353  1.00  0.00     0.161 A 
ATOM      6  C   UNL     1     -19.276 -41.311  23.071  1.00  0.00    -0.028 A 
ATOM      7  C   UNL     1     -19.279 -39.773  21.176  1.00  0.00     0.063 A 
ATOM      8  C   UNL     1     -18.627 -40.629  22.044  1.00  0.00     0.030 A 
ATOM      9  C   UNL     1     -18.331 -42.173  23.853  1.00  0.00     0.076 C 
ATOM     10  C   UNL     1     -17.203 -40.972  22.060  1.00  0.00     0.189 C 
ATOM     11  O   UNL     1     -16.352 -40.554  21.303  1.00  0.00    -0.289 OA
BRANCH   3  12
ATOM     12  O   UNL     1     -22.687 -40.038  22.483  1.00  0.00    -0.493 OA
ATOM     13  C   UNL     1     -23.375 -40.480  23.642  1.00  0.00     0.278 C 
ENDBRANCH   3  12
BRANCH   5  14
ATOM     14  O   UNL     1     -21.433 -38.780  20.570  1.00  0.00    -0.493 OA
ATOM     15  C   UNL     1     -20.937 -38.424  19.286  1.00  0.00     0.278 C 
ENDBRANCH   5  14
ENDBRANCH   1   2
BRANCH   1  16
ATOM     16  C   UNL     1     -15.384 -43.045  24.717  1.00  0.00    -0.013 A 
ATOM     17  C   UNL     1     -14.569 -44.174  24.729  1.00  0.00     0.079 A 
ATOM     18  C   UNL     1     -15.796 -42.498  25.929  1.00  0.00     0.079 A 
ATOM     19  C   UNL     1     -14.193 -44.734  25.945  1.00  0.00     0.309 A 
ATOM     20  C   UNL     1     -15.398 -43.094  27.120  1.00  0.00     0.309 A 
ATOM     21  N   UNL     1     -14.611 -44.196  27.113  1.00  0.00    -0.201 N 
BRANCH  21  22
ATOM     22  C   UNL     1     -14.190 -44.802  28.402  1.00  0.00     0.393 C 
BRANCH  22  23
ATOM     23  C   UNL     1     -12.696 -44.989  28.444  1.00  0.00     0.017 A 
ATOM     24  C   UNL     1     -11.835 -43.880  28.457  1.00  0.00     0.010 A 
ATOM     25  C   UNL     1     -12.142 -46.278  28.469  1.00  0.00     0.010 A 
ATOM     26  C   UNL     1     -10.451 -44.061  28.480  1.00  0.00     0.001 A 
ATOM     27  C   UNL     1     -10.758 -46.453  28.492  1.00  0.00     0.001 A 
ATOM     28  C   UNL     1      -9.914 -45.346  28.495  1.00  0.00     0.000 A 
ENDBRANCH  22  23
ENDBRANCH  21  22
ENDBRANCH   1  16
TORSDOF 6
ENDMDL
MODEL 6
REMARK VINA RESULT:   -10.229      3.495      9.778
REMARK INTER + INTRA:         -14.405
REMARK INTER:                 -13.625
REMARK INTRA:                  -0.780
REMARK UNBOUND:                -0.589
REMARK SMILES COc1cc2c(cc1OC)C(=O)/C(=C/c1cc[n+](Cc3ccccc3)cc1)C2
REMARK SMILES IDX 14 1 13 2 3 3 4 4 8 5 5 6 7 7 6 8 28 9 11 10 12 11 2 12 1 13
REMARK SMILES IDX 9 14 10 15 15 16 16 17 27 18 17 19 26 20 18 21 19 22 20 23
REMARK SMILES IDX 21 24 25 25 22 26 24 27 23 28
REMARK H PARENT
ROOT
ATOM      1  C   UNL     1     -13.717 -43.417  25.666  1.00  0.00     0.016 C 
ENDROOT
BRANCH   1   2
ATOM      2  C   UNL     1     -12.885 -43.566  26.706  1.00  0.00     0.005 C 
ATOM      3  C   UNL     1     -10.022 -43.922  30.428  1.00  0.00     0.161 A 
ATOM      4  C   UNL     1     -10.426 -43.001  29.449  1.00  0.00     0.055 A 
ATOM      5  C   UNL     1     -10.559 -45.241  30.446  1.00  0.00     0.161 A 
ATOM      6  C   UNL     1     -11.357 -43.403  28.504  1.00  0.00    -0.028 A 
ATOM      7  C   UNL     1     -11.498 -45.632  29.487  1.00  0.00     0.063 A 
ATOM      8  C   UNL     1     -11.871 -44.697  28.539  1.00  0.00     0.030 A 
ATOM      9  C   UNL     1     -11.931 -42.605  27.371  1.00  0.00     0.076 C 
ATOM     10  C   UNL     1     -12.829 -44.867  27.445  1.00  0.00     0.189 C 
ATOM     11  O   UNL     1     -13.461 -45.871  27.188  1.00  0.00    -0.289 OA
BRANCH   3  12
ATOM     12  O   UNL     1      -9.107 -43.644  31.416  1.00  0.00    -0.493 OA
ATOM     13  C   UNL     1      -7.743 -43.516  31.047  1.00  0.00     0.278 C 
ENDBRANCH   3  12
BRANCH   5  14
ATOM     14  O   UNL     1     -10.094 -46.060  31.446  1.00  0.00    -0.493 OA
ATOM     15  C   UNL     1      -9.002 -46.918  31.146  1.00  0.00     0.278 C 
ENDBRANCH   5  14
ENDBRANCH   1   2
BRANCH   1  16
ATOM     16  C   UNL     1     -15.139 -43.099  25.771  1.00  0.00    -0.013 A 
ATOM     17  C   UNL     1     -15.737 -42.823  26.999  1.00  0.00     0.079 A 
ATOM     18  C   UNL     1     -15.908 -43.015  24.614  1.00  0.00     0.079 A 
ATOM     19  C   UNL     1     -17.084 -42.482  27.043  1.00  0.00     0.309 A 
ATOM     20  C   UNL     1     -17.252 -42.674  24.707  1.00  0.00     0.309 A 
ATOM     21  N   UNL     1     -17.818 -42.417  25.909  1.00  0.00    -0.201 N 
BRANCH  21  22
ATOM     22  C   UNL     1     -19.254 -42.040  25.976  1.00  0.00     0.393 C 
BRANCH  22  23
ATOM     23  C   UNL     1     -20.114 -43.250  26.232  1.00  0.00     0.017 A 
ATOM     24  C   UNL     1     -20.511 -43.585  27.536  1.00  0.00     0.010 A 
ATOM     25  C   UNL     1     -20.530 -44.064  25.166  1.00  0.00     0.010 A 
ATOM     26  C   UNL     1     -21.295 -44.717  27.767  1.00  0.00     0.001 A 
ATOM     27  C   UNL     1     -21.313 -45.194  25.403  1.00  0.00     0.001 A 
ATOM     28  C   UNL     1     -21.693 -45.520  26.702  1.00  0.00     0.000 A 
ENDBRANCH  22  23
ENDBRANCH  21  22
ENDBRANCH   1  16
TORSDOF 6
ENDMDL
MODEL 7
REMARK VINA RESULT:    -9.475      3.710     10.070
REMARK INTER + INTRA:         -13.387
REMARK INTER:                 -13.120
REMARK INTRA:                  -0.267
REMARK UNBOUND:                -0.589
REMARK SMILES COc1cc2c(cc1OC)C(=O)/C(=C/c1cc[n+](Cc3ccccc3)cc1)C2
REMARK SMILES IDX 14 1 13 2 3 3 4 4 8 5 5 6 7 7 6 8 28 9 11 10 12 11 2 12 1 13
REMARK SMILES IDX 9 14 10 15 15 16 16 17 27 18 17 19 26 20 18 21 19 22 20 23
REMARK SMILES IDX 21 24 25 25 22 26 24 27 23 28
REMARK H PARENT
ROOT
ATOM      1  C   UNL     1     -13.521 -45.275  28.870  1.00  0.00     0.016 C 
ENDROOT
BRANCH   1   2
ATOM      2  C   UNL     1     -12.646 -44.739  29.731  1.00  0.00     0.005 C 
ATOM      3  C   UNL     1      -9.661 -42.947  32.903  1.00  0.00     0.161 A 
ATOM      4  C   UNL     1     -11.034 -43.159  32.697  1.00  0.00     0.055 A 
ATOM      5  C   UNL     1      -8.712 -43.347  31.920  1.00  0.00     0.161 A 
ATOM      6  C   UNL     1     -11.442 -43.765  31.519  1.00  0.00    -0.028 A 
ATOM      7  C   UNL     1      -9.138 -43.957  30.737  1.00  0.00     0.063 A 
ATOM      8  C   UNL     1     -10.497 -44.149  30.570  1.00  0.00     0.030 A 
ATOM      9  C   UNL     1     -12.838 -44.088  31.079  1.00  0.00     0.076 C 
ATOM     10  C   UNL     1     -11.180 -44.763  29.429  1.00  0.00     0.189 C 
ATOM     11  O   UNL     1     -10.657 -45.209  28.429  1.00  0.00    -0.289 OA
BRANCH   3  12
ATOM     12  O   UNL     1      -9.134 -42.357  34.027  1.00  0.00    -0.493 OA
ATOM     13  C   UNL     1     -10.024 -41.992  35.070  1.00  0.00     0.278 C 
ENDBRANCH   3  12
BRANCH   5  14
ATOM     14  O   UNL     1      -7.397 -43.091  32.222  1.00  0.00    -0.493 OA
ATOM     15  C   UNL     1      -6.609 -44.166  32.716  1.00  0.00     0.278 C 
ENDBRANCH   5  14
ENDBRANCH   1   2
BRANCH   1  16
ATOM     16  C   UNL     1     -13.963 -44.647  27.626  1.00  0.00    -0.013 A 
ATOM     17  C   UNL     1     -14.449 -43.342  27.600  1.00  0.00     0.079 A 
ATOM     18  C   UNL     1     -13.845 -45.347  26.429  1.00  0.00     0.079 A 
ATOM     19  C   UNL     1     -14.816 -42.773  26.385  1.00  0.00     0.309 A 
ATOM     20  C   UNL     1     -14.227 -44.738  25.239  1.00  0.00     0.309 A 
ATOM     21  N   UNL     1     -14.705 -43.471  25.233  1.00  0.00    -0.201 N 
BRANCH  21  22
ATOM     22  C   UNL     1     -15.092 -42.842  23.944  1.00  0.00     0.393 C 
BRANCH  22  23
ATOM     23  C   UNL     1     -16.549 -42.459  23.950  1.00  0.00     0.017 A 
ATOM     24  C   UNL     1     -17.373 -42.792  25.037  1.00  0.00     0.010 A 
ATOM     25  C   UNL     1     -17.105 -41.764  22.865  1.00  0.00     0.010 A 
ATOM     26  C   UNL     1     -18.726 -42.447  25.029  1.00  0.00     0.001 A 
ATOM     27  C   UNL     1     -18.458 -41.422  22.862  1.00  0.00     0.001 A 
ATOM     28  C   UNL     1     -19.267 -41.766  23.941  1.00  0.00     0.000 A 
ENDBRANCH  22  23
ENDBRANCH  21  22
ENDBRANCH   1  16
TORSDOF 6
ENDMDL
MODEL 8
REMARK VINA RESULT:    -9.433      3.987      9.483
REMARK INTER + INTRA:         -13.330
REMARK INTER:                 -12.919
REMARK INTRA:                  -0.411
REMARK UNBOUND:                -0.589
REMARK SMILES COc1cc2c(cc1OC)C(=O)/C(=C/c1cc[n+](Cc3ccccc3)cc1)C2
REMARK SMILES IDX 14 1 13 2 3 3 4 4 8 5 5 6 7 7 6 8 28 9 11 10 12 11 2 12 1 13
REMARK SMILES IDX 9 14 10 15 15 16 16 17 27 18 17 19 26 20 18 21 19 22 20 23
REMARK SMILES IDX 21 24 25 25 22 26 24 27 23 28
REMARK H PARENT
ROOT
ATOM      1  C   UNL     1     -12.159 -45.311  28.582  1.00  0.00     0.016 C 
ENDROOT
BRANCH   1   2
ATOM      2  C   UNL     1     -11.957 -44.654  29.732  1.00  0.00     0.005 C 
ATOM      3  C   UNL     1     -11.110 -42.240  33.686  1.00  0.00     0.161 A 
ATOM      4  C   UNL     1     -10.435 -42.887  32.639  1.00  0.00     0.055 A 
ATOM      5  C   UNL     1     -12.534 -42.211  33.720  1.00  0.00     0.161 A 
ATOM      6  C   UNL     1     -11.182 -43.494  31.642  1.00  0.00    -0.028 A 
ATOM      7  C   UNL     1     -13.274 -42.827  32.707  1.00  0.00     0.063 A 
ATOM      8  C   UNL     1     -12.574 -43.454  31.693  1.00  0.00     0.030 A 
ATOM      9  C   UNL     1     -10.690 -44.241  30.439  1.00  0.00     0.076 C 
ATOM     10  C   UNL     1     -13.121 -44.160  30.532  1.00  0.00     0.189 C 
ATOM     11  O   UNL     1     -14.296 -44.312  30.268  1.00  0.00    -0.289 OA
BRANCH   3  12
ATOM     12  O   UNL     1     -10.482 -41.604  34.730  1.00  0.00    -0.493 OA
ATOM     13  C   UNL     1      -9.187 -42.050  35.103  1.00  0.00     0.278 C 
ENDBRANCH   3  12
BRANCH   5  14
ATOM     14  O   UNL     1     -13.091 -41.553  34.789  1.00  0.00    -0.493 OA
ATOM     15  C   UNL     1     -14.497 -41.346  34.780  1.00  0.00     0.278 C 
ENDBRANCH   5  14
ENDBRANCH   1   2
BRANCH   1  16
ATOM     16  C   UNL     1     -12.906 -44.788  27.440  1.00  0.00    -0.013 A 
ATOM     17  C   UNL     1     -12.913 -43.429  27.133  1.00  0.00     0.079 A 
ATOM     18  C   UNL     1     -13.584 -45.671  26.604  1.00  0.00     0.079 A 
ATOM     19  C   UNL     1     -13.601 -42.985  26.009  1.00  0.00     0.309 A 
ATOM     20  C   UNL     1     -14.262 -45.181  25.494  1.00  0.00     0.309 A 
ATOM     21  N   UNL     1     -14.264 -43.856  25.215  1.00  0.00    -0.201 N 
BRANCH  21  22
ATOM     22  C   UNL     1     -14.985 -43.363  24.013  1.00  0.00     0.393 C 
BRANCH  22  23
ATOM     23  C   UNL     1     -16.387 -42.938  24.366  1.00  0.00     0.017 A 
ATOM     24  C   UNL     1     -17.352 -42.750  23.365  1.00  0.00     0.010 A 
ATOM     25  C   UNL     1     -16.747 -42.722  25.705  1.00  0.00     0.010 A 
ATOM     26  C   UNL     1     -18.645 -42.341  23.698  1.00  0.00     0.001 A 
ATOM     27  C   UNL     1     -18.040 -42.313  26.033  1.00  0.00     0.001 A 
ATOM     28  C   UNL     1     -18.986 -42.121  25.030  1.00  0.00     0.000 A 
ENDBRANCH  22  23
ENDBRANCH  21  22
ENDBRANCH   1  16
TORSDOF 6
ENDMDL
MODEL 9
REMARK VINA RESULT:    -9.313      3.175     10.087
REMARK INTER + INTRA:         -13.168
REMARK INTER:                 -12.871
REMARK INTRA:                  -0.298
REMARK UNBOUND:                -0.589
REMARK SMILES COc1cc2c(cc1OC)C(=O)/C(=C/c1cc[n+](Cc3ccccc3)cc1)C2
REMARK SMILES IDX 14 1 13 2 3 3 4 4 8 5 5 6 7 7 6 8 28 9 11 10 12 11 2 12 1 13
REMARK SMILES IDX 9 14 10 15 15 16 16 17 27 18 17 19 26 20 18 21 19 22 20 23
REMARK SMILES IDX 21 24 25 25 22 26 24 27 23 28
REMARK H PARENT
ROOT
ATOM      1  C   UNL     1     -14.753 -43.736  25.570  1.00  0.00     0.016 C 
ENDROOT
BRANCH   1   2
ATOM      2  C   UNL     1     -13.789 -44.151  26.402  1.00  0.00     0.005 C 
ATOM      3  C   UNL     1     -10.363 -45.757  29.207  1.00  0.00     0.161 A 
ATOM      4  C   UNL     1     -11.466 -46.209  28.465  1.00  0.00     0.055 A 
ATOM      5  C   UNL     1     -10.028 -44.373  29.232  1.00  0.00     0.161 A 
ATOM      6  C   UNL     1     -12.217 -45.283  27.758  1.00  0.00    -0.028 A 
ATOM      7  C   UNL     1     -10.793 -43.450  28.514  1.00  0.00     0.063 A 
ATOM      8  C   UNL     1     -11.871 -43.934  27.795  1.00  0.00     0.030 A 
ATOM      9  C   UNL     1     -13.427 -45.526  26.907  1.00  0.00     0.076 C 
ATOM     10  C   UNL     1     -12.811 -43.171  26.971  1.00  0.00     0.189 C 
ATOM     11  O   UNL     1     -12.798 -41.972  26.783  1.00  0.00    -0.289 OA
BRANCH   3  12
ATOM     12  O   UNL     1      -9.545 -46.576  29.947  1.00  0.00    -0.493 OA
ATOM     13  C   UNL     1      -9.870 -46.789  31.312  1.00  0.00     0.278 C 
ENDBRANCH   3  12
BRANCH   5  14
ATOM     14  O   UNL     1      -8.932 -44.039  29.990  1.00  0.00    -0.493 OA
ATOM     15  C   UNL     1      -9.157 -43.352  31.213  1.00  0.00     0.278 C 
ENDBRANCH   5  14
ENDBRANCH   1   2
BRANCH   1  16
ATOM     16  C   UNL     1     -16.023 -43.146  25.988  1.00  0.00    -0.013 A 
ATOM     17  C   UNL     1     -17.027 -42.848  25.070  1.00  0.00     0.079 A 
ATOM     18  C   UNL     1     -16.261 -42.924  27.341  1.00  0.00     0.079 A 
ATOM     19  C   UNL     1     -18.236 -42.329  25.521  1.00  0.00     0.309 A 
ATOM     20  C   UNL     1     -17.483 -42.400  27.746  1.00  0.00     0.309 A 
ATOM     21  N   UNL     1     -18.445 -42.110  26.839  1.00  0.00    -0.201 N 
BRANCH  21  22
ATOM     22  C   UNL     1     -19.746 -41.564  27.303  1.00  0.00     0.393 C 
BRANCH  22  23
ATOM     23  C   UNL     1     -20.822 -41.796  26.273  1.00  0.00     0.017 A 
ATOM     24  C   UNL     1     -21.082 -40.838  25.280  1.00  0.00     0.010 A 
ATOM     25  C   UNL     1     -21.583 -42.975  26.295  1.00  0.00     0.010 A 
ATOM     26  C   UNL     1     -22.090 -41.053  24.339  1.00  0.00     0.001 A 
ATOM     27  C   UNL     1     -22.590 -43.184  25.352  1.00  0.00     0.001 A 
ATOM     28  C   UNL     1     -22.844 -42.223  24.377  1.00  0.00     0.000 A 
ENDBRANCH  22  23
ENDBRANCH  21  22
ENDBRANCH   1  16
TORSDOF 6
ENDMDL
