MODEL 1
REMARK VINA RESULT:    -9.214      0.000      0.000
REMARK INTER + INTRA:         -10.229
REMARK INTER:                 -10.291
REMARK INTRA:                   0.062
REMARK UNBOUND:                 0.062
REMARK SMILES CNC(=O)Oc1ccc2c(c1)[C@]1(C)CCO[C@@H]1N2C
REMARK SMILES IDX 5 1 3 2 2 3 1 4 4 6 6 7 7 8 11 9 8 10 10 11 9 12 12 13 18 14
REMARK SMILES IDX 14 15 17 16 15 17 16 18 13 19 19 20
REMARK H PARENT 2 5
ROOT
ATOM      1  O   UNL     1     -13.416 -46.381  30.246  1.00  0.00    -0.410 OA
ENDROOT
BRANCH   1   2
ATOM      2  C   UNL     1     -13.885 -46.436  31.550  1.00  0.00     0.412 C 
ATOM      3  N   UNL     1     -13.917 -45.170  32.066  1.00  0.00    -0.324 N 
ATOM      4  C   UNL     1     -14.491 -44.888  33.354  1.00  0.00     0.146 C 
ATOM      5  H   UNL     1     -13.729 -44.420  31.418  1.00  0.00     0.166 HD
ATOM      6  O   UNL     1     -14.231 -47.442  32.154  1.00  0.00    -0.224 OA
ENDBRANCH   1   2
BRANCH   1   7
ATOM      7  C   UNL     1     -12.279 -45.588  30.040  1.00  0.00     0.133 A 
ATOM      8  C   UNL     1     -12.363 -44.586  29.066  1.00  0.00     0.049 A 
ATOM      9  C   UNL     1     -11.148 -45.736  30.839  1.00  0.00     0.054 A 
ATOM     10  C   UNL     1     -11.280 -43.726  28.854  1.00  0.00     0.030 A 
ATOM     11  C   UNL     1     -10.082 -44.881  30.604  1.00  0.00    -0.010 A 
ATOM     12  C   UNL     1     -10.133 -43.884  29.619  1.00  0.00     0.043 A 
ATOM     13  C   UNL     1      -8.746 -44.830  31.284  1.00  0.00     0.042 C 
ATOM     14  N   UNL     1      -8.965 -43.104  29.583  1.00  0.00    -0.348 N 
ATOM     15  C   UNL     1      -8.754 -44.055  32.591  1.00  0.00     0.045 C 
ATOM     16  C   UNL     1      -7.973 -43.875  30.343  1.00  0.00     0.225 C 
ATOM     17  C   UNL     1      -7.457 -43.276  32.526  1.00  0.00     0.164 C 
ATOM     18  O   UNL     1      -7.197 -42.986  31.150  1.00  0.00    -0.357 OA
ATOM     19  C   UNL     1      -8.064 -46.193  31.407  1.00  0.00     0.021 C 
ATOM     20  C   UNL     1      -8.549 -42.533  28.318  1.00  0.00     0.146 C 
ENDBRANCH   1   7
TORSDOF 2
ENDMDL
MODEL 2
REMARK VINA RESULT:    -8.838      3.099      4.071
REMARK INTER + INTRA:          -9.809
REMARK INTER:                  -9.633
REMARK INTRA:                  -0.176
REMARK UNBOUND:                 0.062
REMARK SMILES CNC(=O)Oc1ccc2c(c1)[C@]1(C)CCO[C@@H]1N2C
REMARK SMILES IDX 5 1 3 2 2 3 1 4 4 6 6 7 7 8 11 9 8 10 10 11 9 12 12 13 18 14
REMARK SMILES IDX 14 15 17 16 15 17 16 18 13 19 19 20
REMARK H PARENT 2 5
ROOT
ATOM      1  O   UNL     1     -14.518 -44.479  26.973  1.00  0.00    -0.410 OA
ENDROOT
BRANCH   1   2
ATOM      2  C   UNL     1     -15.320 -43.413  26.594  1.00  0.00     0.412 C 
ATOM      3  N   UNL     1     -15.603 -43.520  25.260  1.00  0.00    -0.324 N 
ATOM      4  C   UNL     1     -16.531 -42.638  24.606  1.00  0.00     0.146 C 
ATOM      5  H   UNL     1     -15.311 -44.375  24.810  1.00  0.00     0.166 HD
ATOM      6  O   UNL     1     -15.729 -42.518  27.321  1.00  0.00    -0.224 OA
ENDBRANCH   1   2
BRANCH   1   7
ATOM      7  C   UNL     1     -13.303 -44.140  27.585  1.00  0.00     0.133 A 
ATOM      8  C   UNL     1     -12.500 -43.193  26.939  1.00  0.00     0.049 A 
ATOM      9  C   UNL     1     -12.959 -44.660  28.831  1.00  0.00     0.054 A 
ATOM     10  C   UNL     1     -11.303 -42.773  27.530  1.00  0.00     0.030 A 
ATOM     11  C   UNL     1     -11.764 -44.240  29.393  1.00  0.00    -0.010 A 
ATOM     12  C   UNL     1     -10.930 -43.308  28.755  1.00  0.00     0.043 A 
ATOM     13  C   UNL     1     -11.136 -44.648  30.692  1.00  0.00     0.042 C 
ATOM     14  N   UNL     1      -9.797 -42.990  29.519  1.00  0.00    -0.348 N 
ATOM     15  C   UNL     1     -11.677 -43.893  31.896  1.00  0.00     0.045 C 
ATOM     16  C   UNL     1      -9.720 -44.045  30.538  1.00  0.00     0.225 C 
ATOM     17  C   UNL     1     -10.428 -43.622  32.708  1.00  0.00     0.164 C 
ATOM     18  O   UNL     1      -9.342 -43.469  31.791  1.00  0.00    -0.357 OA
ATOM     19  C   UNL     1     -11.098 -46.161  30.910  1.00  0.00     0.021 C 
ATOM     20  C   UNL     1      -8.574 -42.627  28.832  1.00  0.00     0.146 C 
ENDBRANCH   1   7
TORSDOF 2
ENDMDL
MODEL 3
REMARK VINA RESULT:    -8.614      2.577      5.637
REMARK INTER + INTRA:          -9.559
REMARK INTER:                  -9.521
REMARK INTRA:                  -0.038
REMARK UNBOUND:                 0.062
REMARK SMILES CNC(=O)Oc1ccc2c(c1)[C@]1(C)CCO[C@@H]1N2C
REMARK SMILES IDX 5 1 3 2 2 3 1 4 4 6 6 7 7 8 11 9 8 10 10 11 9 12 12 13 18 14
REMARK SMILES IDX 14 15 17 16 15 17 16 18 13 19 19 20
REMARK H PARENT 2 5
ROOT
ATOM      1  O   UNL     1      -7.806 -42.848  30.030  1.00  0.00    -0.410 OA
ENDROOT
BRANCH   1   2
ATOM      2  C   UNL     1      -7.713 -43.528  31.234  1.00  0.00     0.412 C 
ATOM      3  N   UNL     1      -6.995 -44.676  31.044  1.00  0.00    -0.324 N 
ATOM      4  C   UNL     1      -6.611 -45.523  32.140  1.00  0.00     0.146 C 
ATOM      5  H   UNL     1      -6.558 -44.784  30.140  1.00  0.00     0.166 HD
ATOM      6  O   UNL     1      -8.180 -43.171  32.307  1.00  0.00    -0.224 OA
ENDBRANCH   1   2
BRANCH   1   7
ATOM      7  C   UNL     1      -8.997 -43.034  29.314  1.00  0.00     0.133 A 
ATOM      8  C   UNL     1      -9.380 -42.019  28.429  1.00  0.00     0.049 A 
ATOM      9  C   UNL     1      -9.716 -44.223  29.416  1.00  0.00     0.054 A 
ATOM     10  C   UNL     1     -10.529 -42.173  27.646  1.00  0.00     0.030 A 
ATOM     11  C   UNL     1     -10.857 -44.349  28.639  1.00  0.00    -0.010 A 
ATOM     12  C   UNL     1     -11.274 -43.337  27.762  1.00  0.00     0.043 A 
ATOM     13  C   UNL     1     -11.827 -45.491  28.566  1.00  0.00     0.042 C 
ATOM     14  N   UNL     1     -12.426 -43.693  27.042  1.00  0.00    -0.348 N 
ATOM     15  C   UNL     1     -11.380 -46.615  27.646  1.00  0.00     0.045 C 
ATOM     16  C   UNL     1     -12.980 -44.847  27.761  1.00  0.00     0.225 C 
ATOM     17  C   UNL     1     -12.662 -46.994  26.935  1.00  0.00     0.164 C 
ATOM     18  O   UNL     1     -13.456 -45.811  26.817  1.00  0.00    -0.357 OA
ATOM     19  C   UNL     1     -12.291 -45.994  29.934  1.00  0.00     0.021 C 
ATOM     20  C   UNL     1     -13.345 -42.647  26.639  1.00  0.00     0.146 C 
ENDBRANCH   1   7
TORSDOF 2
ENDMDL
MODEL 4
REMARK VINA RESULT:    -8.525      3.006      4.352
REMARK INTER + INTRA:          -9.459
REMARK INTER:                  -9.613
REMARK INTRA:                   0.154
REMARK UNBOUND:                 0.062
REMARK SMILES CNC(=O)Oc1ccc2c(c1)[C@]1(C)CCO[C@@H]1N2C
REMARK SMILES IDX 5 1 3 2 2 3 1 4 4 6 6 7 7 8 11 9 8 10 10 11 9 12 12 13 18 14
REMARK SMILES IDX 14 15 17 16 15 17 16 18 13 19 19 20
REMARK H PARENT 2 5
ROOT
ATOM      1  O   UNL     1     -14.004 -45.401  26.791  1.00  0.00    -0.410 OA
ENDROOT
BRANCH   1   2
ATOM      2  C   UNL     1     -14.540 -44.132  26.633  1.00  0.00     0.412 C 
ATOM      3  N   UNL     1     -14.194 -43.652  25.400  1.00  0.00    -0.324 N 
ATOM      4  C   UNL     1     -14.720 -42.415  24.891  1.00  0.00     0.146 C 
ATOM      5  H   UNL     1     -13.738 -44.305  24.780  1.00  0.00     0.166 HD
ATOM      6  O   UNL     1     -15.225 -43.527  27.447  1.00  0.00    -0.224 OA
ENDBRANCH   1   2
BRANCH   1   7
ATOM      7  C   UNL     1     -13.027 -45.530  27.788  1.00  0.00     0.133 A 
ATOM      8  C   UNL     1     -11.905 -46.314  27.491  1.00  0.00     0.049 A 
ATOM      9  C   UNL     1     -13.131 -44.831  28.988  1.00  0.00     0.054 A 
ATOM     10  C   UNL     1     -10.871 -46.434  28.424  1.00  0.00     0.030 A 
ATOM     11  C   UNL     1     -12.100 -44.974  29.904  1.00  0.00    -0.010 A 
ATOM     12  C   UNL     1     -10.976 -45.771  29.639  1.00  0.00     0.043 A 
ATOM     13  C   UNL     1     -11.960 -44.369  31.269  1.00  0.00     0.042 C 
ATOM     14  N   UNL     1     -10.035 -45.736  30.680  1.00  0.00    -0.348 N 
ATOM     15  C   UNL     1     -11.415 -42.950  31.257  1.00  0.00     0.045 C 
ATOM     16  C   UNL     1     -10.762 -45.174  31.826  1.00  0.00     0.225 C 
ATOM     17  C   UNL     1     -10.451 -42.952  32.424  1.00  0.00     0.164 C 
ATOM     18  O   UNL     1      -9.908 -44.270  32.533  1.00  0.00    -0.357 OA
ATOM     19  C   UNL     1     -13.208 -44.517  32.140  1.00  0.00     0.021 C 
ATOM     20  C   UNL     1      -9.213 -46.906  30.913  1.00  0.00     0.146 C 
ENDBRANCH   1   7
TORSDOF 2
ENDMDL
MODEL 5
REMARK VINA RESULT:    -8.475      7.252     10.021
REMARK INTER + INTRA:          -9.403
REMARK INTER:                  -9.170
REMARK INTRA:                  -0.233
REMARK UNBOUND:                 0.062
REMARK SMILES CNC(=O)Oc1ccc2c(c1)[C@]1(C)CCO[C@@H]1N2C
REMARK SMILES IDX 5 1 3 2 2 3 1 4 4 6 6 7 7 8 11 9 8 10 10 11 9 12 12 13 18 14
REMARK SMILES IDX 14 15 17 16 15 17 16 18 13 19 19 20
REMARK H PARENT 2 5
ROOT
ATOM      1  O   UNL     1     -14.188 -42.792  26.689  1.00  0.00    -0.410 OA
ENDROOT
BRANCH   1   2
ATOM      2  C   UNL     1     -13.969 -44.134  26.962  1.00  0.00     0.412 C 
ATOM      3  N   UNL     1     -13.574 -44.265  28.264  1.00  0.00    -0.324 N 
ATOM      4  C   UNL     1     -13.408 -45.552  28.883  1.00  0.00     0.146 C 
ATOM      5  H   UNL     1     -13.623 -43.431  28.831  1.00  0.00     0.166 HD
ATOM      6  O   UNL     1     -14.114 -45.066  26.183  1.00  0.00    -0.224 OA
ENDBRANCH   1   2
BRANCH   1   7
ATOM      7  C   UNL     1     -15.253 -42.512  25.823  1.00  0.00     0.133 A 
ATOM      8  C   UNL     1     -14.939 -42.212  24.492  1.00  0.00     0.049 A 
ATOM      9  C   UNL     1     -16.574 -42.620  26.253  1.00  0.00     0.054 A 
ATOM     10  C   UNL     1     -15.962 -41.979  23.568  1.00  0.00     0.030 A 
ATOM     11  C   UNL     1     -17.573 -42.374  25.324  1.00  0.00    -0.010 A 
ATOM     12  C   UNL     1     -17.282 -42.049  23.990  1.00  0.00     0.043 A 
ATOM     13  C   UNL     1     -19.061 -42.390  25.511  1.00  0.00     0.042 C 
ATOM     14  N   UNL     1     -18.440 -41.886  23.213  1.00  0.00    -0.348 N 
ATOM     15  C   UNL     1     -19.672 -43.779  25.426  1.00  0.00     0.045 C 
ATOM     16  C   UNL     1     -19.531 -41.745  24.186  1.00  0.00     0.225 C 
ATOM     17  C   UNL     1     -20.936 -43.539  24.628  1.00  0.00     0.164 C 
ATOM     18  O   UNL     1     -20.678 -42.464  23.722  1.00  0.00    -0.357 OA
ATOM     19  C   UNL     1     -19.537 -41.606  26.734  1.00  0.00     0.021 C 
ATOM     20  C   UNL     1     -18.406 -40.959  22.100  1.00  0.00     0.146 C 
ENDBRANCH   1   7
TORSDOF 2
ENDMDL
MODEL 6
REMARK VINA RESULT:    -8.380      2.797      3.995
REMARK INTER + INTRA:          -9.297
REMARK INTER:                  -9.239
REMARK INTRA:                  -0.058
REMARK UNBOUND:                 0.062
REMARK SMILES CNC(=O)Oc1ccc2c(c1)[C@]1(C)CCO[C@@H]1N2C
REMARK SMILES IDX 5 1 3 2 2 3 1 4 4 6 6 7 7 8 11 9 8 10 10 11 9 12 12 13 18 14
REMARK SMILES IDX 14 15 17 16 15 17 16 18 13 19 19 20
REMARK H PARENT 2 5
ROOT
ATOM      1  O   UNL     1     -12.892 -41.692  34.030  1.00  0.00    -0.410 OA
ENDROOT
BRANCH   1   2
ATOM      2  C   UNL     1     -13.997 -42.432  33.635  1.00  0.00     0.412 C 
ATOM      3  N   UNL     1     -14.602 -41.802  32.583  1.00  0.00    -0.324 N 
ATOM      4  C   UNL     1     -15.695 -42.401  31.865  1.00  0.00     0.146 C 
ATOM      5  H   UNL     1     -14.110 -41.012  32.194  1.00  0.00     0.166 HD
ATOM      6  O   UNL     1     -14.377 -43.486  34.126  1.00  0.00    -0.224 OA
ENDBRANCH   1   2
BRANCH   1   7
ATOM      7  C   UNL     1     -11.647 -42.200  33.637  1.00  0.00     0.133 A 
ATOM      8  C   UNL     1     -10.542 -41.883  34.437  1.00  0.00     0.049 A 
ATOM      9  C   UNL     1     -11.535 -43.059  32.545  1.00  0.00     0.054 A 
ATOM     10  C   UNL     1      -9.283 -42.407  34.127  1.00  0.00     0.030 A 
ATOM     11  C   UNL     1     -10.275 -43.557  32.249  1.00  0.00    -0.010 A 
ATOM     12  C   UNL     1      -9.149 -43.237  33.023  1.00  0.00     0.043 A 
ATOM     13  C   UNL     1      -9.859 -44.468  31.133  1.00  0.00     0.042 C 
ATOM     14  N   UNL     1      -7.988 -43.886  32.574  1.00  0.00    -0.348 N 
ATOM     15  C   UNL     1     -10.098 -45.940  31.423  1.00  0.00     0.045 C 
ATOM     16  C   UNL     1      -8.318 -44.362  31.225  1.00  0.00     0.225 C 
ATOM     17  C   UNL     1      -8.848 -46.595  30.876  1.00  0.00     0.164 C 
ATOM     18  O   UNL     1      -7.770 -45.669  31.034  1.00  0.00    -0.357 OA
ATOM     19  C   UNL     1     -10.384 -44.041  29.762  1.00  0.00     0.021 C 
ATOM     20  C   UNL     1      -6.709 -43.231  32.762  1.00  0.00     0.146 C 
ENDBRANCH   1   7
TORSDOF 2
ENDMDL
MODEL 7
REMARK VINA RESULT:    -8.319      8.258     10.383
REMARK INTER + INTRA:          -9.229
REMARK INTER:                  -9.065
REMARK INTRA:                  -0.163
REMARK UNBOUND:                 0.062
REMARK SMILES CNC(=O)Oc1ccc2c(c1)[C@]1(C)CCO[C@@H]1N2C
REMARK SMILES IDX 5 1 3 2 2 3 1 4 4 6 6 7 7 8 11 9 8 10 10 11 9 12 12 13 18 14
REMARK SMILES IDX 14 15 17 16 15 17 16 18 13 19 19 20
REMARK H PARENT 2 5
ROOT
ATOM      1  O   UNL     1     -19.630 -42.167  22.382  1.00  0.00    -0.410 OA
ENDROOT
BRANCH   1   2
ATOM      2  C   UNL     1     -19.859 -40.876  21.931  1.00  0.00     0.412 C 
ATOM      3  N   UNL     1     -19.535 -40.803  20.605  1.00  0.00    -0.324 N 
ATOM      4  C   UNL     1     -19.798 -39.626  19.822  1.00  0.00     0.146 C 
ATOM      5  H   UNL     1     -19.315 -41.677  20.151  1.00  0.00     0.166 HD
ATOM      6  O   UNL     1     -20.293 -39.943  22.593  1.00  0.00    -0.224 OA
ENDBRANCH   1   2
BRANCH   1   7
ATOM      7  C   UNL     1     -18.915 -42.276  23.583  1.00  0.00     0.133 A 
ATOM      8  C   UNL     1     -19.655 -42.312  24.771  1.00  0.00     0.049 A 
ATOM      9  C   UNL     1     -17.530 -42.433  23.580  1.00  0.00     0.054 A 
ATOM     10  C   UNL     1     -19.000 -42.476  25.996  1.00  0.00     0.030 A 
ATOM     11  C   UNL     1     -16.901 -42.583  24.807  1.00  0.00    -0.010 A 
ATOM     12  C   UNL     1     -17.618 -42.600  26.012  1.00  0.00     0.043 A 
ATOM     13  C   UNL     1     -15.440 -42.742  25.104  1.00  0.00     0.042 C 
ATOM     14  N   UNL     1     -16.790 -42.808  27.127  1.00  0.00    -0.348 N 
ATOM     15  C   UNL     1     -14.937 -44.168  24.955  1.00  0.00     0.045 C 
ATOM     16  C   UNL     1     -15.429 -42.549  26.639  1.00  0.00     0.225 C 
ATOM     17  C   UNL     1     -14.013 -44.322  26.145  1.00  0.00     0.164 C 
ATOM     18  O   UNL     1     -14.531 -43.511  27.202  1.00  0.00    -0.357 OA
ATOM     19  C   UNL     1     -14.551 -41.722  24.390  1.00  0.00     0.021 C 
ATOM     20  C   UNL     1     -17.172 -42.223  28.396  1.00  0.00     0.146 C 
ENDBRANCH   1   7
TORSDOF 2
ENDMDL
MODEL 8
REMARK VINA RESULT:    -8.232      8.156     10.913
REMARK INTER + INTRA:          -9.133
REMARK INTER:                  -9.013
REMARK INTRA:                  -0.119
REMARK UNBOUND:                 0.062
REMARK SMILES CNC(=O)Oc1ccc2c(c1)[C@]1(C)CCO[C@@H]1N2C
REMARK SMILES IDX 5 1 3 2 2 3 1 4 4 6 6 7 7 8 11 9 8 10 10 11 9 12 12 13 18 14
REMARK SMILES IDX 14 15 17 16 15 17 16 18 13 19 19 20
REMARK H PARENT 2 5
ROOT
ATOM      1  O   UNL     1     -14.877 -43.213  24.589  1.00  0.00    -0.410 OA
ENDROOT
BRANCH   1   2
ATOM      2  C   UNL     1     -14.470 -43.193  25.914  1.00  0.00     0.412 C 
ATOM      3  N   UNL     1     -14.304 -44.479  26.349  1.00  0.00    -0.324 N 
ATOM      4  C   UNL     1     -13.751 -44.779  27.642  1.00  0.00     0.146 C 
ATOM      5  H   UNL     1     -14.373 -45.200  25.646  1.00  0.00     0.166 HD
ATOM      6  O   UNL     1     -14.273 -42.198  26.598  1.00  0.00    -0.224 OA
ENDBRANCH   1   2
BRANCH   1   7
ATOM      7  C   UNL     1     -16.148 -42.680  24.334  1.00  0.00     0.133 A 
ATOM      8  C   UNL     1     -16.362 -42.102  23.077  1.00  0.00     0.049 A 
ATOM      9  C   UNL     1     -17.178 -42.806  25.264  1.00  0.00     0.054 A 
ATOM     10  C   UNL     1     -17.626 -41.604  22.744  1.00  0.00     0.030 A 
ATOM     11  C   UNL     1     -18.420 -42.295  24.918  1.00  0.00    -0.010 A 
ATOM     12  C   UNL     1     -18.653 -41.691  23.673  1.00  0.00     0.043 A 
ATOM     13  C   UNL     1     -19.686 -42.267  25.721  1.00  0.00     0.042 C 
ATOM     14  N   UNL     1     -19.988 -41.287  23.515  1.00  0.00    -0.348 N 
ATOM     15  C   UNL     1     -20.480 -43.561  25.656  1.00  0.00     0.045 C 
ATOM     16  C   UNL     1     -20.553 -41.308  24.870  1.00  0.00     0.225 C 
ATOM     17  C   UNL     1     -21.908 -43.070  25.539  1.00  0.00     0.164 C 
ATOM     18  O   UNL     1     -21.882 -41.833  24.823  1.00  0.00    -0.357 OA
ATOM     19  C   UNL     1     -19.498 -41.757  27.150  1.00  0.00     0.021 C 
ATOM     20  C   UNL     1     -20.272 -40.133  22.686  1.00  0.00     0.146 C 
ENDBRANCH   1   7
TORSDOF 2
ENDMDL
MODEL 9
REMARK VINA RESULT:    -7.865      3.884      5.619
REMARK INTER + INTRA:          -8.722
REMARK INTER:                  -8.702
REMARK INTRA:                  -0.021
REMARK UNBOUND:                 0.062
REMARK SMILES CNC(=O)Oc1ccc2c(c1)[C@]1(C)CCO[C@@H]1N2C
REMARK SMILES IDX 5 1 3 2 2 3 1 4 4 6 6 7 7 8 11 9 8 10 10 11 9 12 12 13 18 14
REMARK SMILES IDX 14 15 17 16 15 17 16 18 13 19 19 20
REMARK H PARENT 2 5
ROOT
ATOM      1  O   UNL     1     -13.800 -42.762  25.309  1.00  0.00    -0.410 OA
ENDROOT
BRANCH   1   2
ATOM      2  C   UNL     1     -14.776 -43.345  24.515  1.00  0.00     0.412 C 
ATOM      3  N   UNL     1     -15.900 -42.566  24.546  1.00  0.00    -0.324 N 
ATOM      4  C   UNL     1     -17.037 -42.837  23.708  1.00  0.00     0.146 C 
ATOM      5  H   UNL     1     -15.811 -41.673  25.009  1.00  0.00     0.166 HD
ATOM      6  O   UNL     1     -14.666 -44.380  23.872  1.00  0.00    -0.224 OA
ENDBRANCH   1   2
BRANCH   1   7
ATOM      7  C   UNL     1     -13.577 -43.376  26.549  1.00  0.00     0.133 A 
ATOM      8  C   UNL     1     -14.695 -43.861  27.237  1.00  0.00     0.049 A 
ATOM      9  C   UNL     1     -12.283 -43.574  27.028  1.00  0.00     0.054 A 
ATOM     10  C   UNL     1     -14.530 -44.534  28.453  1.00  0.00     0.030 A 
ATOM     11  C   UNL     1     -12.143 -44.233  28.240  1.00  0.00    -0.010 A 
ATOM     12  C   UNL     1     -13.250 -44.708  28.959  1.00  0.00     0.043 A 
ATOM     13  C   UNL     1     -10.890 -44.556  28.998  1.00  0.00     0.042 C 
ATOM     14  N   UNL     1     -12.878 -45.383  30.133  1.00  0.00    -0.348 N 
ATOM     15  C   UNL     1     -10.194 -45.819  28.518  1.00  0.00     0.045 C 
ATOM     16  C   UNL     1     -11.477 -45.003  30.358  1.00  0.00     0.225 C 
ATOM     17  C   UNL     1      -9.769 -46.479  29.813  1.00  0.00     0.164 C 
ATOM     18  O   UNL     1     -10.741 -46.145  30.807  1.00  0.00    -0.357 OA
ATOM     19  C   UNL     1      -9.935 -43.372  29.145  1.00  0.00     0.021 C 
ATOM     20  C   UNL     1     -13.776 -45.348  31.269  1.00  0.00     0.146 C 
ENDBRANCH   1   7
TORSDOF 2
ENDMDL
