MODEL 1
REMARK VINA RESULT:    -9.222      0.000      0.000
REMARK INTER + INTRA:         -15.850
REMARK INTER:                 -14.883
REMARK INTRA:                  -0.966
REMARK UNBOUND:                -0.966
REMARK SMILES CCOCC[n+]1ccc(CCC(O)=C2Cc3cc(OC)c(OC)cc3S2)cc1
REMARK SMILES IDX 9 1 8 2 7 3 6 4 28 5 27 6 10 7 11 8 12 9 13 10 14 12 15 13
REMARK SMILES IDX 26 14 16 15 25 16 17 17 24 18 18 19 21 20 19 21 20 22 22 23
REMARK SMILES IDX 23 24 5 25 4 26 3 27 2 28 1 29
REMARK H PARENT 13 11
ROOT
ATOM      1  C   UNL     1     -12.116 -45.821  29.283  1.00  0.00    -0.036 A 
ATOM      2  C   UNL     1     -11.960 -45.777  30.667  1.00  0.00     0.074 A 
ATOM      3  C   UNL     1     -10.734 -46.106  31.234  1.00  0.00     0.308 A 
ATOM      4  N   UNL     1      -9.688 -46.470  30.456  1.00  0.00    -0.203 N 
ATOM      5  C   UNL     1      -9.816 -46.514  29.110  1.00  0.00     0.308 A 
ATOM      6  C   UNL     1     -11.021 -46.190  28.500  1.00  0.00     0.074 A 
ENDROOT
BRANCH   1   7
ATOM      7  C   UNL     1     -13.456 -45.533  28.646  1.00  0.00     0.044 C 
BRANCH   7   8
ATOM      8  C   UNL     1     -13.378 -45.238  27.140  1.00  0.00     0.080 C 
BRANCH   8   9
ATOM      9  C   UNL     1     -13.762 -43.822  26.783  1.00  0.00     0.103 C 
BRANCH   9  10
ATOM     10  O   UNL     1     -12.818 -42.874  27.152  1.00  0.00    -0.511 OA
ATOM     11  H   UNL     1     -13.043 -42.057  26.662  1.00  0.00     0.293 HD
ENDBRANCH   9  10
BRANCH   9  12
ATOM     12  C   UNL     1     -14.886 -43.474  26.129  1.00  0.00     0.032 C 
ATOM     13  C   UNL     1     -16.165 -42.968  26.768  1.00  0.00     0.083 C 
ATOM     14  S   UNL     1     -14.971 -43.535  24.370  1.00  0.00    -0.090 SA
ATOM     15  C   UNL     1     -17.103 -42.601  25.652  1.00  0.00    -0.025 A 
ATOM     16  C   UNL     1     -16.611 -42.851  24.371  1.00  0.00     0.020 A 
ATOM     17  C   UNL     1     -18.375 -42.059  25.825  1.00  0.00     0.055 A 
ATOM     18  C   UNL     1     -17.366 -42.566  23.242  1.00  0.00     0.066 A 
ATOM     19  C   UNL     1     -19.153 -41.765  24.699  1.00  0.00     0.161 A 
ATOM     20  C   UNL     1     -18.645 -42.021  23.400  1.00  0.00     0.161 A 
BRANCH  19  21
ATOM     21  O   UNL     1     -20.415 -41.226  24.751  1.00  0.00    -0.493 OA
ATOM     22  C   UNL     1     -21.242 -41.574  25.851  1.00  0.00     0.278 C 
ENDBRANCH  19  21
BRANCH  20  23
ATOM     23  O   UNL     1     -19.480 -41.695  22.359  1.00  0.00    -0.493 OA
ATOM     24  C   UNL     1     -19.167 -40.539  21.594  1.00  0.00     0.278 C 
ENDBRANCH  20  23
ENDBRANCH   9  12
ENDBRANCH   8   9
ENDBRANCH   7   8
ENDBRANCH   1   7
BRANCH   4  25
ATOM     25  C   UNL     1      -8.397 -46.840  31.091  1.00  0.00     0.385 C 
BRANCH  25  26
ATOM     26  C   UNL     1      -7.789 -45.614  31.766  1.00  0.00     0.233 C 
BRANCH  26  27
ATOM     27  O   UNL     1      -7.355 -44.703  30.754  1.00  0.00    -0.375 OA
BRANCH  27  28
ATOM     28  C   UNL     1      -8.019 -43.437  30.807  1.00  0.00     0.157 C 
ATOM     29  C   UNL     1      -8.640 -43.092  29.466  1.00  0.00     0.035 C 
ENDBRANCH  27  28
ENDBRANCH  26  27
ENDBRANCH  25  26
ENDBRANCH   4  25
TORSDOF 11
ENDMDL
MODEL 2
REMARK VINA RESULT:    -9.080      0.739      2.079
REMARK INTER + INTRA:         -15.620
REMARK INTER:                 -14.632
REMARK INTRA:                  -0.989
REMARK UNBOUND:                -0.966
REMARK SMILES CCOCC[n+]1ccc(CCC(O)=C2Cc3cc(OC)c(OC)cc3S2)cc1
REMARK SMILES IDX 9 1 8 2 7 3 6 4 28 5 27 6 10 7 11 8 12 9 13 10 14 12 15 13
REMARK SMILES IDX 26 14 16 15 25 16 17 17 24 18 18 19 21 20 19 21 20 22 22 23
REMARK SMILES IDX 23 24 5 25 4 26 3 27 2 28 1 29
REMARK H PARENT 13 11
ROOT
ATOM      1  C   UNL     1     -12.301 -45.819  29.242  1.00  0.00    -0.036 A 
ATOM      2  C   UNL     1     -11.231 -46.196  28.431  1.00  0.00     0.074 A 
ATOM      3  C   UNL     1     -10.013 -46.533  29.009  1.00  0.00     0.308 A 
ATOM      4  N   UNL     1      -9.853 -46.500  30.353  1.00  0.00    -0.203 N 
ATOM      5  C   UNL     1     -10.878 -46.143  31.159  1.00  0.00     0.308 A 
ATOM      6  C   UNL     1     -12.115 -45.801  30.625  1.00  0.00     0.074 A 
ENDROOT
BRANCH   1   7
ATOM      7  C   UNL     1     -13.615 -45.384  28.636  1.00  0.00     0.044 C 
BRANCH   7   8
ATOM      8  C   UNL     1     -13.540 -45.106  27.126  1.00  0.00     0.080 C 
BRANCH   8   9
ATOM      9  C   UNL     1     -13.811 -43.665  26.765  1.00  0.00     0.103 C 
BRANCH   9  10
ATOM     10  O   UNL     1     -12.745 -42.813  27.017  1.00  0.00    -0.511 OA
ATOM     11  H   UNL     1     -12.566 -42.873  27.978  1.00  0.00     0.293 HD
ENDBRANCH   9  10
BRANCH   9  12
ATOM     12  C   UNL     1     -14.952 -43.216  26.208  1.00  0.00     0.032 C 
ATOM     13  C   UNL     1     -15.215 -43.066  24.722  1.00  0.00     0.083 C 
ATOM     14  S   UNL     1     -16.338 -42.777  27.202  1.00  0.00    -0.090 SA
ATOM     15  C   UNL     1     -16.649 -42.643  24.566  1.00  0.00    -0.025 A 
ATOM     16  C   UNL     1     -17.335 -42.454  25.767  1.00  0.00     0.020 A 
ATOM     17  C   UNL     1     -17.292 -42.436  23.347  1.00  0.00     0.055 A 
ATOM     18  C   UNL     1     -18.665 -42.059  25.781  1.00  0.00     0.066 A 
ATOM     19  C   UNL     1     -18.634 -42.037  23.340  1.00  0.00     0.161 A 
ATOM     20  C   UNL     1     -19.324 -41.847  24.564  1.00  0.00     0.161 A 
BRANCH  19  21
ATOM     21  O   UNL     1     -19.365 -41.809  22.201  1.00  0.00    -0.493 OA
ATOM     22  C   UNL     1     -19.155 -40.588  21.508  1.00  0.00     0.278 C 
ENDBRANCH  19  21
BRANCH  20  23
ATOM     23  O   UNL     1     -20.637 -41.461  24.454  1.00  0.00    -0.493 OA
ATOM     24  C   UNL     1     -21.633 -42.349  24.944  1.00  0.00     0.278 C 
ENDBRANCH  20  23
ENDBRANCH   9  12
ENDBRANCH   8   9
ENDBRANCH   7   8
ENDBRANCH   1   7
BRANCH   4  25
ATOM     25  C   UNL     1      -8.531 -46.842  30.941  1.00  0.00     0.385 C 
BRANCH  25  26
ATOM     26  C   UNL     1      -7.992 -45.643  31.718  1.00  0.00     0.233 C 
BRANCH  26  27
ATOM     27  O   UNL     1      -7.372 -44.743  30.797  1.00  0.00    -0.375 OA
BRANCH  27  28
ATOM     28  C   UNL     1      -7.969 -43.443  30.787  1.00  0.00     0.157 C 
ATOM     29  C   UNL     1      -8.647 -43.165  29.457  1.00  0.00     0.035 C 
ENDBRANCH  27  28
ENDBRANCH  26  27
ENDBRANCH  25  26
ENDBRANCH   4  25
TORSDOF 11
ENDMDL
MODEL 3
REMARK VINA RESULT:    -8.808      1.467      2.197
REMARK INTER + INTRA:         -15.182
REMARK INTER:                 -14.453
REMARK INTRA:                  -0.728
REMARK UNBOUND:                -0.966
REMARK SMILES CCOCC[n+]1ccc(CCC(O)=C2Cc3cc(OC)c(OC)cc3S2)cc1
REMARK SMILES IDX 9 1 8 2 7 3 6 4 28 5 27 6 10 7 11 8 12 9 13 10 14 12 15 13
REMARK SMILES IDX 26 14 16 15 25 16 17 17 24 18 18 19 21 20 19 21 20 22 22 23
REMARK SMILES IDX 23 24 5 25 4 26 3 27 2 28 1 29
REMARK H PARENT 13 11
ROOT
ATOM      1  C   UNL     1     -13.056 -45.419  27.810  1.00  0.00    -0.036 A 
ATOM      2  C   UNL     1     -11.872 -46.154  27.767  1.00  0.00     0.074 A 
ATOM      3  C   UNL     1     -11.168 -46.397  28.940  1.00  0.00     0.308 A 
ATOM      4  N   UNL     1     -11.618 -45.927  30.126  1.00  0.00    -0.203 N 
ATOM      5  C   UNL     1     -12.767 -45.216  30.192  1.00  0.00     0.308 A 
ATOM      6  C   UNL     1     -13.505 -44.952  29.045  1.00  0.00     0.074 A 
ENDROOT
BRANCH   1   7
ATOM      7  C   UNL     1     -13.804 -45.084  26.540  1.00  0.00     0.044 C 
BRANCH   7   8
ATOM      8  C   UNL     1     -14.610 -43.778  26.620  1.00  0.00     0.080 C 
BRANCH   8   9
ATOM      9  C   UNL     1     -15.078 -43.276  25.275  1.00  0.00     0.103 C 
BRANCH   9  10
ATOM     10  O   UNL     1     -14.105 -43.329  24.286  1.00  0.00    -0.511 OA
ATOM     11  H   UNL     1     -14.219 -42.519  23.747  1.00  0.00     0.293 HD
ENDBRANCH   9  10
BRANCH   9  12
ATOM     12  C   UNL     1     -16.327 -42.850  25.008  1.00  0.00     0.032 C 
ATOM     13  C   UNL     1     -17.420 -42.608  26.031  1.00  0.00     0.083 C 
ATOM     14  S   UNL     1     -16.827 -42.470  23.362  1.00  0.00    -0.090 SA
ATOM     15  C   UNL     1     -18.598 -42.034  25.295  1.00  0.00    -0.025 A 
ATOM     16  C   UNL     1     -18.423 -41.919  23.915  1.00  0.00     0.020 A 
ATOM     17  C   UNL     1     -19.795 -41.639  25.889  1.00  0.00     0.055 A 
ATOM     18  C   UNL     1     -19.426 -41.409  23.103  1.00  0.00     0.066 A 
ATOM     19  C   UNL     1     -20.820 -41.123  25.086  1.00  0.00     0.161 A 
ATOM     20  C   UNL     1     -20.634 -41.008  23.685  1.00  0.00     0.161 A 
BRANCH  19  21
ATOM     21  O   UNL     1     -22.035 -40.699  25.564  1.00  0.00    -0.493 OA
ATOM     22  C   UNL     1     -22.174 -40.523  26.966  1.00  0.00     0.278 C 
ENDBRANCH  19  21
BRANCH  20  23
ATOM     23  O   UNL     1     -21.693 -40.486  22.984  1.00  0.00    -0.493 OA
ATOM     24  C   UNL     1     -21.461 -39.327  22.195  1.00  0.00     0.278 C 
ENDBRANCH  20  23
ENDBRANCH   9  12
ENDBRANCH   8   9
ENDBRANCH   7   8
ENDBRANCH   1   7
BRANCH   4  25
ATOM     25  C   UNL     1     -10.831 -46.181  31.361  1.00  0.00     0.385 C 
BRANCH  25  26
ATOM     26  C   UNL     1     -10.050 -44.924  31.737  1.00  0.00     0.233 C 
BRANCH  26  27
ATOM     27  O   UNL     1      -8.653 -45.209  31.641  1.00  0.00    -0.375 OA
BRANCH  27  28
ATOM     28  C   UNL     1      -7.900 -44.158  31.028  1.00  0.00     0.157 C 
ATOM     29  C   UNL     1      -8.663 -43.549  29.865  1.00  0.00     0.035 C 
ENDBRANCH  27  28
ENDBRANCH  26  27
ENDBRANCH  25  26
ENDBRANCH   4  25
TORSDOF 11
ENDMDL
MODEL 4
REMARK VINA RESULT:    -8.760      1.556      2.162
REMARK INTER + INTRA:         -15.104
REMARK INTER:                 -14.412
REMARK INTRA:                  -0.692
REMARK UNBOUND:                -0.966
REMARK SMILES CCOCC[n+]1ccc(CCC(O)=C2Cc3cc(OC)c(OC)cc3S2)cc1
REMARK SMILES IDX 9 1 8 2 7 3 6 4 28 5 27 6 10 7 11 8 12 9 13 10 14 12 15 13
REMARK SMILES IDX 26 14 16 15 25 16 17 17 24 18 18 19 21 20 19 21 20 22 22 23
REMARK SMILES IDX 23 24 5 25 4 26 3 27 2 28 1 29
REMARK H PARENT 13 11
ROOT
ATOM      1  C   UNL     1     -12.611 -44.952  27.689  1.00  0.00    -0.036 A 
ATOM      2  C   UNL     1     -12.110 -46.101  28.299  1.00  0.00     0.074 A 
ATOM      3  C   UNL     1     -10.988 -46.016  29.115  1.00  0.00     0.308 A 
ATOM      4  N   UNL     1     -10.375 -44.828  29.324  1.00  0.00    -0.203 N 
ATOM      5  C   UNL     1     -10.847 -43.699  28.747  1.00  0.00     0.308 A 
ATOM      6  C   UNL     1     -11.968 -43.737  27.927  1.00  0.00     0.074 A 
ENDROOT
BRANCH   1   7
ATOM      7  C   UNL     1     -13.789 -45.029  26.745  1.00  0.00     0.044 C 
BRANCH   7   8
ATOM      8  C   UNL     1     -14.168 -43.681  26.113  1.00  0.00     0.080 C 
BRANCH   8   9
ATOM      9  C   UNL     1     -15.524 -43.173  26.545  1.00  0.00     0.103 C 
BRANCH   9  10
ATOM     10  O   UNL     1     -15.673 -43.071  27.921  1.00  0.00    -0.511 OA
ATOM     11  H   UNL     1     -15.310 -43.899  28.298  1.00  0.00     0.293 HD
ENDBRANCH   9  10
BRANCH   9  12
ATOM     12  C   UNL     1     -16.506 -42.803  25.702  1.00  0.00     0.032 C 
ATOM     13  C   UNL     1     -17.925 -42.441  26.098  1.00  0.00     0.083 C 
ATOM     14  S   UNL     1     -16.213 -42.650  23.972  1.00  0.00    -0.090 SA
ATOM     15  C   UNL     1     -18.631 -41.985  24.851  1.00  0.00    -0.025 A 
ATOM     16  C   UNL     1     -17.862 -42.052  23.689  1.00  0.00     0.020 A 
ATOM     17  C   UNL     1     -19.947 -41.531  24.800  1.00  0.00     0.055 A 
ATOM     18  C   UNL     1     -18.380 -41.667  22.460  1.00  0.00     0.066 A 
ATOM     19  C   UNL     1     -20.489 -41.139  23.570  1.00  0.00     0.161 A 
ATOM     20  C   UNL     1     -19.701 -41.208  22.394  1.00  0.00     0.161 A 
BRANCH  19  21
ATOM     21  O   UNL     1     -21.769 -40.672  23.405  1.00  0.00    -0.493 OA
ATOM     22  C   UNL     1     -22.756 -41.091  24.335  1.00  0.00     0.278 C 
ENDBRANCH  19  21
BRANCH  20  23
ATOM     23  O   UNL     1     -20.318 -40.798  21.238  1.00  0.00    -0.493 OA
ATOM     24  C   UNL     1     -19.627 -39.872  20.409  1.00  0.00     0.278 C 
ENDBRANCH  20  23
ENDBRANCH   9  12
ENDBRANCH   8   9
ENDBRANCH   7   8
ENDBRANCH   1   7
BRANCH   4  25
ATOM     25  C   UNL     1      -9.163 -44.771  30.182  1.00  0.00     0.385 C 
BRANCH  25  26
ATOM     26  C   UNL     1      -8.412 -43.467  29.921  1.00  0.00     0.233 C 
BRANCH  26  27
ATOM     27  O   UNL     1      -7.662 -43.129  31.089  1.00  0.00    -0.375 OA
BRANCH  27  28
ATOM     28  C   UNL     1      -8.077 -43.845  32.256  1.00  0.00     0.157 C 
ATOM     29  C   UNL     1      -8.552 -42.891  33.339  1.00  0.00     0.035 C 
ENDBRANCH  27  28
ENDBRANCH  26  27
ENDBRANCH  25  26
ENDBRANCH   4  25
TORSDOF 11
ENDMDL
MODEL 5
REMARK VINA RESULT:    -8.718      1.794      2.586
REMARK INTER + INTRA:         -15.036
REMARK INTER:                 -14.396
REMARK INTRA:                  -0.641
REMARK UNBOUND:                -0.966
REMARK SMILES CCOCC[n+]1ccc(CCC(O)=C2Cc3cc(OC)c(OC)cc3S2)cc1
REMARK SMILES IDX 9 1 8 2 7 3 6 4 28 5 27 6 10 7 11 8 12 9 13 10 14 12 15 13
REMARK SMILES IDX 26 14 16 15 25 16 17 17 24 18 18 19 21 20 19 21 20 22 22 23
REMARK SMILES IDX 23 24 5 25 4 26 3 27 2 28 1 29
REMARK H PARENT 13 11
ROOT
ATOM      1  C   UNL     1     -12.965 -44.768  27.308  1.00  0.00    -0.036 A 
ATOM      2  C   UNL     1     -12.268 -43.610  27.648  1.00  0.00     0.074 A 
ATOM      3  C   UNL     1     -11.155 -43.694  28.477  1.00  0.00     0.308 A 
ATOM      4  N   UNL     1     -10.740 -44.889  28.958  1.00  0.00    -0.203 N 
ATOM      5  C   UNL     1     -11.398 -46.025  28.636  1.00  0.00     0.308 A 
ATOM      6  C   UNL     1     -12.513 -45.989  27.808  1.00  0.00     0.074 A 
ENDROOT
BRANCH   1   7
ATOM      7  C   UNL     1     -14.216 -44.696  26.464  1.00  0.00     0.044 C 
BRANCH   7   8
ATOM      8  C   UNL     1     -14.519 -43.291  25.920  1.00  0.00     0.080 C 
BRANCH   8   9
ATOM      9  C   UNL     1     -15.313 -43.301  24.635  1.00  0.00     0.103 C 
BRANCH   9  10
ATOM     10  O   UNL     1     -14.661 -43.917  23.576  1.00  0.00    -0.511 OA
ATOM     11  H   UNL     1     -13.799 -43.462  23.482  1.00  0.00     0.293 HD
ENDBRANCH   9  10
BRANCH   9  12
ATOM     12  C   UNL     1     -16.558 -42.806  24.500  1.00  0.00     0.032 C 
ATOM     13  C   UNL     1     -17.611 -42.742  25.590  1.00  0.00     0.083 C 
ATOM     14  S   UNL     1     -17.100 -42.108  22.976  1.00  0.00    -0.090 SA
ATOM     15  C   UNL     1     -18.796 -42.014  25.021  1.00  0.00    -0.025 A 
ATOM     16  C   UNL     1     -18.663 -41.641  23.682  1.00  0.00     0.020 A 
ATOM     17  C   UNL     1     -19.962 -41.716  25.722  1.00  0.00     0.055 A 
ATOM     18  C   UNL     1     -19.677 -40.966  23.019  1.00  0.00     0.066 A 
ATOM     19  C   UNL     1     -20.998 -41.036  25.071  1.00  0.00     0.161 A 
ATOM     20  C   UNL     1     -20.854 -40.659  23.712  1.00  0.00     0.161 A 
BRANCH  19  21
ATOM     21  O   UNL     1     -22.186 -40.687  25.665  1.00  0.00    -0.493 OA
ATOM     22  C   UNL     1     -22.178 -40.414  27.058  1.00  0.00     0.278 C 
ENDBRANCH  19  21
BRANCH  20  23
ATOM     23  O   UNL     1     -21.922 -39.991  23.162  1.00  0.00    -0.493 OA
ATOM     24  C   UNL     1     -21.685 -39.201  22.005  1.00  0.00     0.278 C 
ENDBRANCH  20  23
ENDBRANCH   9  12
ENDBRANCH   8   9
ENDBRANCH   7   8
ENDBRANCH   1   7
BRANCH   4  25
ATOM     25  C   UNL     1      -9.561 -44.944  29.862  1.00  0.00     0.385 C 
BRANCH  25  26
ATOM     26  C   UNL     1      -8.903 -43.568  29.930  1.00  0.00     0.233 C 
BRANCH  26  27
ATOM     27  O   UNL     1      -7.523 -43.737  30.257  1.00  0.00    -0.375 OA
BRANCH  27  28
ATOM     28  C   UNL     1      -7.312 -44.441  31.485  1.00  0.00     0.157 C 
ATOM     29  C   UNL     1      -7.496 -43.520  32.678  1.00  0.00     0.035 C 
ENDBRANCH  27  28
ENDBRANCH  26  27
ENDBRANCH  25  26
ENDBRANCH   4  25
TORSDOF 11
ENDMDL
MODEL 6
REMARK VINA RESULT:    -8.624      1.943      3.289
REMARK INTER + INTRA:         -14.884
REMARK INTER:                 -14.295
REMARK INTRA:                  -0.589
REMARK UNBOUND:                -0.966
REMARK SMILES CCOCC[n+]1ccc(CCC(O)=C2Cc3cc(OC)c(OC)cc3S2)cc1
REMARK SMILES IDX 9 1 8 2 7 3 6 4 28 5 27 6 10 7 11 8 12 9 13 10 14 12 15 13
REMARK SMILES IDX 26 14 16 15 25 16 17 17 24 18 18 19 21 20 19 21 20 22 22 23
REMARK SMILES IDX 23 24 5 25 4 26 3 27 2 28 1 29
REMARK H PARENT 13 11
ROOT
ATOM      1  C   UNL     1     -12.925 -44.654  27.245  1.00  0.00    -0.036 A 
ATOM      2  C   UNL     1     -12.247 -43.461  27.496  1.00  0.00     0.074 A 
ATOM      3  C   UNL     1     -11.131 -43.465  28.324  1.00  0.00     0.308 A 
ATOM      4  N   UNL     1     -10.695 -44.613  28.892  1.00  0.00    -0.203 N 
ATOM      5  C   UNL     1     -11.334 -45.782  28.657  1.00  0.00     0.308 A 
ATOM      6  C   UNL     1     -12.451 -45.826  27.833  1.00  0.00     0.074 A 
ENDROOT
BRANCH   1   7
ATOM      7  C   UNL     1     -14.180 -44.666  26.402  1.00  0.00     0.044 C 
BRANCH   7   8
ATOM      8  C   UNL     1     -14.578 -43.284  25.861  1.00  0.00     0.080 C 
BRANCH   8   9
ATOM      9  C   UNL     1     -15.208 -43.333  24.489  1.00  0.00     0.103 C 
BRANCH   9  10
ATOM     10  O   UNL     1     -14.583 -44.211  23.615  1.00  0.00    -0.511 OA
ATOM     11  H   UNL     1     -14.793 -45.113  23.934  1.00  0.00     0.293 HD
ENDBRANCH   9  10
BRANCH   9  12
ATOM     12  C   UNL     1     -16.301 -42.638  24.122  1.00  0.00     0.032 C 
ATOM     13  C   UNL     1     -16.424 -41.760  22.892  1.00  0.00     0.083 C 
ATOM     14  S   UNL     1     -17.789 -42.721  25.062  1.00  0.00    -0.090 SA
ATOM     15  C   UNL     1     -17.848 -41.281  22.829  1.00  0.00    -0.025 A 
ATOM     16  C   UNL     1     -18.651 -41.699  23.891  1.00  0.00     0.020 A 
ATOM     17  C   UNL     1     -18.375 -40.476  21.821  1.00  0.00     0.055 A 
ATOM     18  C   UNL     1     -19.987 -41.332  23.971  1.00  0.00     0.066 A 
ATOM     19  C   UNL     1     -19.721 -40.094  21.884  1.00  0.00     0.161 A 
ATOM     20  C   UNL     1     -20.530 -40.525  22.965  1.00  0.00     0.161 A 
BRANCH  19  21
ATOM     21  O   UNL     1     -20.345 -39.310  20.945  1.00  0.00    -0.493 OA
ATOM     22  C   UNL     1     -19.918 -39.421  19.596  1.00  0.00     0.278 C 
ENDBRANCH  19  21
BRANCH  20  23
ATOM     23  O   UNL     1     -21.837 -40.103  22.936  1.00  0.00    -0.493 OA
ATOM     24  C   UNL     1     -22.836 -41.060  22.608  1.00  0.00     0.278 C 
ENDBRANCH  20  23
ENDBRANCH   9  12
ENDBRANCH   8   9
ENDBRANCH   7   8
ENDBRANCH   1   7
BRANCH   4  25
ATOM     25  C   UNL     1      -9.513 -44.581  29.793  1.00  0.00     0.385 C 
BRANCH  25  26
ATOM     26  C   UNL     1      -8.950 -43.163  29.848  1.00  0.00     0.233 C 
BRANCH  26  27
ATOM     27  O   UNL     1      -7.698 -43.195  30.536  1.00  0.00    -0.375 OA
BRANCH  27  28
ATOM     28  C   UNL     1      -7.718 -44.007  31.714  1.00  0.00     0.157 C 
ATOM     29  C   UNL     1      -8.034 -43.174  32.943  1.00  0.00     0.035 C 
ENDBRANCH  27  28
ENDBRANCH  26  27
ENDBRANCH  25  26
ENDBRANCH   4  25
TORSDOF 11
ENDMDL
MODEL 7
REMARK VINA RESULT:    -8.446      2.220      3.361
REMARK INTER + INTRA:         -14.596
REMARK INTER:                 -13.943
REMARK INTRA:                  -0.653
REMARK UNBOUND:                -0.966
REMARK SMILES CCOCC[n+]1ccc(CCC(O)=C2Cc3cc(OC)c(OC)cc3S2)cc1
REMARK SMILES IDX 9 1 8 2 7 3 6 4 28 5 27 6 10 7 11 8 12 9 13 10 14 12 15 13
REMARK SMILES IDX 26 14 16 15 25 16 17 17 24 18 18 19 21 20 19 21 20 22 22 23
REMARK SMILES IDX 23 24 5 25 4 26 3 27 2 28 1 29
REMARK H PARENT 13 11
ROOT
ATOM      1  C   UNL     1     -14.027 -44.675  26.956  1.00  0.00    -0.036 A 
ATOM      2  C   UNL     1     -14.623 -44.157  28.105  1.00  0.00     0.074 A 
ATOM      3  C   UNL     1     -14.281 -44.672  29.350  1.00  0.00     0.308 A 
ATOM      4  N   UNL     1     -13.376 -45.672  29.460  1.00  0.00    -0.203 N 
ATOM      5  C   UNL     1     -12.782 -46.185  28.359  1.00  0.00     0.308 A 
ATOM      6  C   UNL     1     -13.090 -45.699  27.095  1.00  0.00     0.074 A 
ENDROOT
BRANCH   1   7
ATOM      7  C   UNL     1     -14.431 -44.179  25.586  1.00  0.00     0.044 C 
BRANCH   7   8
ATOM      8  C   UNL     1     -14.301 -42.658  25.413  1.00  0.00     0.080 C 
BRANCH   8   9
ATOM      9  C   UNL     1     -15.218 -42.092  24.355  1.00  0.00     0.103 C 
BRANCH   9  10
ATOM     10  O   UNL     1     -14.561 -41.353  23.380  1.00  0.00    -0.511 OA
ATOM     11  H   UNL     1     -14.587 -41.893  22.563  1.00  0.00     0.293 HD
ENDBRANCH   9  10
BRANCH   9  12
ATOM     12  C   UNL     1     -16.547 -42.298  24.302  1.00  0.00     0.032 C 
ATOM     13  C   UNL     1     -17.428 -42.714  25.465  1.00  0.00     0.083 C 
ATOM     14  S   UNL     1     -17.448 -42.049  22.809  1.00  0.00    -0.090 SA
ATOM     15  C   UNL     1     -18.847 -42.712  24.969  1.00  0.00    -0.025 A 
ATOM     16  C   UNL     1     -18.992 -42.394  23.618  1.00  0.00     0.020 A 
ATOM     17  C   UNL     1     -19.964 -43.004  25.748  1.00  0.00     0.055 A 
ATOM     18  C   UNL     1     -20.243 -42.356  23.018  1.00  0.00     0.066 A 
ATOM     19  C   UNL     1     -21.235 -42.972  25.162  1.00  0.00     0.161 A 
ATOM     20  C   UNL     1     -21.374 -42.647  23.789  1.00  0.00     0.161 A 
BRANCH  19  21
ATOM     21  O   UNL     1     -22.403 -43.237  25.834  1.00  0.00    -0.493 OA
ATOM     22  C   UNL     1     -22.327 -43.470  27.233  1.00  0.00     0.278 C 
ENDBRANCH  19  21
BRANCH  20  23
ATOM     23  O   UNL     1     -22.660 -42.636  23.306  1.00  0.00    -0.493 OA
ATOM     24  C   UNL     1     -22.977 -43.522  22.240  1.00  0.00     0.278 C 
ENDBRANCH  20  23
ENDBRANCH   9  12
ENDBRANCH   8   9
ENDBRANCH   7   8
ENDBRANCH   1   7
BRANCH   4  25
ATOM     25  C   UNL     1     -13.049 -46.219  30.803  1.00  0.00     0.385 C 
BRANCH  25  26
ATOM     26  C   UNL     1     -11.752 -45.590  31.309  1.00  0.00     0.233 C 
BRANCH  26  27
ATOM     27  O   UNL     1     -10.795 -46.629  31.525  1.00  0.00    -0.375 OA
BRANCH  27  28
ATOM     28  C   UNL     1      -9.591 -46.456  30.772  1.00  0.00     0.157 C 
ATOM     29  C   UNL     1      -8.497 -45.842  31.629  1.00  0.00     0.035 C 
ENDBRANCH  27  28
ENDBRANCH  26  27
ENDBRANCH  25  26
ENDBRANCH   4  25
TORSDOF 11
ENDMDL
MODEL 8
REMARK VINA RESULT:    -8.394      1.888      2.884
REMARK INTER + INTRA:         -14.514
REMARK INTER:                 -13.866
REMARK INTRA:                  -0.648
REMARK UNBOUND:                -0.966
REMARK SMILES CCOCC[n+]1ccc(CCC(O)=C2Cc3cc(OC)c(OC)cc3S2)cc1
REMARK SMILES IDX 9 1 8 2 7 3 6 4 28 5 27 6 10 7 11 8 12 9 13 10 14 12 15 13
REMARK SMILES IDX 26 14 16 15 25 16 17 17 24 18 18 19 21 20 19 21 20 22 22 23
REMARK SMILES IDX 23 24 5 25 4 26 3 27 2 28 1 29
REMARK H PARENT 13 11
ROOT
ATOM      1  C   UNL     1     -12.202 -45.171  27.846  1.00  0.00    -0.036 A 
ATOM      2  C   UNL     1     -11.732 -43.918  28.235  1.00  0.00     0.074 A 
ATOM      3  C   UNL     1     -10.623 -43.825  29.068  1.00  0.00     0.308 A 
ATOM      4  N   UNL     1      -9.993 -44.940  29.507  1.00  0.00    -0.203 N 
ATOM      5  C   UNL     1     -10.429 -46.166  29.137  1.00  0.00     0.308 A 
ATOM      6  C   UNL     1     -11.531 -46.306  28.304  1.00  0.00     0.074 A 
ENDROOT
BRANCH   1   7
ATOM      7  C   UNL     1     -13.445 -45.301  26.996  1.00  0.00     0.044 C 
BRANCH   7   8
ATOM      8  C   UNL     1     -14.542 -44.281  27.341  1.00  0.00     0.080 C 
BRANCH   8   9
ATOM      9  C   UNL     1     -14.907 -43.377  26.188  1.00  0.00     0.103 C 
BRANCH   9  10
ATOM     10  O   UNL     1     -13.859 -43.131  25.313  1.00  0.00    -0.511 OA
ATOM     11  H   UNL     1     -13.118 -43.702  25.604  1.00  0.00     0.293 HD
ENDBRANCH   9  10
BRANCH   9  12
ATOM     12  C   UNL     1     -16.136 -42.872  25.970  1.00  0.00     0.032 C 
ATOM     13  C   UNL     1     -16.753 -42.590  24.613  1.00  0.00     0.083 C 
ATOM     14  S   UNL     1     -17.222 -42.510  27.309  1.00  0.00    -0.090 SA
ATOM     15  C   UNL     1     -18.168 -42.144  24.853  1.00  0.00    -0.025 A 
ATOM     16  C   UNL     1     -18.531 -42.054  26.198  1.00  0.00     0.020 A 
ATOM     17  C   UNL     1     -19.084 -41.825  23.853  1.00  0.00     0.055 A 
ATOM     18  C   UNL     1     -19.805 -41.652  26.574  1.00  0.00     0.066 A 
ATOM     19  C   UNL     1     -20.374 -41.416  24.212  1.00  0.00     0.161 A 
ATOM     20  C   UNL     1     -20.736 -41.329  25.580  1.00  0.00     0.161 A 
BRANCH  19  21
ATOM     21  O   UNL     1     -21.357 -41.083  23.312  1.00  0.00    -0.493 OA
ATOM     22  C   UNL     1     -21.159 -41.436  21.951  1.00  0.00     0.278 C 
ENDBRANCH  19  21
BRANCH  20  23
ATOM     23  O   UNL     1     -22.024 -40.924  25.831  1.00  0.00    -0.493 OA
ATOM     24  C   UNL     1     -22.331 -40.462  27.140  1.00  0.00     0.278 C 
ENDBRANCH  20  23
ENDBRANCH   9  12
ENDBRANCH   8   9
ENDBRANCH   7   8
ENDBRANCH   1   7
BRANCH   4  25
ATOM     25  C   UNL     1      -8.825 -44.811  30.417  1.00  0.00     0.385 C 
BRANCH  25  26
ATOM     26  C   UNL     1      -9.306 -44.778  31.865  1.00  0.00     0.233 C 
BRANCH  26  27
ATOM     27  O   UNL     1      -9.111 -43.460  32.382  1.00  0.00    -0.375 OA
BRANCH  27  28
ATOM     28  C   UNL     1     -10.170 -43.024  33.239  1.00  0.00     0.157 C 
ATOM     29  C   UNL     1      -9.628 -42.232  34.415  1.00  0.00     0.035 C 
ENDBRANCH  27  28
ENDBRANCH  26  27
ENDBRANCH  25  26
ENDBRANCH   4  25
TORSDOF 11
ENDMDL
MODEL 9
REMARK VINA RESULT:    -8.342      2.345      3.543
REMARK INTER + INTRA:         -14.429
REMARK INTER:                 -13.692
REMARK INTRA:                  -0.737
REMARK UNBOUND:                -0.966
REMARK SMILES CCOCC[n+]1ccc(CCC(O)=C2Cc3cc(OC)c(OC)cc3S2)cc1
REMARK SMILES IDX 9 1 8 2 7 3 6 4 28 5 27 6 10 7 11 8 12 9 13 10 14 12 15 13
REMARK SMILES IDX 26 14 16 15 25 16 17 17 24 18 18 19 21 20 19 21 20 22 22 23
REMARK SMILES IDX 23 24 5 25 4 26 3 27 2 28 1 29
REMARK H PARENT 13 11
ROOT
ATOM      1  C   UNL     1     -13.085 -43.668  27.012  1.00  0.00    -0.036 A 
ATOM      2  C   UNL     1     -13.491 -44.986  27.217  1.00  0.00     0.074 A 
ATOM      3  C   UNL     1     -12.756 -45.811  28.060  1.00  0.00     0.308 A 
ATOM      4  N   UNL     1     -11.648 -45.349  28.685  1.00  0.00    -0.203 N 
ATOM      5  C   UNL     1     -11.239 -44.072  28.505  1.00  0.00     0.308 A 
ATOM      6  C   UNL     1     -11.945 -43.211  27.674  1.00  0.00     0.074 A 
ENDROOT
BRANCH   1   7
ATOM      7  C   UNL     1     -13.829 -42.771  26.049  1.00  0.00     0.044 C 
BRANCH   7   8
ATOM      8  C   UNL     1     -15.297 -43.173  25.834  1.00  0.00     0.080 C 
BRANCH   8   9
ATOM      9  C   UNL     1     -15.716 -43.167  24.383  1.00  0.00     0.103 C 
BRANCH   9  10
ATOM     10  O   UNL     1     -14.913 -43.948  23.563  1.00  0.00    -0.511 OA
ATOM     11  H   UNL     1     -15.140 -43.702  22.642  1.00  0.00     0.293 HD
ENDBRANCH   9  10
BRANCH   9  12
ATOM     12  C   UNL     1     -16.789 -42.513  23.898  1.00  0.00     0.032 C 
ATOM     13  C   UNL     1     -18.155 -42.442  24.553  1.00  0.00     0.083 C 
ATOM     14  S   UNL     1     -16.693 -41.592  22.400  1.00  0.00    -0.090 SA
ATOM     15  C   UNL     1     -18.999 -41.517  23.720  1.00  0.00    -0.025 A 
ATOM     16  C   UNL     1     -18.365 -41.019  22.580  1.00  0.00     0.020 A 
ATOM     17  C   UNL     1     -20.313 -41.159  24.009  1.00  0.00     0.055 A 
ATOM     18  C   UNL     1     -19.019 -40.156  21.713  1.00  0.00     0.066 A 
ATOM     19  C   UNL     1     -20.992 -40.290  23.145  1.00  0.00     0.161 A 
ATOM     20  C   UNL     1     -20.341 -39.787  21.991  1.00  0.00     0.161 A 
BRANCH  19  21
ATOM     21  O   UNL     1     -22.284 -39.867  23.334  1.00  0.00    -0.493 OA
ATOM     22  C   UNL     1     -23.027 -40.451  24.394  1.00  0.00     0.278 C 
ENDBRANCH  19  21
BRANCH  20  23
ATOM     23  O   UNL     1     -21.086 -38.938  21.208  1.00  0.00    -0.493 OA
ATOM     24  C   UNL     1     -21.144 -39.201  19.813  1.00  0.00     0.278 C 
ENDBRANCH  20  23
ENDBRANCH   9  12
ENDBRANCH   8   9
ENDBRANCH   7   8
ENDBRANCH   1   7
BRANCH   4  25
ATOM     25  C   UNL     1     -10.867 -46.261  29.561  1.00  0.00     0.385 C 
BRANCH  25  26
ATOM     26  C   UNL     1     -11.276 -46.046  31.016  1.00  0.00     0.233 C 
BRANCH  26  27
ATOM     27  O   UNL     1     -12.612 -46.523  31.191  1.00  0.00    -0.375 OA
BRANCH  27  28
ATOM     28  C   UNL     1     -13.435 -45.638  31.956  1.00  0.00     0.157 C 
ATOM     29  C   UNL     1     -12.985 -44.197  31.790  1.00  0.00     0.035 C 
ENDBRANCH  27  28
ENDBRANCH  26  27
ENDBRANCH  25  26
ENDBRANCH   4  25
TORSDOF 11
ENDMDL
