MODEL 1
REMARK VINA RESULT:    -7.752      0.000      0.000
REMARK INTER + INTRA:          -9.724
REMARK INTER:                  -9.338
REMARK INTRA:                  -0.386
REMARK UNBOUND:                -0.386
REMARK SMILES COc1cc2c(cc1OC(C)C)CC(C)=C2O
REMARK SMILES IDX 16 1 14 2 15 3 13 4 6 5 7 6 8 7 3 8 4 9 5 10 17 11 2 13 1 14
REMARK SMILES IDX 9 15 10 16 11 17 12 18
REMARK H PARENT 17 12
ROOT
ATOM      1  C   UNL     1     -15.727 -43.175  27.020  1.00  0.00     0.122 C 
ATOM      2  C   UNL     1     -15.395 -43.379  25.736  1.00  0.00    -0.026 C 
ATOM      3  C   UNL     1     -16.003 -42.761  24.530  1.00  0.00     0.044 C 
ATOM      4  C   UNL     1     -14.261 -44.371  25.608  1.00  0.00     0.071 C 
ATOM      5  C   UNL     1     -13.994 -44.699  27.049  1.00  0.00    -0.029 A 
ATOM      6  C   UNL     1     -13.049 -45.563  27.571  1.00  0.00     0.055 A 
ATOM      7  C   UNL     1     -12.982 -45.695  28.961  1.00  0.00     0.161 A 
ATOM      8  C   UNL     1     -13.882 -45.011  29.813  1.00  0.00     0.161 A 
ATOM      9  C   UNL     1     -14.828 -44.136  29.259  1.00  0.00     0.062 A 
ATOM     10  C   UNL     1     -14.873 -43.987  27.879  1.00  0.00     0.024 A 
ENDROOT
BRANCH   1  11
ATOM     11  O   UNL     1     -16.700 -42.349  27.486  1.00  0.00    -0.507 OA
ATOM     12  H   UNL     1     -17.225 -42.832  28.142  1.00  0.00     0.293 HD
ENDBRANCH   1  11
BRANCH   8  13
ATOM     13  O   UNL     1     -13.751 -45.263  31.155  1.00  0.00    -0.493 OA
ATOM     14  C   UNL     1     -13.414 -44.170  31.998  1.00  0.00     0.278 C 
ENDBRANCH   8  13
BRANCH   7  15
ATOM     15  O   UNL     1     -12.054 -46.586  29.441  1.00  0.00    -0.487 OA
BRANCH  15  16
ATOM     16  C   UNL     1     -10.767 -45.982  29.649  1.00  0.00     0.167 C 
ATOM     17  C   UNL     1     -10.340 -46.290  31.080  1.00  0.00     0.052 C 
ATOM     18  C   UNL     1      -9.782 -46.593  28.656  1.00  0.00     0.052 C 
ENDBRANCH  15  16
ENDBRANCH   7  15
TORSDOF 4
ENDMDL
MODEL 2
REMARK VINA RESULT:    -7.719      2.716      6.289
REMARK INTER + INTRA:          -9.685
REMARK INTER:                  -9.291
REMARK INTRA:                  -0.395
REMARK UNBOUND:                -0.386
REMARK SMILES COc1cc2c(cc1OC(C)C)CC(C)=C2O
REMARK SMILES IDX 16 1 14 2 15 3 13 4 6 5 7 6 8 7 3 8 4 9 5 10 17 11 2 13 1 14
REMARK SMILES IDX 9 15 10 16 11 17 12 18
REMARK H PARENT 17 12
ROOT
ATOM      1  C   UNL     1      -9.204 -43.153  32.972  1.00  0.00     0.122 C 
ATOM      2  C   UNL     1      -8.081 -43.760  32.558  1.00  0.00    -0.026 C 
ATOM      3  C   UNL     1      -6.694 -43.532  33.039  1.00  0.00     0.044 C 
ATOM      4  C   UNL     1      -8.365 -44.775  31.475  1.00  0.00     0.071 C 
ATOM      5  C   UNL     1      -9.856 -44.650  31.340  1.00  0.00    -0.029 A 
ATOM      6  C   UNL     1     -10.701 -45.341  30.492  1.00  0.00     0.055 A 
ATOM      7  C   UNL     1     -12.068 -45.057  30.558  1.00  0.00     0.161 A 
ATOM      8  C   UNL     1     -12.574 -44.060  31.425  1.00  0.00     0.161 A 
ATOM      9  C   UNL     1     -11.698 -43.377  32.280  1.00  0.00     0.062 A 
ATOM     10  C   UNL     1     -10.343 -43.682  32.230  1.00  0.00     0.024 A 
ENDROOT
BRANCH   1  11
ATOM     11  O   UNL     1      -9.304 -42.194  33.928  1.00  0.00    -0.507 OA
ATOM     12  H   UNL     1     -10.042 -41.608  33.699  1.00  0.00     0.293 HD
ENDBRANCH   1  11
BRANCH   8  13
ATOM     13  O   UNL     1     -13.927 -43.837  31.361  1.00  0.00    -0.493 OA
ATOM     14  C   UNL     1     -14.525 -43.125  32.435  1.00  0.00     0.278 C 
ENDBRANCH   8  13
BRANCH   7  15
ATOM     15  O   UNL     1     -12.872 -45.739  29.678  1.00  0.00    -0.487 OA
BRANCH  15  16
ATOM     16  C   UNL     1     -12.690 -45.307  28.319  1.00  0.00     0.167 C 
ATOM     17  C   UNL     1     -12.377 -46.543  27.481  1.00  0.00     0.052 C 
ATOM     18  C   UNL     1     -13.986 -44.656  27.843  1.00  0.00     0.052 C 
ENDBRANCH  15  16
ENDBRANCH   7  15
TORSDOF 4
ENDMDL
MODEL 3
REMARK VINA RESULT:    -7.663      1.388      2.922
REMARK INTER + INTRA:          -9.617
REMARK INTER:                  -9.172
REMARK INTRA:                  -0.445
REMARK UNBOUND:                -0.386
REMARK SMILES COc1cc2c(cc1OC(C)C)CC(C)=C2O
REMARK SMILES IDX 16 1 14 2 15 3 13 4 6 5 7 6 8 7 3 8 4 9 5 10 17 11 2 13 1 14
REMARK SMILES IDX 9 15 10 16 11 17 12 18
REMARK H PARENT 17 12
ROOT
ATOM      1  C   UNL     1     -14.677 -44.014  25.317  1.00  0.00     0.122 C 
ATOM      2  C   UNL     1     -15.652 -43.122  25.549  1.00  0.00    -0.026 C 
ATOM      3  C   UNL     1     -16.428 -42.344  24.549  1.00  0.00     0.044 C 
ATOM      4  C   UNL     1     -15.914 -42.957  27.028  1.00  0.00     0.071 C 
ATOM      5  C   UNL     1     -14.920 -43.920  27.611  1.00  0.00    -0.029 A 
ATOM      6  C   UNL     1     -14.688 -44.213  28.942  1.00  0.00     0.055 A 
ATOM      7  C   UNL     1     -13.708 -45.163  29.241  1.00  0.00     0.161 A 
ATOM      8  C   UNL     1     -12.935 -45.773  28.224  1.00  0.00     0.161 A 
ATOM      9  C   UNL     1     -13.193 -45.464  26.881  1.00  0.00     0.062 A 
ATOM     10  C   UNL     1     -14.187 -44.539  26.587  1.00  0.00     0.024 A 
ENDROOT
BRANCH   1  11
ATOM     11  O   UNL     1     -14.195 -44.396  24.106  1.00  0.00    -0.507 OA
ATOM     12  H   UNL     1     -13.467 -43.804  23.865  1.00  0.00     0.293 HD
ENDBRANCH   1  11
BRANCH   8  13
ATOM     13  O   UNL     1     -11.968 -46.650  28.647  1.00  0.00    -0.493 OA
ATOM     14  C   UNL     1     -10.613 -46.289  28.422  1.00  0.00     0.278 C 
ENDBRANCH   8  13
BRANCH   7  15
ATOM     15  O   UNL     1     -13.484 -45.403  30.574  1.00  0.00    -0.487 OA
BRANCH  15  16
ATOM     16  C   UNL     1     -12.848 -44.296  31.234  1.00  0.00     0.167 C 
ATOM     17  C   UNL     1     -13.733 -43.888  32.406  1.00  0.00     0.052 C 
ATOM     18  C   UNL     1     -11.481 -44.754  31.734  1.00  0.00     0.052 C 
ENDBRANCH  15  16
ENDBRANCH   7  15
TORSDOF 4
ENDMDL
MODEL 4
REMARK VINA RESULT:    -7.480      4.170      6.867
REMARK INTER + INTRA:          -9.396
REMARK INTER:                  -8.915
REMARK INTRA:                  -0.481
REMARK UNBOUND:                -0.386
REMARK SMILES COc1cc2c(cc1OC(C)C)CC(C)=C2O
REMARK SMILES IDX 16 1 14 2 15 3 13 4 6 5 7 6 8 7 3 8 4 9 5 10 17 11 2 13 1 14
REMARK SMILES IDX 9 15 10 16 11 17 12 18
REMARK H PARENT 17 12
ROOT
ATOM      1  C   UNL     1      -8.794 -45.833  31.600  1.00  0.00     0.122 C 
ATOM      2  C   UNL     1      -8.081 -44.779  32.026  1.00  0.00    -0.026 C 
ATOM      3  C   UNL     1      -6.611 -44.696  32.223  1.00  0.00     0.044 C 
ATOM      4  C   UNL     1      -8.968 -43.589  32.313  1.00  0.00     0.071 C 
ATOM      5  C   UNL     1     -10.322 -44.143  31.972  1.00  0.00    -0.029 A 
ATOM      6  C   UNL     1     -11.548 -43.508  32.034  1.00  0.00     0.055 A 
ATOM      7  C   UNL     1     -12.679 -44.233  31.649  1.00  0.00     0.161 A 
ATOM      8  C   UNL     1     -12.589 -45.590  31.257  1.00  0.00     0.161 A 
ATOM      9  C   UNL     1     -11.333 -46.210  31.196  1.00  0.00     0.062 A 
ATOM     10  C   UNL     1     -10.208 -45.477  31.554  1.00  0.00     0.024 A 
ENDROOT
BRANCH   1  11
ATOM     11  O   UNL     1      -8.312 -47.056  31.257  1.00  0.00    -0.507 OA
ATOM     12  H   UNL     1      -7.441 -47.168  31.665  1.00  0.00     0.293 HD
ENDBRANCH   1  11
BRANCH   8  13
ATOM     13  O   UNL     1     -13.775 -46.210  30.953  1.00  0.00    -0.493 OA
ATOM     14  C   UNL     1     -14.309 -47.111  31.912  1.00  0.00     0.278 C 
ENDBRANCH   8  13
BRANCH   7  15
ATOM     15  O   UNL     1     -13.883 -43.581  31.755  1.00  0.00    -0.487 OA
BRANCH  15  16
ATOM     16  C   UNL     1     -14.077 -42.992  33.052  1.00  0.00     0.167 C 
ATOM     17  C   UNL     1     -15.080 -41.854  32.896  1.00  0.00     0.052 C 
ATOM     18  C   UNL     1     -14.630 -44.063  33.989  1.00  0.00     0.052 C 
ENDBRANCH  15  16
ENDBRANCH   7  15
TORSDOF 4
ENDMDL
MODEL 5
REMARK VINA RESULT:    -7.368      3.719      8.411
REMARK INTER + INTRA:          -9.262
REMARK INTER:                  -8.859
REMARK INTRA:                  -0.402
REMARK UNBOUND:                -0.386
REMARK SMILES COc1cc2c(cc1OC(C)C)CC(C)=C2O
REMARK SMILES IDX 16 1 14 2 15 3 13 4 6 5 7 6 8 7 3 8 4 9 5 10 17 11 2 13 1 14
REMARK SMILES IDX 9 15 10 16 11 17 12 18
REMARK H PARENT 17 12
ROOT
ATOM      1  C   UNL     1     -16.213 -42.797  26.722  1.00  0.00     0.122 C 
ATOM      2  C   UNL     1     -15.144 -43.085  25.963  1.00  0.00    -0.026 C 
ATOM      3  C   UNL     1     -13.794 -43.508  26.418  1.00  0.00     0.044 C 
ATOM      4  C   UNL     1     -15.449 -42.927  24.491  1.00  0.00     0.071 C 
ATOM      5  C   UNL     1     -16.889 -42.503  24.534  1.00  0.00    -0.029 A 
ATOM      6  C   UNL     1     -17.729 -42.210  23.476  1.00  0.00     0.055 A 
ATOM      7  C   UNL     1     -19.046 -41.846  23.768  1.00  0.00     0.161 A 
ATOM      8  C   UNL     1     -19.501 -41.728  25.103  1.00  0.00     0.161 A 
ATOM      9  C   UNL     1     -18.633 -42.037  26.159  1.00  0.00     0.062 A 
ATOM     10  C   UNL     1     -17.332 -42.425  25.863  1.00  0.00     0.024 A 
ENDROOT
BRANCH   1  11
ATOM     11  O   UNL     1     -16.283 -42.836  28.077  1.00  0.00    -0.507 OA
ATOM     12  H   UNL     1     -16.385 -41.931  28.406  1.00  0.00     0.293 HD
ENDBRANCH   1  11
BRANCH   8  13
ATOM     13  O   UNL     1     -20.799 -41.312  25.262  1.00  0.00    -0.493 OA
ATOM     14  C   UNL     1     -21.238 -41.024  26.582  1.00  0.00     0.278 C 
ENDBRANCH   8  13
BRANCH   7  15
ATOM     15  O   UNL     1     -19.840 -41.529  22.693  1.00  0.00    -0.487 OA
BRANCH  15  16
ATOM     16  C   UNL     1     -19.516 -40.248  22.128  1.00  0.00     0.167 C 
ATOM     17  C   UNL     1     -19.388 -40.429  20.619  1.00  0.00     0.052 C 
ATOM     18  C   UNL     1     -20.650 -39.279  22.452  1.00  0.00     0.052 C 
ENDBRANCH  15  16
ENDBRANCH   7  15
TORSDOF 4
ENDMDL
MODEL 6
REMARK VINA RESULT:    -7.363      4.040      8.290
REMARK INTER + INTRA:          -9.256
REMARK INTER:                  -8.847
REMARK INTRA:                  -0.409
REMARK UNBOUND:                -0.386
REMARK SMILES COc1cc2c(cc1OC(C)C)CC(C)=C2O
REMARK SMILES IDX 16 1 14 2 15 3 13 4 6 5 7 6 8 7 3 8 4 9 5 10 17 11 2 13 1 14
REMARK SMILES IDX 9 15 10 16 11 17 12 18
REMARK H PARENT 17 12
ROOT
ATOM      1  C   UNL     1     -15.309 -43.470  24.725  1.00  0.00     0.122 C 
ATOM      2  C   UNL     1     -14.965 -43.480  26.022  1.00  0.00    -0.026 C 
ATOM      3  C   UNL     1     -13.694 -43.961  26.622  1.00  0.00     0.044 C 
ATOM      4  C   UNL     1     -16.065 -42.917  26.893  1.00  0.00     0.071 C 
ATOM      5  C   UNL     1     -17.106 -42.575  25.865  1.00  0.00    -0.029 A 
ATOM      6  C   UNL     1     -18.354 -42.016  26.062  1.00  0.00     0.055 A 
ATOM      7  C   UNL     1     -19.148 -41.777  24.937  1.00  0.00     0.161 A 
ATOM      8  C   UNL     1     -18.719 -42.141  23.639  1.00  0.00     0.161 A 
ATOM      9  C   UNL     1     -17.445 -42.701  23.463  1.00  0.00     0.062 A 
ATOM     10  C   UNL     1     -16.649 -42.912  24.582  1.00  0.00     0.024 A 
ENDROOT
BRANCH   1  11
ATOM     11  O   UNL     1     -14.556 -43.904  23.681  1.00  0.00    -0.507 OA
ATOM     12  H   UNL     1     -15.150 -44.199  22.975  1.00  0.00     0.293 HD
ENDBRANCH   1  11
BRANCH   8  13
ATOM     13  O   UNL     1     -19.608 -41.903  22.621  1.00  0.00    -0.493 OA
ATOM     14  C   UNL     1     -19.388 -40.757  21.811  1.00  0.00     0.278 C 
ENDBRANCH   8  13
BRANCH   7  15
ATOM     15  O   UNL     1     -20.394 -41.251  25.175  1.00  0.00    -0.487 OA
BRANCH  15  16
ATOM     16  C   UNL     1     -21.026 -41.832  26.328  1.00  0.00     0.167 C 
ATOM     17  C   UNL     1     -21.919 -40.765  26.951  1.00  0.00     0.052 C 
ATOM     18  C   UNL     1     -21.862 -43.024  25.870  1.00  0.00     0.052 C 
ENDBRANCH  15  16
ENDBRANCH   7  15
TORSDOF 4
ENDMDL
MODEL 7
REMARK VINA RESULT:    -7.258      2.517      5.808
REMARK INTER + INTRA:          -9.130
REMARK INTER:                  -8.812
REMARK INTRA:                  -0.318
REMARK UNBOUND:                -0.386
REMARK SMILES COc1cc2c(cc1OC(C)C)CC(C)=C2O
REMARK SMILES IDX 16 1 14 2 15 3 13 4 6 5 7 6 8 7 3 8 4 9 5 10 17 11 2 13 1 14
REMARK SMILES IDX 9 15 10 16 11 17 12 18
REMARK H PARENT 17 12
ROOT
ATOM      1  C   UNL     1     -11.389 -42.596  33.495  1.00  0.00     0.122 C 
ATOM      2  C   UNL     1     -10.069 -42.730  33.694  1.00  0.00    -0.026 C 
ATOM      3  C   UNL     1      -9.210 -41.972  34.640  1.00  0.00     0.044 C 
ATOM      4  C   UNL     1      -9.479 -43.799  32.803  1.00  0.00     0.071 C 
ATOM      5  C   UNL     1     -10.697 -44.264  32.057  1.00  0.00    -0.029 A 
ATOM      6  C   UNL     1     -10.786 -45.246  31.088  1.00  0.00     0.055 A 
ATOM      7  C   UNL     1     -12.045 -45.512  30.542  1.00  0.00     0.161 A 
ATOM      8  C   UNL     1     -13.188 -44.770  30.924  1.00  0.00     0.161 A 
ATOM      9  C   UNL     1     -13.073 -43.783  31.913  1.00  0.00     0.062 A 
ATOM     10  C   UNL     1     -11.825 -43.541  32.472  1.00  0.00     0.024 A 
ENDROOT
BRANCH   1  11
ATOM     11  O   UNL     1     -12.223 -41.731  34.128  1.00  0.00    -0.507 OA
ATOM     12  H   UNL     1     -11.823 -41.483  34.975  1.00  0.00     0.293 HD
ENDBRANCH   1  11
BRANCH   8  13
ATOM     13  O   UNL     1     -14.356 -45.089  30.278  1.00  0.00    -0.493 OA
ATOM     14  C   UNL     1     -15.170 -44.017  29.827  1.00  0.00     0.278 C 
ENDBRANCH   8  13
BRANCH   7  15
ATOM     15  O   UNL     1     -12.089 -46.471  29.560  1.00  0.00    -0.487 OA
BRANCH  15  16
ATOM     16  C   UNL     1     -11.625 -45.981  28.291  1.00  0.00     0.167 C 
ATOM     17  C   UNL     1     -10.319 -46.698  27.969  1.00  0.00     0.052 C 
ATOM     18  C   UNL     1     -12.682 -46.300  27.236  1.00  0.00     0.052 C 
ENDBRANCH  15  16
ENDBRANCH   7  15
TORSDOF 4
ENDMDL
MODEL 8
REMARK VINA RESULT:    -7.066      3.448      7.119
REMARK INTER + INTRA:          -8.898
REMARK INTER:                  -8.556
REMARK INTRA:                  -0.342
REMARK UNBOUND:                -0.386
REMARK SMILES COc1cc2c(cc1OC(C)C)CC(C)=C2O
REMARK SMILES IDX 16 1 14 2 15 3 13 4 6 5 7 6 8 7 3 8 4 9 5 10 17 11 2 13 1 14
REMARK SMILES IDX 9 15 10 16 11 17 12 18
REMARK H PARENT 17 12
ROOT
ATOM      1  C   UNL     1      -7.640 -43.916  31.266  1.00  0.00     0.122 C 
ATOM      2  C   UNL     1      -7.457 -43.433  32.504  1.00  0.00    -0.026 C 
ATOM      3  C   UNL     1      -6.171 -43.211  33.213  1.00  0.00     0.044 C 
ATOM      4  C   UNL     1      -8.773 -43.109  33.174  1.00  0.00     0.071 C 
ATOM      5  C   UNL     1      -9.751 -43.487  32.097  1.00  0.00    -0.029 A 
ATOM      6  C   UNL     1     -11.130 -43.409  32.126  1.00  0.00     0.055 A 
ATOM      7  C   UNL     1     -11.831 -43.811  30.986  1.00  0.00     0.161 A 
ATOM      8  C   UNL     1     -11.162 -44.332  29.853  1.00  0.00     0.161 A 
ATOM      9  C   UNL     1      -9.762 -44.395  29.845  1.00  0.00     0.062 A 
ATOM     10  C   UNL     1      -9.068 -43.968  30.970  1.00  0.00     0.024 A 
ENDROOT
BRANCH   1  11
ATOM     11  O   UNL     1      -6.674 -44.305  30.394  1.00  0.00    -0.507 OA
ATOM     12  H   UNL     1      -6.873 -43.924  29.525  1.00  0.00     0.293 HD
ENDBRANCH   1  11
BRANCH   8  13
ATOM     13  O   UNL     1     -11.963 -44.742  28.816  1.00  0.00    -0.493 OA
ATOM     14  C   UNL     1     -12.012 -46.133  28.536  1.00  0.00     0.278 C 
ENDBRANCH   8  13
BRANCH   7  15
ATOM     15  O   UNL     1     -13.201 -43.751  31.064  1.00  0.00    -0.487 OA
BRANCH  15  16
ATOM     16  C   UNL     1     -13.673 -43.682  32.420  1.00  0.00     0.167 C 
ATOM     17  C   UNL     1     -14.754 -42.608  32.478  1.00  0.00     0.052 C 
ATOM     18  C   UNL     1     -14.253 -45.042  32.797  1.00  0.00     0.052 C 
ENDBRANCH  15  16
ENDBRANCH   7  15
TORSDOF 4
ENDMDL
MODEL 9
REMARK VINA RESULT:    -6.920      3.446      5.405
REMARK INTER + INTRA:          -8.723
REMARK INTER:                  -8.560
REMARK INTRA:                  -0.162
REMARK UNBOUND:                -0.386
REMARK SMILES COc1cc2c(cc1OC(C)C)CC(C)=C2O
REMARK SMILES IDX 16 1 14 2 15 3 13 4 6 5 7 6 8 7 3 8 4 9 5 10 17 11 2 13 1 14
REMARK SMILES IDX 9 15 10 16 11 17 12 18
REMARK H PARENT 17 12
ROOT
ATOM      1  C   UNL     1     -13.749 -44.558  32.574  1.00  0.00     0.122 C 
ATOM      2  C   UNL     1     -13.731 -43.334  33.124  1.00  0.00    -0.026 C 
ATOM      3  C   UNL     1     -14.610 -42.807  34.200  1.00  0.00     0.044 C 
ATOM      4  C   UNL     1     -12.658 -42.465  32.509  1.00  0.00     0.071 C 
ATOM      5  C   UNL     1     -12.055 -43.408  31.508  1.00  0.00    -0.029 A 
ATOM      6  C   UNL     1     -11.012 -43.177  30.631  1.00  0.00     0.055 A 
ATOM      7  C   UNL     1     -10.616 -44.224  29.796  1.00  0.00     0.161 A 
ATOM      8  C   UNL     1     -11.288 -45.469  29.801  1.00  0.00     0.161 A 
ATOM      9  C   UNL     1     -12.340 -45.682  30.704  1.00  0.00     0.062 A 
ATOM     10  C   UNL     1     -12.713 -44.647  31.552  1.00  0.00     0.024 A 
ENDROOT
BRANCH   1  11
ATOM     11  O   UNL     1     -14.585 -45.580  32.894  1.00  0.00    -0.507 OA
ATOM     12  H   UNL     1     -14.087 -46.237  33.403  1.00  0.00     0.293 HD
ENDBRANCH   1  11
BRANCH   8  13
ATOM     13  O   UNL     1     -10.841 -46.400  28.898  1.00  0.00    -0.493 OA
ATOM     14  C   UNL     1     -11.612 -46.597  27.722  1.00  0.00     0.278 C 
ENDBRANCH   8  13
BRANCH   7  15
ATOM     15  O   UNL     1      -9.598 -43.946  28.916  1.00  0.00    -0.487 OA
BRANCH  15  16
ATOM     16  C   UNL     1      -9.716 -42.638  28.333  1.00  0.00     0.167 C 
ATOM     17  C   UNL     1      -8.497 -42.418  27.444  1.00  0.00     0.052 C 
ATOM     18  C   UNL     1     -10.996 -42.595  27.502  1.00  0.00     0.052 C 
ENDBRANCH  15  16
ENDBRANCH   7  15
TORSDOF 4
ENDMDL
