MODEL 1
REMARK VINA RESULT:   -12.804      0.000      0.000
REMARK INTER + INTRA:         -17.471
REMARK INTER:                 -16.921
REMARK INTRA:                  -0.550
REMARK UNBOUND:                -0.550
REMARK SMILES O=C1C(=NCCNc2c3c(nc4cc(Cl)ccc24)CCCC3)CC(=O)c2c(O)cccc21
REMARK SMILES IDX 5 1 4 2 3 3 23 4 24 5 26 6 2 7 27 8 32 9 29 10 31 11 30 12
REMARK SMILES IDX 25 13 1 14 28 15 6 17 7 18 8 20 9 21 18 22 10 23 22 24 17 25
REMARK SMILES IDX 12 26 11 27 19 28 21 29 16 30 13 31 20 32 14 33 15 34
REMARK H PARENT 28 16 7 19
ROOT
ATOM      1  C   UNL     1     -13.410 -45.371  28.275  1.00  0.00     0.163 C 
ENDROOT
BRANCH   1   2
ATOM      2  N   UNL     1     -14.373 -44.275  28.385  1.00  0.00    -0.283 NA
BRANCH   2   3
ATOM      3  C   UNL     1     -14.857 -43.712  27.329  1.00  0.00     0.091 C 
ATOM      4  C   UNL     1     -14.307 -43.835  25.943  1.00  0.00     0.141 C 
ATOM      5  C   UNL     1     -14.994 -43.034  24.877  1.00  0.00     0.173 C 
ATOM      6  C   UNL     1     -16.442 -42.773  25.036  1.00  0.00     0.071 A 
ATOM      7  C   UNL     1     -16.109 -42.868  27.497  1.00  0.00     0.208 C 
ATOM      8  C   UNL     1     -17.292 -42.588  23.938  1.00  0.00     0.127 A 
ATOM      9  C   UNL     1     -16.965 -42.652  26.322  1.00  0.00     0.038 A 
ATOM     10  C   UNL     1     -18.638 -42.257  24.127  1.00  0.00     0.047 A 
ATOM     11  C   UNL     1     -18.309 -42.308  26.517  1.00  0.00     0.013 A 
ATOM     12  C   UNL     1     -19.142 -42.109  25.418  1.00  0.00     0.005 A 
ATOM     13  O   UNL     1     -14.370 -42.628  23.902  1.00  0.00    -0.294 OA
ATOM     14  O   UNL     1     -16.410 -42.407  28.588  1.00  0.00    -0.287 OA
BRANCH   8  15
ATOM     15  O   UNL     1     -16.831 -42.771  22.667  1.00  0.00    -0.507 OA
ATOM     16  H   UNL     1     -17.476 -43.275  22.142  1.00  0.00     0.293 HD
ENDBRANCH   8  15
ENDBRANCH   2   3
ENDBRANCH   1   2
BRANCH   1  17
ATOM     17  C   UNL     1     -12.072 -44.971  28.913  1.00  0.00     0.136 C 
BRANCH  17  18
ATOM     18  N   UNL     1     -11.922 -45.654  30.210  1.00  0.00    -0.382 N 
ATOM     19  H   UNL     1     -12.815 -46.052  30.495  1.00  0.00     0.160 HD
BRANCH  18  20
ATOM     20  C   UNL     1     -11.452 -44.764  31.220  1.00  0.00     0.049 A 
ATOM     21  C   UNL     1     -10.061 -44.648  31.416  1.00  0.00    -0.003 A 
ATOM     22  C   UNL     1     -12.343 -43.942  31.967  1.00  0.00     0.024 A 
ATOM     23  C   UNL     1      -9.614 -43.753  32.387  1.00  0.00     0.046 A 
ATOM     24  C   UNL     1      -9.090 -45.542  30.678  1.00  0.00     0.039 C 
ATOM     25  C   UNL     1     -13.755 -43.953  31.829  1.00  0.00     0.014 A 
ATOM     26  C   UNL     1     -11.769 -43.060  32.907  1.00  0.00     0.074 A 
ATOM     27  N   UNL     1     -10.449 -42.968  33.109  1.00  0.00    -0.252 NA
ATOM     28  C   UNL     1      -8.146 -43.554  32.666  1.00  0.00     0.056 C 
ATOM     29  C   UNL     1      -7.634 -45.089  30.771  1.00  0.00     0.005 C 
ATOM     30  C   UNL     1     -14.565 -43.120  32.599  1.00  0.00     0.021 A 
ATOM     31  C   UNL     1     -12.591 -42.240  33.665  1.00  0.00     0.049 A 
ATOM     32  C   UNL     1      -7.281 -44.721  32.205  1.00  0.00     0.007 C 
ATOM     33  C   UNL     1     -13.974 -42.265  33.518  1.00  0.00     0.043 A 
ATOM     34  Cl  UNL     1     -14.959 -41.231  34.478  1.00  0.00    -0.084 Cl
ENDBRANCH  18  20
ENDBRANCH  17  18
ENDBRANCH   1  17
TORSDOF 6
ENDMDL
MODEL 2
REMARK VINA RESULT:   -11.359      1.350      2.323
REMARK INTER + INTRA:         -15.561
REMARK INTER:                 -15.670
REMARK INTRA:                   0.109
REMARK UNBOUND:                -0.550
REMARK SMILES O=C1C(=NCCNc2c3c(nc4cc(Cl)ccc24)CCCC3)CC(=O)c2c(O)cccc21
REMARK SMILES IDX 5 1 4 2 3 3 23 4 24 5 26 6 2 7 27 8 32 9 29 10 31 11 30 12
REMARK SMILES IDX 25 13 1 14 28 15 6 17 7 18 8 20 9 21 18 22 10 23 22 24 17 25
REMARK SMILES IDX 12 26 11 27 19 28 21 29 16 30 13 31 20 32 14 33 15 34
REMARK H PARENT 28 16 7 19
ROOT
ATOM      1  C   UNL     1     -13.181 -44.300  27.780  1.00  0.00     0.163 C 
ENDROOT
BRANCH   1   2
ATOM      2  N   UNL     1     -13.684 -43.167  27.003  1.00  0.00    -0.283 NA
BRANCH   2   3
ATOM      3  C   UNL     1     -14.939 -43.070  26.714  1.00  0.00     0.091 C 
ATOM      4  C   UNL     1     -16.008 -42.552  27.625  1.00  0.00     0.141 C 
ATOM      5  C   UNL     1     -17.413 -42.595  27.100  1.00  0.00     0.173 C 
ATOM      6  C   UNL     1     -17.608 -42.454  25.639  1.00  0.00     0.071 A 
ATOM      7  C   UNL     1     -15.371 -43.492  25.320  1.00  0.00     0.208 C 
ATOM      8  C   UNL     1     -18.773 -41.905  25.090  1.00  0.00     0.127 A 
ATOM      9  C   UNL     1     -16.620 -42.935  24.781  1.00  0.00     0.038 A 
ATOM     10  C   UNL     1     -18.960 -41.867  23.705  1.00  0.00     0.047 A 
ATOM     11  C   UNL     1     -16.808 -42.912  23.392  1.00  0.00     0.013 A 
ATOM     12  C   UNL     1     -17.979 -42.379  22.857  1.00  0.00     0.005 A 
ATOM     13  O   UNL     1     -18.361 -42.726  27.866  1.00  0.00    -0.294 OA
ATOM     14  O   UNL     1     -14.682 -44.251  24.655  1.00  0.00    -0.287 OA
BRANCH   8  15
ATOM     15  O   UNL     1     -19.727 -41.358  25.898  1.00  0.00    -0.507 OA
ATOM     16  H   UNL     1     -20.481 -41.965  25.990  1.00  0.00     0.293 HD
ENDBRANCH   8  15
ENDBRANCH   2   3
ENDBRANCH   1   2
BRANCH   1  17
ATOM     17  C   UNL     1     -14.172 -44.662  28.896  1.00  0.00     0.136 C 
BRANCH  17  18
ATOM     18  N   UNL     1     -13.568 -45.676  29.778  1.00  0.00    -0.382 N 
ATOM     19  H   UNL     1     -14.301 -46.202  30.251  1.00  0.00     0.160 HD
BRANCH  18  20
ATOM     20  C   UNL     1     -12.708 -45.082  30.748  1.00  0.00     0.049 A 
ATOM     21  C   UNL     1     -11.336 -45.403  30.713  1.00  0.00    -0.003 A 
ATOM     22  C   UNL     1     -13.186 -44.122  31.684  1.00  0.00     0.024 A 
ATOM     23  C   UNL     1     -10.501 -44.794  31.649  1.00  0.00     0.046 A 
ATOM     24  C   UNL     1     -10.804 -46.457  29.768  1.00  0.00     0.039 C 
ATOM     25  C   UNL     1     -14.537 -43.700  31.786  1.00  0.00     0.014 A 
ATOM     26  C   UNL     1     -12.241 -43.557  32.568  1.00  0.00     0.074 A 
ATOM     27  N   UNL     1     -10.942 -43.883  32.549  1.00  0.00    -0.252 NA
ATOM     28  C   UNL     1      -9.020 -45.069  31.688  1.00  0.00     0.056 C 
ATOM     29  C   UNL     1      -9.281 -46.467  29.642  1.00  0.00     0.005 C 
ATOM     30  C   UNL     1     -14.931 -42.755  32.733  1.00  0.00     0.021 A 
ATOM     31  C   UNL     1     -12.653 -42.621  33.502  1.00  0.00     0.049 A 
ATOM     32  C   UNL     1      -8.632 -46.380  31.016  1.00  0.00     0.007 C 
ATOM     33  C   UNL     1     -13.982 -42.220  33.590  1.00  0.00     0.043 A 
ATOM     34  Cl  UNL     1     -14.452 -41.054  34.765  1.00  0.00    -0.084 Cl
ENDBRANCH  18  20
ENDBRANCH  17  18
ENDBRANCH   1  17
TORSDOF 6
ENDMDL
MODEL 3
REMARK VINA RESULT:   -11.312      1.984      3.785
REMARK INTER + INTRA:         -15.498
REMARK INTER:                 -15.935
REMARK INTRA:                   0.437
REMARK UNBOUND:                -0.550
REMARK SMILES O=C1C(=NCCNc2c3c(nc4cc(Cl)ccc24)CCCC3)CC(=O)c2c(O)cccc21
REMARK SMILES IDX 5 1 4 2 3 3 23 4 24 5 26 6 2 7 27 8 32 9 29 10 31 11 30 12
REMARK SMILES IDX 25 13 1 14 28 15 6 17 7 18 8 20 9 21 18 22 10 23 22 24 17 25
REMARK SMILES IDX 12 26 11 27 19 28 21 29 16 30 13 31 20 32 14 33 15 34
REMARK H PARENT 28 16 7 19
ROOT
ATOM      1  C   UNL     1     -13.785 -44.870  27.907  1.00  0.00     0.163 C 
ENDROOT
BRANCH   1   2
ATOM      2  N   UNL     1     -13.610 -43.529  27.350  1.00  0.00    -0.283 NA
BRANCH   2   3
ATOM      3  C   UNL     1     -14.426 -43.072  26.459  1.00  0.00     0.091 C 
ATOM      4  C   UNL     1     -14.131 -42.921  24.999  1.00  0.00     0.141 C 
ATOM      5  C   UNL     1     -15.209 -42.301  24.160  1.00  0.00     0.173 C 
ATOM      6  C   UNL     1     -16.615 -42.516  24.573  1.00  0.00     0.071 A 
ATOM      7  C   UNL     1     -15.817 -42.674  26.923  1.00  0.00     0.208 C 
ATOM      8  C   UNL     1     -17.670 -42.529  23.653  1.00  0.00     0.127 A 
ATOM      9  C   UNL     1     -16.901 -42.653  25.930  1.00  0.00     0.038 A 
ATOM     10  C   UNL     1     -18.994 -42.646  24.088  1.00  0.00     0.047 A 
ATOM     11  C   UNL     1     -18.227 -42.759  26.373  1.00  0.00     0.013 A 
ATOM     12  C   UNL     1     -19.271 -42.753  25.450  1.00  0.00     0.005 A 
ATOM     13  O   UNL     1     -14.925 -41.654  23.158  1.00  0.00    -0.294 OA
ATOM     14  O   UNL     1     -16.032 -42.406  28.095  1.00  0.00    -0.287 OA
BRANCH   8  15
ATOM     15  O   UNL     1     -17.420 -42.469  22.313  1.00  0.00    -0.507 OA
ATOM     16  H   UNL     1     -17.527 -41.559  21.988  1.00  0.00     0.293 HD
ENDBRANCH   8  15
ENDBRANCH   2   3
ENDBRANCH   1   2
BRANCH   1  17
ATOM     17  C   UNL     1     -14.236 -44.783  29.372  1.00  0.00     0.136 C 
BRANCH  17  18
ATOM     18  N   UNL     1     -13.393 -45.665  30.199  1.00  0.00    -0.382 N 
ATOM     19  H   UNL     1     -13.982 -46.283  30.755  1.00  0.00     0.160 HD
BRANCH  18  20
ATOM     20  C   UNL     1     -12.540 -44.916  31.061  1.00  0.00     0.049 A 
ATOM     21  C   UNL     1     -13.124 -43.958  31.914  1.00  0.00    -0.003 A 
ATOM     22  C   UNL     1     -11.141 -45.171  31.137  1.00  0.00     0.024 A 
ATOM     23  C   UNL     1     -12.282 -43.253  32.773  1.00  0.00     0.046 A 
ATOM     24  C   UNL     1     -14.595 -43.624  31.823  1.00  0.00     0.039 C 
ATOM     25  C   UNL     1     -10.455 -46.133  30.351  1.00  0.00     0.014 A 
ATOM     26  C   UNL     1     -10.396 -44.407  32.060  1.00  0.00     0.074 A 
ATOM     27  N   UNL     1     -10.949 -43.480  32.852  1.00  0.00    -0.252 NA
ATOM     28  C   UNL     1     -12.811 -42.211  33.725  1.00  0.00     0.056 C 
ATOM     29  C   UNL     1     -15.121 -42.804  33.001  1.00  0.00     0.005 C 
ATOM     30  C   UNL     1      -9.080 -46.325  30.478  1.00  0.00     0.021 A 
ATOM     31  C   UNL     1      -9.030 -44.612  32.171  1.00  0.00     0.049 A 
ATOM     32  C   UNL     1     -14.171 -41.658  33.317  1.00  0.00     0.007 C 
ATOM     33  C   UNL     1      -8.372 -45.558  31.392  1.00  0.00     0.043 A 
ATOM     34  Cl  UNL     1      -6.675 -45.781  31.561  1.00  0.00    -0.084 Cl
ENDBRANCH  18  20
ENDBRANCH  17  18
ENDBRANCH   1  17
TORSDOF 6
ENDMDL
MODEL 4
REMARK VINA RESULT:   -10.958      3.638      8.026
REMARK INTER + INTRA:         -15.031
REMARK INTER:                 -14.152
REMARK INTRA:                  -0.879
REMARK UNBOUND:                -0.550
REMARK SMILES O=C1C(=NCCNc2c3c(nc4cc(Cl)ccc24)CCCC3)CC(=O)c2c(O)cccc21
REMARK SMILES IDX 5 1 4 2 3 3 23 4 24 5 26 6 2 7 27 8 32 9 29 10 31 11 30 12
REMARK SMILES IDX 25 13 1 14 28 15 6 17 7 18 8 20 9 21 18 22 10 23 22 24 17 25
REMARK SMILES IDX 12 26 11 27 19 28 21 29 16 30 13 31 20 32 14 33 15 34
REMARK H PARENT 28 16 7 19
ROOT
ATOM      1  C   UNL     1     -13.603 -43.490  33.124  1.00  0.00     0.163 C 
ENDROOT
BRANCH   1   2
ATOM      2  N   UNL     1     -12.759 -42.336  33.436  1.00  0.00    -0.283 NA
BRANCH   2   3
ATOM      3  C   UNL     1     -11.477 -42.398  33.297  1.00  0.00     0.091 C 
ATOM      4  C   UNL     1     -10.482 -42.503  34.411  1.00  0.00     0.141 C 
ATOM      5  C   UNL     1      -9.035 -42.491  34.017  1.00  0.00     0.173 C 
ATOM      6  C   UNL     1      -8.673 -43.058  32.698  1.00  0.00     0.071 A 
ATOM      7  C   UNL     1     -10.924 -42.389  31.882  1.00  0.00     0.208 C 
ATOM      8  C   UNL     1      -7.422 -43.636  32.451  1.00  0.00     0.127 A 
ATOM      9  C   UNL     1      -9.591 -42.962  31.653  1.00  0.00     0.038 A 
ATOM     10  C   UNL     1      -7.083 -44.082  31.170  1.00  0.00     0.047 A 
ATOM     11  C   UNL     1      -9.252 -43.396  30.364  1.00  0.00     0.013 A 
ATOM     12  C   UNL     1      -7.998 -43.953  30.125  1.00  0.00     0.005 A 
ATOM     13  O   UNL     1      -8.185 -42.039  34.778  1.00  0.00    -0.294 OA
ATOM     14  O   UNL     1     -11.584 -41.942  30.956  1.00  0.00    -0.287 OA
BRANCH   8  15
ATOM     15  O   UNL     1      -6.528 -43.811  33.467  1.00  0.00    -0.507 OA
ATOM     16  H   UNL     1      -5.801 -44.390  33.182  1.00  0.00     0.293 HD
ENDBRANCH   8  15
ENDBRANCH   2   3
ENDBRANCH   1   2
BRANCH   1  17
ATOM     17  C   UNL     1     -14.283 -43.300  31.760  1.00  0.00     0.136 C 
BRANCH  17  18
ATOM     18  N   UNL     1     -14.520 -44.615  31.141  1.00  0.00    -0.382 N 
ATOM     19  H   UNL     1     -14.216 -45.354  31.774  1.00  0.00     0.160 HD
BRANCH  18  20
ATOM     20  C   UNL     1     -13.833 -44.740  29.898  1.00  0.00     0.049 A 
ATOM     21  C   UNL     1     -12.608 -45.438  29.877  1.00  0.00    -0.003 A 
ATOM     22  C   UNL     1     -14.390 -44.253  28.682  1.00  0.00     0.024 A 
ATOM     23  C   UNL     1     -11.960 -45.578  28.650  1.00  0.00     0.046 A 
ATOM     24  C   UNL     1     -11.961 -45.922  31.155  1.00  0.00     0.039 C 
ATOM     25  C   UNL     1     -15.628 -43.568  28.583  1.00  0.00     0.014 A 
ATOM     26  C   UNL     1     -13.651 -44.474  27.500  1.00  0.00     0.074 A 
ATOM     27  N   UNL     1     -12.476 -45.115  27.486  1.00  0.00    -0.252 NA
ATOM     28  C   UNL     1     -10.650 -46.311  28.524  1.00  0.00     0.056 C 
ATOM     29  C   UNL     1     -10.815 -46.908  30.937  1.00  0.00     0.005 C 
ATOM     30  C   UNL     1     -16.110 -43.116  27.354  1.00  0.00     0.021 A 
ATOM     31  C   UNL     1     -14.145 -44.016  26.289  1.00  0.00     0.049 A 
ATOM     32  C   UNL     1      -9.886 -46.411  29.839  1.00  0.00     0.007 C 
ATOM     33  C   UNL     1     -15.360 -43.344  26.210  1.00  0.00     0.043 A 
ATOM     34  Cl  UNL     1     -15.939 -42.793  24.686  1.00  0.00    -0.084 Cl
ENDBRANCH  18  20
ENDBRANCH  17  18
ENDBRANCH   1  17
TORSDOF 6
ENDMDL
MODEL 5
REMARK VINA RESULT:   -10.884      3.584      8.425
REMARK INTER + INTRA:         -14.933
REMARK INTER:                 -13.668
REMARK INTRA:                  -1.265
REMARK UNBOUND:                -0.550
REMARK SMILES O=C1C(=NCCNc2c3c(nc4cc(Cl)ccc24)CCCC3)CC(=O)c2c(O)cccc21
REMARK SMILES IDX 5 1 4 2 3 3 23 4 24 5 26 6 2 7 27 8 32 9 29 10 31 11 30 12
REMARK SMILES IDX 25 13 1 14 28 15 6 17 7 18 8 20 9 21 18 22 10 23 22 24 17 25
REMARK SMILES IDX 12 26 11 27 19 28 21 29 16 30 13 31 20 32 14 33 15 34
REMARK H PARENT 28 16 7 19
ROOT
ATOM      1  C   UNL     1     -13.704 -43.538  32.901  1.00  0.00     0.163 C 
ENDROOT
BRANCH   1   2
ATOM      2  N   UNL     1     -12.900 -42.384  33.304  1.00  0.00    -0.283 NA
BRANCH   2   3
ATOM      3  C   UNL     1     -11.612 -42.418  33.228  1.00  0.00     0.091 C 
ATOM      4  C   UNL     1     -10.671 -42.530  34.386  1.00  0.00     0.141 C 
ATOM      5  C   UNL     1      -9.206 -42.480  34.065  1.00  0.00     0.173 C 
ATOM      6  C   UNL     1      -8.769 -43.008  32.753  1.00  0.00     0.071 A 
ATOM      7  C   UNL     1     -10.990 -42.363  31.842  1.00  0.00     0.208 C 
ATOM      8  C   UNL     1      -7.495 -43.556  32.555  1.00  0.00     0.127 A 
ATOM      9  C   UNL     1      -9.636 -42.905  31.666  1.00  0.00     0.038 A 
ATOM     10  C   UNL     1      -7.085 -43.964  31.282  1.00  0.00     0.047 A 
ATOM     11  C   UNL     1      -9.226 -43.301  30.386  1.00  0.00     0.013 A 
ATOM     12  C   UNL     1      -7.950 -43.828  30.196  1.00  0.00     0.005 A 
ATOM     13  O   UNL     1      -8.404 -42.031  34.877  1.00  0.00    -0.294 OA
ATOM     14  O   UNL     1     -11.614 -41.907  30.896  1.00  0.00    -0.287 OA
BRANCH   8  15
ATOM     15  O   UNL     1      -6.649 -43.738  33.609  1.00  0.00    -0.507 OA
ATOM     16  H   UNL     1      -6.901 -44.530  34.113  1.00  0.00     0.293 HD
ENDBRANCH   8  15
ENDBRANCH   2   3
ENDBRANCH   1   2
BRANCH   1  17
ATOM     17  C   UNL     1     -14.530 -43.202  31.651  1.00  0.00     0.136 C 
BRANCH  17  18
ATOM     18  N   UNL     1     -14.857 -44.444  30.929  1.00  0.00    -0.382 N 
ATOM     19  H   UNL     1     -14.789 -45.239  31.562  1.00  0.00     0.160 HD
BRANCH  18  20
ATOM     20  C   UNL     1     -13.990 -44.646  29.816  1.00  0.00     0.049 A 
ATOM     21  C   UNL     1     -14.382 -44.140  28.560  1.00  0.00    -0.003 A 
ATOM     22  C   UNL     1     -12.718 -45.268  29.961  1.00  0.00     0.024 A 
ATOM     23  C   UNL     1     -13.513 -44.320  27.486  1.00  0.00     0.046 A 
ATOM     24  C   UNL     1     -15.748 -43.523  28.358  1.00  0.00     0.039 C 
ATOM     25  C   UNL     1     -12.208 -45.783  31.181  1.00  0.00     0.014 A 
ATOM     26  C   UNL     1     -11.916 -45.374  28.804  1.00  0.00     0.074 A 
ATOM     27  N   UNL     1     -12.301 -44.914  27.607  1.00  0.00    -0.252 NA
ATOM     28  C   UNL     1     -13.841 -43.811  26.106  1.00  0.00     0.056 C 
ATOM     29  C   UNL     1     -15.897 -42.761  27.042  1.00  0.00     0.005 C 
ATOM     30  C   UNL     1     -10.951 -46.383  31.246  1.00  0.00     0.021 A 
ATOM     31  C   UNL     1     -10.670 -45.975  28.888  1.00  0.00     0.049 A 
ATOM     32  C   UNL     1     -15.330 -43.575  25.888  1.00  0.00     0.007 C 
ATOM     33  C   UNL     1     -10.187 -46.476  30.092  1.00  0.00     0.043 A 
ATOM     34  Cl  UNL     1      -8.634 -47.214  30.154  1.00  0.00    -0.084 Cl
ENDBRANCH  18  20
ENDBRANCH  17  18
ENDBRANCH   1  17
TORSDOF 6
ENDMDL
MODEL 6
REMARK VINA RESULT:   -10.710      6.070      9.623
REMARK INTER + INTRA:         -14.704
REMARK INTER:                 -13.964
REMARK INTRA:                  -0.740
REMARK UNBOUND:                -0.550
REMARK SMILES O=C1C(=NCCNc2c3c(nc4cc(Cl)ccc24)CCCC3)CC(=O)c2c(O)cccc21
REMARK SMILES IDX 5 1 4 2 3 3 23 4 24 5 26 6 2 7 27 8 32 9 29 10 31 11 30 12
REMARK SMILES IDX 25 13 1 14 28 15 6 17 7 18 8 20 9 21 18 22 10 23 22 24 17 25
REMARK SMILES IDX 12 26 11 27 19 28 21 29 16 30 13 31 20 32 14 33 15 34
REMARK H PARENT 28 16 7 19
ROOT
ATOM      1  C   UNL     1     -18.066 -40.110  21.783  1.00  0.00     0.163 C 
ENDROOT
BRANCH   1   2
ATOM      2  N   UNL     1     -18.967 -40.477  20.690  1.00  0.00    -0.283 NA
BRANCH   2   3
ATOM      3  C   UNL     1     -20.206 -40.112  20.705  1.00  0.00     0.091 C 
ATOM      4  C   UNL     1     -20.780 -39.002  21.528  1.00  0.00     0.141 C 
ATOM      5  C   UNL     1     -22.264 -38.800  21.437  1.00  0.00     0.173 C 
ATOM      6  C   UNL     1     -22.930 -39.143  20.159  1.00  0.00     0.071 A 
ATOM      7  C   UNL     1     -21.166 -40.855  19.791  1.00  0.00     0.208 C 
ATOM      8  C   UNL     1     -24.098 -38.501  19.730  1.00  0.00     0.127 A 
ATOM      9  C   UNL     1     -22.406 -40.178  19.387  1.00  0.00     0.038 A 
ATOM     10  C   UNL     1     -24.748 -38.911  18.562  1.00  0.00     0.047 A 
ATOM     11  C   UNL     1     -23.060 -40.602  18.222  1.00  0.00     0.013 A 
ATOM     12  C   UNL     1     -24.231 -39.968  17.813  1.00  0.00     0.005 A 
ATOM     13  O   UNL     1     -22.892 -38.350  22.389  1.00  0.00    -0.294 OA
ATOM     14  O   UNL     1     -20.897 -41.974  19.381  1.00  0.00    -0.287 OA
BRANCH   8  15
ATOM     15  O   UNL     1     -24.597 -37.437  20.423  1.00  0.00    -0.507 OA
ATOM     16  H   UNL     1     -25.360 -37.710  20.959  1.00  0.00     0.293 HD
ENDBRANCH   8  15
ENDBRANCH   2   3
ENDBRANCH   1   2
BRANCH   1  17
ATOM     17  C   UNL     1     -17.097 -41.263  22.084  1.00  0.00     0.136 C 
BRANCH  17  18
ATOM     18  N   UNL     1     -17.850 -42.408  22.623  1.00  0.00    -0.382 N 
ATOM     19  H   UNL     1     -18.804 -42.393  22.268  1.00  0.00     0.160 HD
BRANCH  18  20
ATOM     20  C   UNL     1     -17.873 -42.395  24.049  1.00  0.00     0.049 A 
ATOM     21  C   UNL     1     -16.713 -42.799  24.741  1.00  0.00    -0.003 A 
ATOM     22  C   UNL     1     -18.998 -41.912  24.775  1.00  0.00     0.024 A 
ATOM     23  C   UNL     1     -16.739 -42.755  26.134  1.00  0.00     0.046 A 
ATOM     24  C   UNL     1     -15.521 -43.367  24.005  1.00  0.00     0.039 C 
ATOM     25  C   UNL     1     -20.201 -41.451  24.182  1.00  0.00     0.014 A 
ATOM     26  C   UNL     1     -18.897 -41.896  26.183  1.00  0.00     0.074 A 
ATOM     27  N   UNL     1     -17.803 -42.303  26.840  1.00  0.00    -0.252 NA
ATOM     28  C   UNL     1     -15.548 -43.162  26.963  1.00  0.00     0.056 C 
ATOM     29  C   UNL     1     -14.255 -43.468  24.855  1.00  0.00     0.005 C 
ATOM     30  C   UNL     1     -21.264 -40.994  24.961  1.00  0.00     0.021 A 
ATOM     31  C   UNL     1     -19.965 -41.439  26.940  1.00  0.00     0.049 A 
ATOM     32  C   UNL     1     -14.575 -44.066  26.217  1.00  0.00     0.007 C 
ATOM     33  C   UNL     1     -21.138 -40.992  26.341  1.00  0.00     0.043 A 
ATOM     34  Cl  UNL     1     -22.441 -40.433  27.317  1.00  0.00    -0.084 Cl
ENDBRANCH  18  20
ENDBRANCH  17  18
ENDBRANCH   1  17
TORSDOF 6
ENDMDL
MODEL 7
REMARK VINA RESULT:   -10.596      2.177      4.259
REMARK INTER + INTRA:         -14.552
REMARK INTER:                 -14.857
REMARK INTRA:                   0.305
REMARK UNBOUND:                -0.550
REMARK SMILES O=C1C(=NCCNc2c3c(nc4cc(Cl)ccc24)CCCC3)CC(=O)c2c(O)cccc21
REMARK SMILES IDX 5 1 4 2 3 3 23 4 24 5 26 6 2 7 27 8 32 9 29 10 31 11 30 12
REMARK SMILES IDX 25 13 1 14 28 15 6 17 7 18 8 20 9 21 18 22 10 23 22 24 17 25
REMARK SMILES IDX 12 26 11 27 19 28 21 29 16 30 13 31 20 32 14 33 15 34
REMARK H PARENT 28 16 7 19
ROOT
ATOM      1  C   UNL     1     -13.493 -44.558  27.940  1.00  0.00     0.163 C 
ENDROOT
BRANCH   1   2
ATOM      2  N   UNL     1     -13.915 -43.333  27.260  1.00  0.00    -0.283 NA
BRANCH   2   3
ATOM      3  C   UNL     1     -15.133 -43.188  26.854  1.00  0.00     0.091 C 
ATOM      4  C   UNL     1     -16.270 -42.663  27.674  1.00  0.00     0.141 C 
ATOM      5  C   UNL     1     -17.617 -42.648  27.015  1.00  0.00     0.173 C 
ATOM      6  C   UNL     1     -17.666 -42.461  25.547  1.00  0.00     0.071 A 
ATOM      7  C   UNL     1     -15.440 -43.559  25.413  1.00  0.00     0.208 C 
ATOM      8  C   UNL     1     -18.757 -41.861  24.906  1.00  0.00     0.127 A 
ATOM      9  C   UNL     1     -16.614 -42.950  24.774  1.00  0.00     0.038 A 
ATOM     10  C   UNL     1     -18.808 -41.780  23.511  1.00  0.00     0.047 A 
ATOM     11  C   UNL     1     -16.666 -42.883  23.375  1.00  0.00     0.013 A 
ATOM     12  C   UNL     1     -17.764 -42.300  22.746  1.00  0.00     0.005 A 
ATOM     13  O   UNL     1     -18.640 -42.770  27.682  1.00  0.00    -0.294 OA
ATOM     14  O   UNL     1     -14.711 -44.321  24.796  1.00  0.00    -0.287 OA
BRANCH   8  15
ATOM     15  O   UNL     1     -19.769 -41.307  25.635  1.00  0.00    -0.507 OA
ATOM     16  H   UNL     1     -19.751 -40.338  25.557  1.00  0.00     0.293 HD
ENDBRANCH   8  15
ENDBRANCH   2   3
ENDBRANCH   1   2
BRANCH   1  17
ATOM     17  C   UNL     1     -14.253 -44.720  29.264  1.00  0.00     0.136 C 
BRANCH  17  18
ATOM     18  N   UNL     1     -13.498 -45.616  30.157  1.00  0.00    -0.382 N 
ATOM     19  H   UNL     1     -14.144 -46.178  30.709  1.00  0.00     0.160 HD
BRANCH  18  20
ATOM     20  C   UNL     1     -12.638 -44.884  31.028  1.00  0.00     0.049 A 
ATOM     21  C   UNL     1     -13.215 -43.937  31.897  1.00  0.00    -0.003 A 
ATOM     22  C   UNL     1     -11.241 -45.147  31.095  1.00  0.00     0.024 A 
ATOM     23  C   UNL     1     -12.367 -43.248  32.764  1.00  0.00     0.046 A 
ATOM     24  C   UNL     1     -14.686 -43.595  31.817  1.00  0.00     0.039 C 
ATOM     25  C   UNL     1     -10.562 -46.099  30.292  1.00  0.00     0.014 A 
ATOM     26  C   UNL     1     -10.489 -44.400  32.027  1.00  0.00     0.074 A 
ATOM     27  N   UNL     1     -11.035 -43.483  32.835  1.00  0.00    -0.252 NA
ATOM     28  C   UNL     1     -12.889 -42.220  33.734  1.00  0.00     0.056 C 
ATOM     29  C   UNL     1     -15.203 -42.791  33.009  1.00  0.00     0.005 C 
ATOM     30  C   UNL     1      -9.187 -46.299  30.412  1.00  0.00     0.021 A 
ATOM     31  C   UNL     1      -9.123 -44.612  32.130  1.00  0.00     0.049 A 
ATOM     32  C   UNL     1     -14.248 -41.654  33.339  1.00  0.00     0.007 C 
ATOM     33  C   UNL     1      -8.473 -45.549  31.334  1.00  0.00     0.043 A 
ATOM     34  Cl  UNL     1      -6.775 -45.782  31.494  1.00  0.00    -0.084 Cl
ENDBRANCH  18  20
ENDBRANCH  17  18
ENDBRANCH   1  17
TORSDOF 6
ENDMDL
MODEL 8
REMARK VINA RESULT:   -10.363      5.887     10.137
REMARK INTER + INTRA:         -14.245
REMARK INTER:                 -13.659
REMARK INTRA:                  -0.586
REMARK UNBOUND:                -0.550
REMARK SMILES O=C1C(=NCCNc2c3c(nc4cc(Cl)ccc24)CCCC3)CC(=O)c2c(O)cccc21
REMARK SMILES IDX 5 1 4 2 3 3 23 4 24 5 26 6 2 7 27 8 32 9 29 10 31 11 30 12
REMARK SMILES IDX 25 13 1 14 28 15 6 17 7 18 8 20 9 21 18 22 10 23 22 24 17 25
REMARK SMILES IDX 12 26 11 27 19 28 21 29 16 30 13 31 20 32 14 33 15 34
REMARK H PARENT 28 16 7 19
ROOT
ATOM      1  C   UNL     1     -18.362 -40.096  21.731  1.00  0.00     0.163 C 
ENDROOT
BRANCH   1   2
ATOM      2  N   UNL     1     -18.826 -40.238  20.351  1.00  0.00    -0.283 NA
BRANCH   2   3
ATOM      3  C   UNL     1     -20.045 -39.956  20.031  1.00  0.00     0.091 C 
ATOM      4  C   UNL     1     -20.528 -38.639  19.509  1.00  0.00     0.141 C 
ATOM      5  C   UNL     1     -22.004 -38.516  19.270  1.00  0.00     0.173 C 
ATOM      6  C   UNL     1     -22.745 -39.738  18.882  1.00  0.00     0.071 A 
ATOM      7  C   UNL     1     -21.080 -41.060  20.171  1.00  0.00     0.208 C 
ATOM      8  C   UNL     1     -23.902 -39.692  18.095  1.00  0.00     0.127 A 
ATOM      9  C   UNL     1     -22.306 -40.969  19.366  1.00  0.00     0.038 A 
ATOM     10  C   UNL     1     -24.625 -40.857  17.822  1.00  0.00     0.047 A 
ATOM     11  C   UNL     1     -23.033 -42.138  19.107  1.00  0.00     0.013 A 
ATOM     12  C   UNL     1     -24.193 -42.079  18.336  1.00  0.00     0.005 A 
ATOM     13  O   UNL     1     -22.565 -37.430  19.377  1.00  0.00    -0.294 OA
ATOM     14  O   UNL     1     -20.882 -42.010  20.912  1.00  0.00    -0.287 OA
BRANCH   8  15
ATOM     15  O   UNL     1     -24.319 -38.515  17.545  1.00  0.00    -0.507 OA
ATOM     16  H   UNL     1     -23.564 -37.918  17.410  1.00  0.00     0.293 HD
ENDBRANCH   8  15
ENDBRANCH   2   3
ENDBRANCH   1   2
BRANCH   1  17
ATOM     17  C   UNL     1     -17.362 -41.210  22.074  1.00  0.00     0.136 C 
BRANCH  17  18
ATOM     18  N   UNL     1     -18.078 -42.340  22.689  1.00  0.00    -0.382 N 
ATOM     19  H   UNL     1     -19.064 -42.302  22.438  1.00  0.00     0.160 HD
BRANCH  18  20
ATOM     20  C   UNL     1     -17.948 -42.333  24.109  1.00  0.00     0.049 A 
ATOM     21  C   UNL     1     -19.083 -42.020  24.884  1.00  0.00    -0.003 A 
ATOM     22  C   UNL     1     -16.735 -42.708  24.752  1.00  0.00     0.024 A 
ATOM     23  C   UNL     1     -18.950 -42.043  26.272  1.00  0.00     0.046 A 
ATOM     24  C   UNL     1     -20.371 -41.565  24.236  1.00  0.00     0.039 C 
ATOM     25  C   UNL     1     -15.544 -43.073  24.072  1.00  0.00     0.014 A 
ATOM     26  C   UNL     1     -16.728 -42.715  26.163  1.00  0.00     0.074 A 
ATOM     27  N   UNL     1     -17.801 -42.394  26.898  1.00  0.00    -0.252 NA
ATOM     28  C   UNL     1     -20.106 -41.729  27.185  1.00  0.00     0.056 C 
ATOM     29  C   UNL     1     -21.574 -41.562  25.179  1.00  0.00     0.005 C 
ATOM     30  C   UNL     1     -14.390 -43.427  24.771  1.00  0.00     0.021 A 
ATOM     31  C   UNL     1     -15.572 -43.069  26.840  1.00  0.00     0.049 A 
ATOM     32  C   UNL     1     -21.206 -40.920  26.509  1.00  0.00     0.007 C 
ATOM     33  C   UNL     1     -14.412 -43.421  26.158  1.00  0.00     0.043 A 
ATOM     34  Cl  UNL     1     -12.997 -43.855  27.036  1.00  0.00    -0.084 Cl
ENDBRANCH  18  20
ENDBRANCH  17  18
ENDBRANCH   1  17
TORSDOF 6
ENDMDL
MODEL 9
REMARK VINA RESULT:   -10.257      6.155      9.218
REMARK INTER + INTRA:         -14.105
REMARK INTER:                 -12.754
REMARK INTRA:                  -1.351
REMARK UNBOUND:                -0.550
REMARK SMILES O=C1C(=NCCNc2c3c(nc4cc(Cl)ccc24)CCCC3)CC(=O)c2c(O)cccc21
REMARK SMILES IDX 5 1 4 2 3 3 23 4 24 5 26 6 2 7 27 8 32 9 29 10 31 11 30 12
REMARK SMILES IDX 25 13 1 14 28 15 6 17 7 18 8 20 9 21 18 22 10 23 22 24 17 25
REMARK SMILES IDX 12 26 11 27 19 28 21 29 16 30 13 31 20 32 14 33 15 34
REMARK H PARENT 28 16 7 19
ROOT
ATOM      1  C   UNL     1     -18.260 -40.078  21.680  1.00  0.00     0.163 C 
ENDROOT
BRANCH   1   2
ATOM      2  N   UNL     1     -19.038 -40.533  20.527  1.00  0.00    -0.283 NA
BRANCH   2   3
ATOM      3  C   UNL     1     -20.291 -40.820  20.647  1.00  0.00     0.091 C 
ATOM      4  C   UNL     1     -20.895 -42.182  20.495  1.00  0.00     0.141 C 
ATOM      5  C   UNL     1     -22.388 -42.268  20.609  1.00  0.00     0.173 C 
ATOM      6  C   UNL     1     -23.070 -41.293  21.491  1.00  0.00     0.071 A 
ATOM      7  C   UNL     1     -21.239 -39.685  20.997  1.00  0.00     0.208 C 
ATOM      8  C   UNL     1     -24.277 -41.587  22.137  1.00  0.00     0.127 A 
ATOM      9  C   UNL     1     -22.519 -40.021  21.636  1.00  0.00     0.038 A 
ATOM     10  C   UNL     1     -24.938 -40.613  22.891  1.00  0.00     0.047 A 
ATOM     11  C   UNL     1     -23.183 -39.037  22.381  1.00  0.00     0.013 A 
ATOM     12  C   UNL     1     -24.393 -39.335  23.005  1.00  0.00     0.005 A 
ATOM     13  O   UNL     1     -23.011 -43.132  20.001  1.00  0.00    -0.294 OA
ATOM     14  O   UNL     1     -20.930 -38.524  20.779  1.00  0.00    -0.287 OA
BRANCH   8  15
ATOM     15  O   UNL     1     -24.807 -42.843  22.075  1.00  0.00    -0.507 OA
ATOM     16  H   UNL     1     -25.515 -42.880  21.411  1.00  0.00     0.293 HD
ENDBRANCH   8  15
ENDBRANCH   2   3
ENDBRANCH   1   2
BRANCH   1  17
ATOM     17  C   UNL     1     -17.192 -41.119  22.045  1.00  0.00     0.136 C 
BRANCH  17  18
ATOM     18  N   UNL     1     -17.847 -42.344  22.537  1.00  0.00    -0.382 N 
ATOM     19  H   UNL     1     -18.800 -42.393  22.179  1.00  0.00     0.160 HD
BRANCH  18  20
ATOM     20  C   UNL     1     -17.871 -42.390  23.962  1.00  0.00     0.049 A 
ATOM     21  C   UNL     1     -16.695 -42.769  24.639  1.00  0.00    -0.003 A 
ATOM     22  C   UNL     1     -19.017 -41.987  24.704  1.00  0.00     0.024 A 
ATOM     23  C   UNL     1     -16.723 -42.782  26.033  1.00  0.00     0.046 A 
ATOM     24  C   UNL     1     -15.479 -43.253  23.883  1.00  0.00     0.039 C 
ATOM     25  C   UNL     1     -20.240 -41.557  24.128  1.00  0.00     0.014 A 
ATOM     26  C   UNL     1     -18.918 -42.023  26.112  1.00  0.00     0.074 A 
ATOM     27  N   UNL     1     -17.807 -42.407  26.754  1.00  0.00    -0.252 NA
ATOM     28  C   UNL     1     -15.515 -43.168  26.848  1.00  0.00     0.056 C 
ATOM     29  C   UNL     1     -14.210 -43.331  24.732  1.00  0.00     0.005 C 
ATOM     30  C   UNL     1     -21.322 -41.179  24.921  1.00  0.00     0.021 A 
ATOM     31  C   UNL     1     -20.005 -41.645  26.884  1.00  0.00     0.049 A 
ATOM     32  C   UNL     1     -14.503 -43.998  26.068  1.00  0.00     0.007 C 
ATOM     33  C   UNL     1     -21.197 -41.228  26.302  1.00  0.00     0.043 A 
ATOM     34  Cl  UNL     1     -22.524 -40.767  27.296  1.00  0.00    -0.084 Cl
ENDBRANCH  18  20
ENDBRANCH  17  18
ENDBRANCH   1  17
TORSDOF 6
ENDMDL
