MODEL 1
REMARK VINA RESULT:   -10.067      0.000      0.000
REMARK INTER + INTRA:         -14.905
REMARK INTER:                 -13.893
REMARK INTRA:                  -1.012
REMARK UNBOUND:                -1.012
REMARK SMILES COc1cccc([C@@H]2CC(c3cc(F)cc(F)c3)=NN2c2ccc(S(N)(=O)=O)cc2)c1OC
REMARK SMILES IDX 21 1 22 2 23 3 24 4 29 5 30 6 20 7 8 8 9 9 10 10 19 11 7 12
REMARK SMILES IDX 3 13 4 14 31 15 5 16 6 17 2 18 1 19 32 20 33 21 11 22 12 23
REMARK SMILES IDX 18 24 13 25 16 26 15 27 14 28 17 29 25 30 27 31 28 32 26 33
REMARK H PARENT 26 34 26 35
ROOT
ATOM      1  C   UNL     1     -17.466 -42.508  25.269  1.00  0.00     0.060 A 
ATOM      2  C   UNL     1     -16.430 -43.076  24.507  1.00  0.00     0.029 A 
ATOM      3  C   UNL     1     -15.257 -43.557  25.101  1.00  0.00     0.024 A 
ATOM      4  C   UNL     1     -15.107 -43.482  26.484  1.00  0.00     0.082 A 
ATOM      5  C   UNL     1     -16.104 -42.912  27.271  1.00  0.00     0.024 A 
ATOM      6  C   UNL     1     -17.270 -42.438  26.661  1.00  0.00     0.029 A 
ENDROOT
BRANCH   1   7
ATOM      7  N   UNL     1     -18.638 -42.024  24.691  1.00  0.00    -0.257 N 
ATOM      8  C   UNL     1     -19.870 -41.670  25.409  1.00  0.00     0.148 C 
ATOM      9  C   UNL     1     -20.645 -40.864  24.364  1.00  0.00     0.091 C 
ATOM     10  C   UNL     1     -19.836 -41.167  23.133  1.00  0.00     0.071 C 
ATOM     11  N   UNL     1     -18.711 -41.780  23.349  1.00  0.00    -0.176 NA
BRANCH   8  12
ATOM     12  C   UNL     1     -20.682 -42.874  25.869  1.00  0.00     0.023 A 
ATOM     13  C   UNL     1     -22.408 -43.813  27.343  1.00  0.00     0.161 A 
ATOM     14  C   UNL     1     -22.267 -45.047  26.702  1.00  0.00     0.050 A 
ATOM     15  C   UNL     1     -21.592 -42.736  26.939  1.00  0.00     0.166 A 
ATOM     16  C   UNL     1     -21.359 -45.199  25.653  1.00  0.00     0.004 A 
ATOM     17  C   UNL     1     -20.584 -44.122  25.232  1.00  0.00     0.010 A 
BRANCH  13  18
ATOM     18  O   UNL     1     -23.313 -43.566  28.343  1.00  0.00    -0.493 OA
ATOM     19  C   UNL     1     -23.686 -44.653  29.180  1.00  0.00     0.278 C 
ENDBRANCH  13  18
BRANCH  15  20
ATOM     20  O   UNL     1     -21.685 -41.478  27.491  1.00  0.00    -0.492 OA
ATOM     21  C   UNL     1     -22.896 -40.800  27.154  1.00  0.00     0.278 C 
ENDBRANCH  15  20
ENDBRANCH   8  12
BRANCH  10  22
ATOM     22  C   UNL     1     -20.281 -40.758  21.782  1.00  0.00     0.004 A 
ATOM     23  C   UNL     1     -19.946 -39.509  21.250  1.00  0.00     0.049 A 
ATOM     24  C   UNL     1     -21.052 -41.648  21.024  1.00  0.00     0.049 A 
ATOM     25  C   UNL     1     -20.388 -39.169  19.973  1.00  0.00     0.126 A 
ATOM     26  C   UNL     1     -21.478 -41.281  19.752  1.00  0.00     0.126 A 
ATOM     27  C   UNL     1     -21.153 -40.043  19.216  1.00  0.00     0.078 A 
ATOM     28  F   UNL     1     -20.064 -37.971  19.468  1.00  0.00    -0.207 F 
ATOM     29  F   UNL     1     -22.215 -42.136  19.033  1.00  0.00    -0.207 F 
ENDBRANCH  10  22
ENDBRANCH   1   7
BRANCH   4  30
ATOM     30  S   UNL     1     -13.633 -44.090  27.255  1.00  0.00     0.238 S 
ATOM     31  O   UNL     1     -12.649 -43.035  27.261  1.00  0.00    -0.207 OA
ATOM     32  O   UNL     1     -13.355 -45.413  26.743  1.00  0.00    -0.207 OA
BRANCH  30  33
ATOM     33  N   UNL     1     -14.157 -44.326  28.839  1.00  0.00    -0.225 NA
ATOM     34  H   UNL     1     -14.223 -45.329  29.017  1.00  0.00     0.137 HD
ATOM     35  H   UNL     1     -15.030 -43.843  29.048  1.00  0.00     0.137 HD
ENDBRANCH  30  33
ENDBRANCH   4  30
TORSDOF 7
ENDMDL
MODEL 2
REMARK VINA RESULT:    -8.909      4.734      7.599
REMARK INTER + INTRA:         -13.307
REMARK INTER:                 -12.027
REMARK INTRA:                  -1.280
REMARK UNBOUND:                -1.012
REMARK SMILES COc1cccc([C@@H]2CC(c3cc(F)cc(F)c3)=NN2c2ccc(S(N)(=O)=O)cc2)c1OC
REMARK SMILES IDX 21 1 22 2 23 3 24 4 29 5 30 6 20 7 8 8 9 9 10 10 19 11 7 12
REMARK SMILES IDX 3 13 4 14 31 15 5 16 6 17 2 18 1 19 32 20 33 21 11 22 12 23
REMARK SMILES IDX 18 24 13 25 16 26 15 27 14 28 17 29 25 30 27 31 28 32 26 33
REMARK H PARENT 26 34 26 35
ROOT
ATOM      1  C   UNL     1     -20.842 -40.633  22.486  1.00  0.00     0.060 A 
ATOM      2  C   UNL     1     -20.222 -39.450  22.048  1.00  0.00     0.029 A 
ATOM      3  C   UNL     1     -20.782 -38.653  21.041  1.00  0.00     0.024 A 
ATOM      4  C   UNL     1     -21.988 -39.033  20.457  1.00  0.00     0.082 A 
ATOM      5  C   UNL     1     -22.625 -40.207  20.853  1.00  0.00     0.024 A 
ATOM      6  C   UNL     1     -22.053 -40.989  21.861  1.00  0.00     0.029 A 
ENDROOT
BRANCH   1   7
ATOM      7  N   UNL     1     -20.296 -41.435  23.486  1.00  0.00    -0.257 N 
ATOM      8  C   UNL     1     -21.011 -42.466  24.250  1.00  0.00     0.148 C 
ATOM      9  C   UNL     1     -19.869 -43.254  24.897  1.00  0.00     0.091 C 
ATOM     10  C   UNL     1     -18.714 -42.331  24.621  1.00  0.00     0.071 C 
ATOM     11  N   UNL     1     -18.971 -41.352  23.808  1.00  0.00    -0.176 NA
BRANCH   8  12
ATOM     12  C   UNL     1     -21.947 -41.907  25.313  1.00  0.00     0.023 A 
ATOM     13  C   UNL     1     -24.117 -41.982  26.461  1.00  0.00     0.161 A 
ATOM     14  C   UNL     1     -23.686 -40.965  27.317  1.00  0.00     0.050 A 
ATOM     15  C   UNL     1     -23.251 -42.430  25.442  1.00  0.00     0.166 A 
ATOM     16  C   UNL     1     -22.404 -40.428  27.188  1.00  0.00     0.004 A 
ATOM     17  C   UNL     1     -21.539 -40.902  26.206  1.00  0.00     0.010 A 
BRANCH  13  18
ATOM     18  O   UNL     1     -25.338 -42.599  26.555  1.00  0.00    -0.493 OA
ATOM     19  C   UNL     1     -25.739 -43.079  27.831  1.00  0.00     0.278 C 
ENDBRANCH  13  18
BRANCH  15  20
ATOM     20  O   UNL     1     -23.579 -43.449  24.576  1.00  0.00    -0.492 OA
ATOM     21  C   UNL     1     -23.408 -44.750  25.140  1.00  0.00     0.278 C 
ENDBRANCH  15  20
ENDBRANCH   8  12
BRANCH  10  22
ATOM     22  C   UNL     1     -17.375 -42.555  25.211  1.00  0.00     0.004 A 
ATOM     23  C   UNL     1     -16.224 -42.593  24.416  1.00  0.00     0.049 A 
ATOM     24  C   UNL     1     -17.264 -42.728  26.595  1.00  0.00     0.049 A 
ATOM     25  C   UNL     1     -14.985 -42.806  25.016  1.00  0.00     0.126 A 
ATOM     26  C   UNL     1     -16.013 -42.939  27.166  1.00  0.00     0.126 A 
ATOM     27  C   UNL     1     -14.866 -42.981  26.387  1.00  0.00     0.078 A 
ATOM     28  F   UNL     1     -13.886 -42.840  24.251  1.00  0.00    -0.207 F 
ATOM     29  F   UNL     1     -15.915 -43.105  28.491  1.00  0.00    -0.207 F 
ENDBRANCH  10  22
ENDBRANCH   1   7
BRANCH   4  30
ATOM     30  S   UNL     1     -22.716 -38.038  19.185  1.00  0.00     0.238 S 
ATOM     31  O   UNL     1     -24.142 -37.989  19.400  1.00  0.00    -0.207 OA
ATOM     32  O   UNL     1     -22.131 -38.407  17.916  1.00  0.00    -0.207 OA
BRANCH  30  33
ATOM     33  N   UNL     1     -22.081 -36.519  19.544  1.00  0.00    -0.225 NA
ATOM     34  H   UNL     1     -22.106 -36.383  20.556  1.00  0.00     0.137 HD
ATOM     35  H   UNL     1     -22.548 -35.762  19.046  1.00  0.00     0.137 HD
ENDBRANCH  30  33
ENDBRANCH   4  30
TORSDOF 7
ENDMDL
MODEL 3
REMARK VINA RESULT:    -8.802      3.610      6.246
REMARK INTER + INTRA:         -13.159
REMARK INTER:                 -12.133
REMARK INTRA:                  -1.026
REMARK UNBOUND:                -1.012
REMARK SMILES COc1cccc([C@@H]2CC(c3cc(F)cc(F)c3)=NN2c2ccc(S(N)(=O)=O)cc2)c1OC
REMARK SMILES IDX 21 1 22 2 23 3 24 4 29 5 30 6 20 7 8 8 9 9 10 10 19 11 7 12
REMARK SMILES IDX 3 13 4 14 31 15 5 16 6 17 2 18 1 19 32 20 33 21 11 22 12 23
REMARK SMILES IDX 18 24 13 25 16 26 15 27 14 28 17 29 25 30 27 31 28 32 26 33
REMARK H PARENT 26 34 26 35
ROOT
ATOM      1  C   UNL     1     -19.207 -42.073  26.255  1.00  0.00     0.060 A 
ATOM      2  C   UNL     1     -18.398 -42.393  25.150  1.00  0.00     0.029 A 
ATOM      3  C   UNL     1     -17.054 -42.757  25.301  1.00  0.00     0.024 A 
ATOM      4  C   UNL     1     -16.497 -42.812  26.577  1.00  0.00     0.082 A 
ATOM      5  C   UNL     1     -17.262 -42.487  27.694  1.00  0.00     0.024 A 
ATOM      6  C   UNL     1     -18.602 -42.128  27.526  1.00  0.00     0.029 A 
ENDROOT
BRANCH   1   7
ATOM      7  N   UNL     1     -20.545 -41.709  26.120  1.00  0.00    -0.257 N 
ATOM      8  C   UNL     1     -21.452 -42.143  25.050  1.00  0.00     0.148 C 
ATOM      9  C   UNL     1     -22.828 -41.769  25.606  1.00  0.00     0.091 C 
ATOM     10  C   UNL     1     -22.423 -40.907  26.770  1.00  0.00     0.071 C 
ATOM     11  N   UNL     1     -21.156 -40.921  27.054  1.00  0.00    -0.176 NA
BRANCH   8  12
ATOM     12  C   UNL     1     -21.206 -41.452  23.715  1.00  0.00     0.023 A 
ATOM     13  C   UNL     1     -21.271 -41.523  21.261  1.00  0.00     0.161 A 
ATOM     14  C   UNL     1     -20.846 -40.192  21.223  1.00  0.00     0.050 A 
ATOM     15  C   UNL     1     -21.424 -42.156  22.512  1.00  0.00     0.166 A 
ATOM     16  C   UNL     1     -20.612 -39.491  22.406  1.00  0.00     0.004 A 
ATOM     17  C   UNL     1     -20.802 -40.108  23.640  1.00  0.00     0.010 A 
BRANCH  13  18
ATOM     18  O   UNL     1     -21.574 -42.264  20.148  1.00  0.00    -0.493 OA
ATOM     19  C   UNL     1     -22.294 -41.624  19.103  1.00  0.00     0.278 C 
ENDBRANCH  13  18
BRANCH  15  20
ATOM     20  O   UNL     1     -21.869 -43.452  22.646  1.00  0.00    -0.492 OA
ATOM     21  C   UNL     1     -23.270 -43.597  22.408  1.00  0.00     0.278 C 
ENDBRANCH  15  20
ENDBRANCH   8  12
BRANCH  10  22
ATOM     22  C   UNL     1     -23.412 -40.132  27.553  1.00  0.00     0.004 A 
ATOM     23  C   UNL     1     -24.224 -40.743  28.514  1.00  0.00     0.049 A 
ATOM     24  C   UNL     1     -23.531 -38.756  27.323  1.00  0.00     0.049 A 
ATOM     25  C   UNL     1     -25.140 -39.973  29.226  1.00  0.00     0.126 A 
ATOM     26  C   UNL     1     -24.454 -38.013  28.050  1.00  0.00     0.126 A 
ATOM     27  C   UNL     1     -25.265 -38.610  29.004  1.00  0.00     0.078 A 
ATOM     28  F   UNL     1     -25.914 -40.564  30.146  1.00  0.00    -0.207 F 
ATOM     29  F   UNL     1     -24.563 -36.697  27.825  1.00  0.00    -0.207 F 
ENDBRANCH  10  22
ENDBRANCH   1   7
BRANCH   4  30
ATOM     30  S   UNL     1     -14.801 -43.275  26.789  1.00  0.00     0.238 S 
ATOM     31  O   UNL     1     -14.694 -44.099  27.969  1.00  0.00    -0.207 OA
ATOM     32  O   UNL     1     -13.973 -42.109  26.575  1.00  0.00    -0.207 OA
BRANCH  30  33
ATOM     33  N   UNL     1     -14.549 -44.254  25.442  1.00  0.00    -0.225 NA
ATOM     34  H   UNL     1     -13.622 -44.057  25.062  1.00  0.00     0.137 HD
ATOM     35  H   UNL     1     -15.278 -44.159  24.737  1.00  0.00     0.137 HD
ENDBRANCH  30  33
ENDBRANCH   4  30
TORSDOF 7
ENDMDL
MODEL 4
REMARK VINA RESULT:    -8.528      4.700      7.224
REMARK INTER + INTRA:         -12.780
REMARK INTER:                 -11.358
REMARK INTRA:                  -1.422
REMARK UNBOUND:                -1.012
REMARK SMILES COc1cccc([C@@H]2CC(c3cc(F)cc(F)c3)=NN2c2ccc(S(N)(=O)=O)cc2)c1OC
REMARK SMILES IDX 21 1 22 2 23 3 24 4 29 5 30 6 20 7 8 8 9 9 10 10 19 11 7 12
REMARK SMILES IDX 3 13 4 14 31 15 5 16 6 17 2 18 1 19 32 20 33 21 11 22 12 23
REMARK SMILES IDX 18 24 13 25 16 26 15 27 14 28 17 29 25 30 27 31 28 32 26 33
REMARK H PARENT 26 34 26 35
ROOT
ATOM      1  C   UNL     1     -22.334 -44.143  27.102  1.00  0.00     0.060 A 
ATOM      2  C   UNL     1     -22.592 -44.590  28.410  1.00  0.00     0.029 A 
ATOM      3  C   UNL     1     -23.586 -45.537  28.682  1.00  0.00     0.024 A 
ATOM      4  C   UNL     1     -24.340 -46.061  27.635  1.00  0.00     0.082 A 
ATOM      5  C   UNL     1     -24.125 -45.632  26.328  1.00  0.00     0.024 A 
ATOM      6  C   UNL     1     -23.127 -44.686  26.073  1.00  0.00     0.029 A 
ENDROOT
BRANCH   1   7
ATOM      7  N   UNL     1     -21.349 -43.200  26.817  1.00  0.00    -0.257 N 
ATOM      8  C   UNL     1     -21.386 -41.778  27.181  1.00  0.00     0.148 C 
ATOM      9  C   UNL     1     -19.934 -41.340  26.971  1.00  0.00     0.091 C 
ATOM     10  C   UNL     1     -19.398 -42.534  26.228  1.00  0.00     0.071 C 
ATOM     11  N   UNL     1     -20.190 -43.562  26.189  1.00  0.00    -0.176 NA
BRANCH   8  12
ATOM     12  C   UNL     1     -22.328 -40.945  26.321  1.00  0.00     0.023 A 
ATOM     13  C   UNL     1     -24.318 -39.516  26.150  1.00  0.00     0.161 A 
ATOM     14  C   UNL     1     -24.052 -39.329  24.790  1.00  0.00     0.050 A 
ATOM     15  C   UNL     1     -23.465 -40.348  26.904  1.00  0.00     0.166 A 
ATOM     16  C   UNL     1     -22.939 -39.928  24.199  1.00  0.00     0.004 A 
ATOM     17  C   UNL     1     -22.078 -40.717  24.957  1.00  0.00     0.010 A 
BRANCH  13  18
ATOM     18  O   UNL     1     -25.357 -38.921  26.818  1.00  0.00    -0.493 OA
ATOM     19  C   UNL     1     -25.163 -37.597  27.298  1.00  0.00     0.278 C 
ENDBRANCH  13  18
BRANCH  15  20
ATOM     20  O   UNL     1     -23.631 -40.562  28.254  1.00  0.00    -0.492 OA
ATOM     21  C   UNL     1     -24.661 -41.505  28.556  1.00  0.00     0.278 C 
ENDBRANCH  15  20
ENDBRANCH   8  12
BRANCH  10  22
ATOM     22  C   UNL     1     -18.048 -42.537  25.622  1.00  0.00     0.004 A 
ATOM     23  C   UNL     1     -16.896 -42.662  26.405  1.00  0.00     0.049 A 
ATOM     24  C   UNL     1     -17.929 -42.415  24.232  1.00  0.00     0.049 A 
ATOM     25  C   UNL     1     -15.647 -42.661  25.789  1.00  0.00     0.126 A 
ATOM     26  C   UNL     1     -16.668 -42.417  23.646  1.00  0.00     0.126 A 
ATOM     27  C   UNL     1     -15.519 -42.539  24.414  1.00  0.00     0.078 A 
ATOM     28  F   UNL     1     -14.547 -42.782  26.544  1.00  0.00    -0.207 F 
ATOM     29  F   UNL     1     -16.560 -42.299  22.316  1.00  0.00    -0.207 F 
ENDBRANCH  10  22
ENDBRANCH   1   7
BRANCH   4  30
ATOM     30  S   UNL     1     -25.599 -47.265  27.957  1.00  0.00     0.238 S 
ATOM     31  O   UNL     1     -25.290 -48.462  27.215  1.00  0.00    -0.207 OA
ATOM     32  O   UNL     1     -26.889 -46.615  27.888  1.00  0.00    -0.207 OA
BRANCH  30  33
ATOM     33  N   UNL     1     -25.347 -47.583  29.592  1.00  0.00    -0.225 NA
ATOM     34  H   UNL     1     -25.491 -48.581  29.758  1.00  0.00     0.137 HD
ATOM     35  H   UNL     1     -25.924 -47.008  30.205  1.00  0.00     0.137 HD
ENDBRANCH  30  33
ENDBRANCH   4  30
TORSDOF 7
ENDMDL
MODEL 5
REMARK VINA RESULT:    -8.241      5.217      8.203
REMARK INTER + INTRA:         -12.384
REMARK INTER:                 -11.207
REMARK INTRA:                  -1.177
REMARK UNBOUND:                -1.012
REMARK SMILES COc1cccc([C@@H]2CC(c3cc(F)cc(F)c3)=NN2c2ccc(S(N)(=O)=O)cc2)c1OC
REMARK SMILES IDX 21 1 22 2 23 3 24 4 29 5 30 6 20 7 8 8 9 9 10 10 19 11 7 12
REMARK SMILES IDX 3 13 4 14 31 15 5 16 6 17 2 18 1 19 32 20 33 21 11 22 12 23
REMARK SMILES IDX 18 24 13 25 16 26 15 27 14 28 17 29 25 30 27 31 28 32 26 33
REMARK H PARENT 26 34 26 35
ROOT
ATOM      1  C   UNL     1     -21.742 -43.744  22.683  1.00  0.00     0.060 A 
ATOM      2  C   UNL     1     -21.737 -43.549  21.291  1.00  0.00     0.029 A 
ATOM      3  C   UNL     1     -22.456 -44.384  20.427  1.00  0.00     0.024 A 
ATOM      4  C   UNL     1     -23.204 -45.435  20.953  1.00  0.00     0.082 A 
ATOM      5  C   UNL     1     -23.222 -45.670  22.325  1.00  0.00     0.024 A 
ATOM      6  C   UNL     1     -22.499 -44.825  23.174  1.00  0.00     0.029 A 
ENDROOT
BRANCH   1   7
ATOM      7  N   UNL     1     -21.030 -42.923  23.554  1.00  0.00    -0.257 N 
ATOM      8  C   UNL     1     -21.471 -41.616  24.059  1.00  0.00     0.148 C 
ATOM      9  C   UNL     1     -20.513 -41.369  25.228  1.00  0.00     0.091 C 
ATOM     10  C   UNL     1     -19.499 -42.452  24.979  1.00  0.00     0.071 C 
ATOM     11  N   UNL     1     -19.829 -43.319  24.071  1.00  0.00    -0.176 NA
BRANCH   8  12
ATOM     12  C   UNL     1     -21.369 -40.493  23.036  1.00  0.00     0.023 A 
ATOM     13  C   UNL     1     -22.472 -38.750  21.702  1.00  0.00     0.161 A 
ATOM     14  C   UNL     1     -21.225 -38.356  21.208  1.00  0.00     0.050 A 
ATOM     15  C   UNL     1     -22.539 -39.838  22.597  1.00  0.00     0.166 A 
ATOM     16  C   UNL     1     -20.063 -39.007  21.623  1.00  0.00     0.004 A 
ATOM     17  C   UNL     1     -20.131 -40.055  22.537  1.00  0.00     0.010 A 
BRANCH  13  18
ATOM     18  O   UNL     1     -23.653 -38.129  21.388  1.00  0.00    -0.493 OA
ATOM     19  C   UNL     1     -23.627 -37.131  20.377  1.00  0.00     0.278 C 
ENDBRANCH  13  18
BRANCH  15  20
ATOM     20  O   UNL     1     -23.719 -40.273  23.159  1.00  0.00    -0.492 OA
ATOM     21  C   UNL     1     -24.158 -39.465  24.251  1.00  0.00     0.278 C 
ENDBRANCH  15  20
ENDBRANCH   8  12
BRANCH  10  22
ATOM     22  C   UNL     1     -18.237 -42.535  25.748  1.00  0.00     0.004 A 
ATOM     23  C   UNL     1     -17.004 -42.711  25.112  1.00  0.00     0.049 A 
ATOM     24  C   UNL     1     -18.286 -42.431  27.144  1.00  0.00     0.049 A 
ATOM     25  C   UNL     1     -15.843 -42.783  25.878  1.00  0.00     0.126 A 
ATOM     26  C   UNL     1     -17.110 -42.506  27.882  1.00  0.00     0.126 A 
ATOM     27  C   UNL     1     -15.882 -42.682  27.261  1.00  0.00     0.078 A 
ATOM     28  F   UNL     1     -14.665 -42.950  25.263  1.00  0.00    -0.207 F 
ATOM     29  F   UNL     1     -17.163 -42.407  29.217  1.00  0.00    -0.207 F 
ENDBRANCH  10  22
ENDBRANCH   1   7
BRANCH   4  30
ATOM     30  S   UNL     1     -24.126 -46.499  19.878  1.00  0.00     0.238 S 
ATOM     31  O   UNL     1     -25.280 -45.779  19.399  1.00  0.00    -0.207 OA
ATOM     32  O   UNL     1     -24.220 -47.806  20.489  1.00  0.00    -0.207 OA
BRANCH  30  33
ATOM     33  N   UNL     1     -23.054 -46.684  18.591  1.00  0.00    -0.225 NA
ATOM     34  H   UNL     1     -23.283 -47.547  18.095  1.00  0.00     0.137 HD
ATOM     35  H   UNL     1     -22.076 -46.658  18.878  1.00  0.00     0.137 HD
ENDBRANCH  30  33
ENDBRANCH   4  30
TORSDOF 7
ENDMDL
MODEL 6
REMARK VINA RESULT:    -8.076      3.327      5.825
REMARK INTER + INTRA:         -12.157
REMARK INTER:                 -11.683
REMARK INTRA:                  -0.475
REMARK UNBOUND:                -1.012
REMARK SMILES COc1cccc([C@@H]2CC(c3cc(F)cc(F)c3)=NN2c2ccc(S(N)(=O)=O)cc2)c1OC
REMARK SMILES IDX 21 1 22 2 23 3 24 4 29 5 30 6 20 7 8 8 9 9 10 10 19 11 7 12
REMARK SMILES IDX 3 13 4 14 31 15 5 16 6 17 2 18 1 19 32 20 33 21 11 22 12 23
REMARK SMILES IDX 18 24 13 25 16 26 15 27 14 28 17 29 25 30 27 31 28 32 26 33
REMARK H PARENT 26 34 26 35
ROOT
ATOM      1  C   UNL     1     -18.766 -42.296  25.799  1.00  0.00     0.060 A 
ATOM      2  C   UNL     1     -17.911 -42.730  24.770  1.00  0.00     0.029 A 
ATOM      3  C   UNL     1     -16.595 -43.133  25.027  1.00  0.00     0.024 A 
ATOM      4  C   UNL     1     -16.113 -43.113  26.334  1.00  0.00     0.082 A 
ATOM      5  C   UNL     1     -16.924 -42.675  27.377  1.00  0.00     0.024 A 
ATOM      6  C   UNL     1     -18.237 -42.278  27.104  1.00  0.00     0.029 A 
ENDROOT
BRANCH   1   7
ATOM      7  N   UNL     1     -20.077 -41.891  25.558  1.00  0.00    -0.257 N 
ATOM      8  C   UNL     1     -20.907 -42.295  24.416  1.00  0.00     0.148 C 
ATOM      9  C   UNL     1     -22.312 -41.881  24.861  1.00  0.00     0.091 C 
ATOM     10  C   UNL     1     -21.977 -41.035  26.059  1.00  0.00     0.071 C 
ATOM     11  N   UNL     1     -20.738 -41.088  26.444  1.00  0.00    -0.176 NA
BRANCH   8  12
ATOM     12  C   UNL     1     -20.534 -41.607  23.109  1.00  0.00     0.023 A 
ATOM     13  C   UNL     1     -20.882 -41.343  20.692  1.00  0.00     0.161 A 
ATOM     14  C   UNL     1     -19.939 -40.310  20.682  1.00  0.00     0.050 A 
ATOM     15  C   UNL     1     -21.155 -42.006  21.907  1.00  0.00     0.166 A 
ATOM     16  C   UNL     1     -19.307 -39.918  21.863  1.00  0.00     0.004 A 
ATOM     17  C   UNL     1     -19.610 -40.550  23.066  1.00  0.00     0.010 A 
BRANCH  13  18
ATOM     18  O   UNL     1     -21.585 -41.751  19.589  1.00  0.00    -0.493 OA
ATOM     19  C   UNL     1     -22.631 -40.909  19.122  1.00  0.00     0.278 C 
ENDBRANCH  13  18
BRANCH  15  20
ATOM     20  O   UNL     1     -22.091 -43.010  22.017  1.00  0.00    -0.492 OA
ATOM     21  C   UNL     1     -21.670 -44.243  21.429  1.00  0.00     0.278 C 
ENDBRANCH  15  20
ENDBRANCH   8  12
BRANCH  10  22
ATOM     22  C   UNL     1     -23.003 -40.234  26.764  1.00  0.00     0.004 A 
ATOM     23  C   UNL     1     -23.407 -38.982  26.287  1.00  0.00     0.049 A 
ATOM     24  C   UNL     1     -23.581 -40.748  27.931  1.00  0.00     0.049 A 
ATOM     25  C   UNL     1     -24.376 -38.265  26.984  1.00  0.00     0.126 A 
ATOM     26  C   UNL     1     -24.547 -40.009  28.605  1.00  0.00     0.126 A 
ATOM     27  C   UNL     1     -24.953 -38.765  28.142  1.00  0.00     0.078 A 
ATOM     28  F   UNL     1     -24.759 -37.067  26.523  1.00  0.00    -0.207 F 
ATOM     29  F   UNL     1     -25.096 -40.505  29.721  1.00  0.00    -0.207 F 
ENDBRANCH  10  22
ENDBRANCH   1   7
BRANCH   4  30
ATOM     30  S   UNL     1     -14.453 -43.624  26.680  1.00  0.00     0.238 S 
ATOM     31  O   UNL     1     -13.605 -42.457  26.683  1.00  0.00    -0.207 OA
ATOM     32  O   UNL     1     -14.157 -44.800  25.893  1.00  0.00    -0.207 OA
BRANCH  30  33
ATOM     33  N   UNL     1     -14.595 -44.172  28.266  1.00  0.00    -0.225 NA
ATOM     34  H   UNL     1     -13.669 -44.436  28.606  1.00  0.00     0.137 HD
ATOM     35  H   UNL     1     -15.269 -44.929  28.369  1.00  0.00     0.137 HD
ENDBRANCH  30  33
ENDBRANCH   4  30
TORSDOF 7
ENDMDL
MODEL 7
REMARK VINA RESULT:    -8.001      4.736      7.830
REMARK INTER + INTRA:         -12.053
REMARK INTER:                 -10.786
REMARK INTRA:                  -1.267
REMARK UNBOUND:                -1.012
REMARK SMILES COc1cccc([C@@H]2CC(c3cc(F)cc(F)c3)=NN2c2ccc(S(N)(=O)=O)cc2)c1OC
REMARK SMILES IDX 21 1 22 2 23 3 24 4 29 5 30 6 20 7 8 8 9 9 10 10 19 11 7 12
REMARK SMILES IDX 3 13 4 14 31 15 5 16 6 17 2 18 1 19 32 20 33 21 11 22 12 23
REMARK SMILES IDX 18 24 13 25 16 26 15 27 14 28 17 29 25 30 27 31 28 32 26 33
REMARK H PARENT 26 34 26 35
ROOT
ATOM      1  C   UNL     1     -22.438 -44.073  24.268  1.00  0.00     0.060 A 
ATOM      2  C   UNL     1     -22.041 -45.260  24.908  1.00  0.00     0.029 A 
ATOM      3  C   UNL     1     -22.220 -46.515  24.312  1.00  0.00     0.024 A 
ATOM      4  C   UNL     1     -22.800 -46.597  23.048  1.00  0.00     0.082 A 
ATOM      5  C   UNL     1     -23.222 -45.445  22.389  1.00  0.00     0.024 A 
ATOM      6  C   UNL     1     -23.034 -44.200  22.998  1.00  0.00     0.029 A 
ENDROOT
BRANCH   1   7
ATOM      7  N   UNL     1     -22.268 -42.818  24.850  1.00  0.00    -0.257 N 
ATOM      8  C   UNL     1     -21.262 -41.820  24.465  1.00  0.00     0.148 C 
ATOM      9  C   UNL     1     -21.776 -40.548  25.143  1.00  0.00     0.091 C 
ATOM     10  C   UNL     1     -22.827 -41.132  26.048  1.00  0.00     0.071 C 
ATOM     11  N   UNL     1     -23.104 -42.383  25.838  1.00  0.00    -0.176 NA
BRANCH   8  12
ATOM     12  C   UNL     1     -19.853 -42.150  24.940  1.00  0.00     0.023 A 
ATOM     13  C   UNL     1     -17.511 -42.659  24.400  1.00  0.00     0.161 A 
ATOM     14  C   UNL     1     -17.214 -42.682  25.766  1.00  0.00     0.050 A 
ATOM     15  C   UNL     1     -18.840 -42.419  23.995  1.00  0.00     0.166 A 
ATOM     16  C   UNL     1     -18.211 -42.433  26.710  1.00  0.00     0.004 A 
ATOM     17  C   UNL     1     -19.513 -42.157  26.303  1.00  0.00     0.010 A 
BRANCH  13  18
ATOM     18  O   UNL     1     -16.581 -42.839  23.409  1.00  0.00    -0.493 OA
ATOM     19  C   UNL     1     -15.608 -41.821  23.222  1.00  0.00     0.278 C 
ENDBRANCH  13  18
BRANCH  15  20
ATOM     20  O   UNL     1     -19.218 -42.346  22.672  1.00  0.00    -0.492 OA
ATOM     21  C   UNL     1     -19.059 -41.043  22.108  1.00  0.00     0.278 C 
ENDBRANCH  15  20
ENDBRANCH   8  12
BRANCH  10  22
ATOM     22  C   UNL     1     -23.517 -40.318  27.074  1.00  0.00     0.004 A 
ATOM     23  C   UNL     1     -24.094 -40.904  28.205  1.00  0.00     0.049 A 
ATOM     24  C   UNL     1     -23.586 -38.930  26.904  1.00  0.00     0.049 A 
ATOM     25  C   UNL     1     -24.732 -40.097  29.144  1.00  0.00     0.126 A 
ATOM     26  C   UNL     1     -24.229 -38.150  27.859  1.00  0.00     0.126 A 
ATOM     27  C   UNL     1     -24.807 -38.721  28.983  1.00  0.00     0.078 A 
ATOM     28  F   UNL     1     -25.283 -40.664  30.226  1.00  0.00    -0.207 F 
ATOM     29  F   UNL     1     -24.293 -36.823  27.691  1.00  0.00    -0.207 F 
ENDBRANCH  10  22
ENDBRANCH   1   7
BRANCH   4  30
ATOM     30  S   UNL     1     -23.031 -48.174  22.275  1.00  0.00     0.238 S 
ATOM     31  O   UNL     1     -22.952 -47.999  20.845  1.00  0.00    -0.207 OA
ATOM     32  O   UNL     1     -24.136 -48.848  22.918  1.00  0.00    -0.207 OA
BRANCH  30  33
ATOM     33  N   UNL     1     -21.651 -48.999  22.777  1.00  0.00    -0.225 NA
ATOM     34  H   UNL     1     -21.313 -48.576  23.643  1.00  0.00     0.137 HD
ATOM     35  H   UNL     1     -20.925 -49.037  22.063  1.00  0.00     0.137 HD
ENDBRANCH  30  33
ENDBRANCH   4  30
TORSDOF 7
ENDMDL
MODEL 8
REMARK VINA RESULT:    -7.751      5.682      9.024
REMARK INTER + INTRA:         -11.708
REMARK INTER:                 -10.338
REMARK INTRA:                  -1.370
REMARK UNBOUND:                -1.012
REMARK SMILES COc1cccc([C@@H]2CC(c3cc(F)cc(F)c3)=NN2c2ccc(S(N)(=O)=O)cc2)c1OC
REMARK SMILES IDX 21 1 22 2 23 3 24 4 29 5 30 6 20 7 8 8 9 9 10 10 19 11 7 12
REMARK SMILES IDX 3 13 4 14 31 15 5 16 6 17 2 18 1 19 32 20 33 21 11 22 12 23
REMARK SMILES IDX 18 24 13 25 16 26 15 27 14 28 17 29 25 30 27 31 28 32 26 33
REMARK H PARENT 26 34 26 35
ROOT
ATOM      1  C   UNL     1     -22.733 -42.987  21.246  1.00  0.00     0.060 A 
ATOM      2  C   UNL     1     -22.286 -43.877  20.253  1.00  0.00     0.029 A 
ATOM      3  C   UNL     1     -23.179 -44.611  19.463  1.00  0.00     0.024 A 
ATOM      4  C   UNL     1     -24.550 -44.456  19.655  1.00  0.00     0.082 A 
ATOM      5  C   UNL     1     -25.032 -43.596  20.638  1.00  0.00     0.024 A 
ATOM      6  C   UNL     1     -24.126 -42.870  21.417  1.00  0.00     0.029 A 
ENDROOT
BRANCH   1   7
ATOM      7  N   UNL     1     -21.856 -42.252  22.040  1.00  0.00    -0.257 N 
ATOM      8  C   UNL     1     -22.040 -40.858  22.464  1.00  0.00     0.148 C 
ATOM      9  C   UNL     1     -21.011 -40.713  23.588  1.00  0.00     0.091 C 
ATOM     10  C   UNL     1     -20.215 -41.973  23.390  1.00  0.00     0.071 C 
ATOM     11  N   UNL     1     -20.725 -42.824  22.552  1.00  0.00    -0.176 NA
BRANCH   8  12
ATOM     12  C   UNL     1     -21.779 -39.839  21.362  1.00  0.00     0.023 A 
ATOM     13  C   UNL     1     -22.464 -37.805  20.167  1.00  0.00     0.161 A 
ATOM     14  C   UNL     1     -21.301 -37.883  19.394  1.00  0.00     0.050 A 
ATOM     15  C   UNL     1     -22.709 -38.804  21.133  1.00  0.00     0.166 A 
ATOM     16  C   UNL     1     -20.382 -38.912  19.601  1.00  0.00     0.004 A 
ATOM     17  C   UNL     1     -20.611 -39.873  20.583  1.00  0.00     0.010 A 
BRANCH  13  18
ATOM     18  O   UNL     1     -23.388 -36.799  20.064  1.00  0.00    -0.493 OA
ATOM     19  C   UNL     1     -23.803 -36.413  18.760  1.00  0.00     0.278 C 
ENDBRANCH  13  18
BRANCH  15  20
ATOM     20  O   UNL     1     -23.810 -38.789  21.961  1.00  0.00    -0.492 OA
ATOM     21  C   UNL     1     -25.003 -39.250  21.324  1.00  0.00     0.278 C 
ENDBRANCH  15  20
ENDBRANCH   8  12
BRANCH  10  22
ATOM     22  C   UNL     1     -18.960 -42.231  24.131  1.00  0.00     0.004 A 
ATOM     23  C   UNL     1     -17.786 -42.608  23.471  1.00  0.00     0.049 A 
ATOM     24  C   UNL     1     -18.954 -42.090  25.524  1.00  0.00     0.049 A 
ATOM     25  C   UNL     1     -16.629 -42.839  24.211  1.00  0.00     0.126 A 
ATOM     26  C   UNL     1     -17.783 -42.327  26.236  1.00  0.00     0.126 A 
ATOM     27  C   UNL     1     -16.614 -42.704  25.592  1.00  0.00     0.078 A 
ATOM     28  F   UNL     1     -15.507 -43.199  23.574  1.00  0.00    -0.207 F 
ATOM     29  F   UNL     1     -17.785 -42.191  27.569  1.00  0.00    -0.207 F 
ENDBRANCH  10  22
ENDBRANCH   1   7
BRANCH   4  30
ATOM     30  S   UNL     1     -25.698 -45.371  18.662  1.00  0.00     0.238 S 
ATOM     31  O   UNL     1     -27.036 -45.057  19.101  1.00  0.00    -0.207 OA
ATOM     32  O   UNL     1     -25.218 -46.728  18.532  1.00  0.00    -0.207 OA
BRANCH  30  33
ATOM     33  N   UNL     1     -25.466 -44.669  17.149  1.00  0.00    -0.225 NA
ATOM     34  H   UNL     1     -26.147 -43.918  17.027  1.00  0.00     0.137 HD
ATOM     35  H   UNL     1     -25.501 -45.343  16.385  1.00  0.00     0.137 HD
ENDBRANCH  30  33
ENDBRANCH   4  30
TORSDOF 7
ENDMDL
MODEL 9
REMARK VINA RESULT:    -7.651      4.961      7.091
REMARK INTER + INTRA:         -11.571
REMARK INTER:                 -10.248
REMARK INTRA:                  -1.323
REMARK UNBOUND:                -1.012
REMARK SMILES COc1cccc([C@@H]2CC(c3cc(F)cc(F)c3)=NN2c2ccc(S(N)(=O)=O)cc2)c1OC
REMARK SMILES IDX 21 1 22 2 23 3 24 4 29 5 30 6 20 7 8 8 9 9 10 10 19 11 7 12
REMARK SMILES IDX 3 13 4 14 31 15 5 16 6 17 2 18 1 19 32 20 33 21 11 22 12 23
REMARK SMILES IDX 18 24 13 25 16 26 15 27 14 28 17 29 25 30 27 31 28 32 26 33
REMARK H PARENT 26 34 26 35
ROOT
ATOM      1  C   UNL     1     -22.635 -40.470  25.860  1.00  0.00     0.060 A 
ATOM      2  C   UNL     1     -23.583 -39.597  25.299  1.00  0.00     0.029 A 
ATOM      3  C   UNL     1     -24.413 -38.799  26.096  1.00  0.00     0.024 A 
ATOM      4  C   UNL     1     -24.298 -38.860  27.483  1.00  0.00     0.082 A 
ATOM      5  C   UNL     1     -23.382 -39.725  28.076  1.00  0.00     0.024 A 
ATOM      6  C   UNL     1     -22.560 -40.513  27.266  1.00  0.00     0.029 A 
ENDROOT
BRANCH   1   7
ATOM      7  N   UNL     1     -21.804 -41.271  25.080  1.00  0.00    -0.257 N 
ATOM      8  C   UNL     1     -22.245 -42.266  24.093  1.00  0.00     0.148 C 
ATOM      9  C   UNL     1     -20.965 -42.540  23.300  1.00  0.00     0.091 C 
ATOM     10  C   UNL     1     -19.951 -41.870  24.185  1.00  0.00     0.071 C 
ATOM     11  N   UNL     1     -20.445 -41.144  25.142  1.00  0.00    -0.176 NA
BRANCH   8  12
ATOM     12  C   UNL     1     -22.781 -43.551  24.710  1.00  0.00     0.023 A 
ATOM     13  C   UNL     1     -24.701 -44.959  25.315  1.00  0.00     0.161 A 
ATOM     14  C   UNL     1     -23.819 -45.946  25.765  1.00  0.00     0.050 A 
ATOM     15  C   UNL     1     -24.173 -43.751  24.812  1.00  0.00     0.166 A 
ATOM     16  C   UNL     1     -22.440 -45.752  25.684  1.00  0.00     0.004 A 
ATOM     17  C   UNL     1     -21.925 -44.574  25.150  1.00  0.00     0.010 A 
BRANCH  13  18
ATOM     18  O   UNL     1     -26.065 -45.092  25.310  1.00  0.00    -0.493 OA
ATOM     19  C   UNL     1     -26.602 -46.386  25.074  1.00  0.00     0.278 C 
ENDBRANCH  13  18
BRANCH  15  20
ATOM     20  O   UNL     1     -24.965 -42.738  24.317  1.00  0.00    -0.492 OA
ATOM     21  C   UNL     1     -25.424 -42.977  22.986  1.00  0.00     0.278 C 
ENDBRANCH  15  20
ENDBRANCH   8  12
BRANCH  10  22
ATOM     22  C   UNL     1     -18.495 -42.003  23.950  1.00  0.00     0.004 A 
ATOM     23  C   UNL     1     -17.676 -42.721  24.827  1.00  0.00     0.049 A 
ATOM     24  C   UNL     1     -17.933 -41.398  22.819  1.00  0.00     0.049 A 
ATOM     25  C   UNL     1     -16.312 -42.820  24.563  1.00  0.00     0.126 A 
ATOM     26  C   UNL     1     -16.568 -41.514  22.582  1.00  0.00     0.126 A 
ATOM     27  C   UNL     1     -15.746 -42.222  23.447  1.00  0.00     0.078 A 
ATOM     28  F   UNL     1     -15.533 -43.510  25.407  1.00  0.00    -0.207 F 
ATOM     29  F   UNL     1     -16.036 -40.932  21.500  1.00  0.00    -0.207 F 
ENDBRANCH  10  22
ENDBRANCH   1   7
BRANCH   4  30
ATOM     30  S   UNL     1     -25.334 -37.855  28.508  1.00  0.00     0.238 S 
ATOM     31  O   UNL     1     -25.699 -38.615  29.679  1.00  0.00    -0.207 OA
ATOM     32  O   UNL     1     -26.312 -37.194  27.673  1.00  0.00    -0.207 OA
BRANCH  30  33
ATOM     33  N   UNL     1     -24.263 -36.645  28.983  1.00  0.00    -0.225 NA
ATOM     34  H   UNL     1     -24.692 -35.736  28.800  1.00  0.00     0.137 HD
ATOM     35  H   UNL     1     -23.346 -36.728  28.546  1.00  0.00     0.137 HD
ENDBRANCH  30  33
ENDBRANCH   4  30
TORSDOF 7
ENDMDL
