MODEL 1
REMARK VINA RESULT:   -11.776      0.000      0.000
REMARK INTER + INTRA:         -14.634
REMARK INTER:                 -14.529
REMARK INTRA:                  -0.105
REMARK UNBOUND:                -0.105
REMARK SMILES CCc1ccccc1NC(=O)Oc1ccc2c(c1)[C@]1(C)CC[N@@H+](C)[C@@H]1N2C
REMARK SMILES IDX 10 1 9 2 11 3 12 5 13 6 22 7 23 8 21 9 25 10 19 11 26 12
REMARK SMILES IDX 17 13 16 14 18 15 15 16 14 17 24 18 20 20 27 21 8 22 7 23
REMARK SMILES IDX 3 24 6 25 4 26 5 27 2 28 1 29
REMARK H PARENT 9 4 23 19
ROOT
ATOM      1  C   UNL     1     -14.924 -43.895  24.903  1.00  0.00     0.417 C 
ATOM      2  N   UNL     1     -16.072 -43.152  24.984  1.00  0.00    -0.291 N 
ATOM      3  O   UNL     1     -14.166 -44.010  23.950  1.00  0.00    -0.224 OA
ATOM      4  H   UNL     1     -16.528 -43.218  25.881  1.00  0.00     0.173 HD
ENDROOT
BRANCH   1   5
ATOM      5  O   UNL     1     -14.744 -44.540  26.128  1.00  0.00    -0.410 OA
BRANCH   5   6
ATOM      6  C   UNL     1     -13.567 -44.225  26.824  1.00  0.00     0.133 A 
ATOM      7  C   UNL     1     -11.585 -44.825  31.375  1.00  0.00     0.265 C 
ATOM      8  N   UNL     1     -10.330 -44.078  31.029  1.00  0.00    -0.317 N 
ATOM      9  C   UNL     1     -11.544 -46.062  30.502  1.00  0.00     0.081 C 
ATOM     10  C   UNL     1      -9.893 -44.504  29.669  1.00  0.00     0.296 C 
ATOM     11  C   UNL     1     -10.903 -45.579  29.205  1.00  0.00     0.072 C 
ATOM     12  N   UNL     1     -10.094 -43.256  28.942  1.00  0.00    -0.325 N 
ATOM     13  C   UNL     1     -11.803 -44.761  28.328  1.00  0.00    -0.007 A 
ATOM     14  C   UNL     1     -11.269 -43.476  28.173  1.00  0.00     0.045 A 
ATOM     15  C   UNL     1     -12.960 -45.152  27.672  1.00  0.00     0.054 A 
ATOM     16  C   UNL     1     -11.902 -42.548  27.357  1.00  0.00     0.030 A 
ATOM     17  C   UNL     1     -13.065 -42.926  26.678  1.00  0.00     0.049 A 
ATOM     18  C   UNL     1      -9.266 -44.099  32.062  1.00  0.00     0.334 C 
ATOM     19  H   UNL     1     -10.580 -43.101  30.829  1.00  0.00     0.349 HD
ATOM     20  C   UNL     1     -10.241 -46.708  28.418  1.00  0.00     0.025 C 
ATOM     21  C   UNL     1      -8.974 -42.804  28.109  1.00  0.00     0.150 C 
ENDBRANCH   5   6
ENDBRANCH   1   5
BRANCH   2  22
ATOM     22  C   UNL     1     -16.673 -42.337  24.000  1.00  0.00     0.047 A 
ATOM     23  C   UNL     1     -15.917 -41.672  23.026  1.00  0.00     0.026 A 
ATOM     24  C   UNL     1     -18.079 -42.190  23.992  1.00  0.00    -0.025 A 
ATOM     25  C   UNL     1     -16.532 -40.880  22.052  1.00  0.00     0.002 A 
ATOM     26  C   UNL     1     -18.680 -41.393  22.998  1.00  0.00     0.006 A 
ATOM     27  C   UNL     1     -17.913 -40.741  22.037  1.00  0.00     0.000 A 
BRANCH  24  28
ATOM     28  C   UNL     1     -18.996 -42.863  24.990  1.00  0.00     0.034 C 
ATOM     29  C   UNL     1     -19.284 -41.979  26.194  1.00  0.00     0.009 C 
ENDBRANCH  24  28
ENDBRANCH   2  22
TORSDOF 4
ENDMDL
MODEL 2
REMARK VINA RESULT:   -11.582      0.994      2.184
REMARK INTER + INTRA:         -14.395
REMARK INTER:                 -14.241
REMARK INTRA:                  -0.154
REMARK UNBOUND:                -0.105
REMARK SMILES CCc1ccccc1NC(=O)Oc1ccc2c(c1)[C@]1(C)CC[N@@H+](C)[C@@H]1N2C
REMARK SMILES IDX 10 1 9 2 11 3 12 5 13 6 22 7 23 8 21 9 25 10 19 11 26 12
REMARK SMILES IDX 17 13 16 14 18 15 15 16 14 17 24 18 20 20 27 21 8 22 7 23
REMARK SMILES IDX 3 24 6 25 4 26 5 27 2 28 1 29
REMARK H PARENT 9 4 23 19
ROOT
ATOM      1  C   UNL     1     -15.354 -43.489  26.755  1.00  0.00     0.417 C 
ATOM      2  N   UNL     1     -16.144 -43.296  25.652  1.00  0.00    -0.291 N 
ATOM      3  O   UNL     1     -15.584 -43.167  27.912  1.00  0.00    -0.224 OA
ATOM      4  H   UNL     1     -15.735 -43.652  24.801  1.00  0.00     0.173 HD
ENDROOT
BRANCH   1   5
ATOM      5  O   UNL     1     -14.188 -44.133  26.340  1.00  0.00    -0.410 OA
BRANCH   5   6
ATOM      6  C   UNL     1     -13.038 -43.881  27.103  1.00  0.00     0.133 A 
ATOM      7  C   UNL     1     -11.434 -44.382  31.812  1.00  0.00     0.265 C 
ATOM      8  N   UNL     1     -10.096 -43.769  31.520  1.00  0.00    -0.317 N 
ATOM      9  C   UNL     1     -11.446 -45.667  31.010  1.00  0.00     0.081 C 
ATOM     10  C   UNL     1      -9.607 -44.310  30.220  1.00  0.00     0.296 C 
ATOM     11  C   UNL     1     -10.677 -45.319  29.741  1.00  0.00     0.072 C 
ATOM     12  N   UNL     1      -9.644 -43.094  29.415  1.00  0.00    -0.325 N 
ATOM     13  C   UNL     1     -11.436 -44.478  28.758  1.00  0.00    -0.007 A 
ATOM     14  C   UNL     1     -10.779 -43.256  28.575  1.00  0.00     0.045 A 
ATOM     15  C   UNL     1     -12.577 -44.806  28.040  1.00  0.00     0.054 A 
ATOM     16  C   UNL     1     -11.268 -42.326  27.667  1.00  0.00     0.030 A 
ATOM     17  C   UNL     1     -12.411 -42.642  26.926  1.00  0.00     0.049 A 
ATOM     18  C   UNL     1      -9.111 -43.820  32.628  1.00  0.00     0.334 C 
ATOM     19  H   UNL     1     -10.241 -42.786  31.251  1.00  0.00     0.349 HD
ATOM     20  C   UNL     1     -10.067 -46.545  29.065  1.00  0.00     0.025 C 
ATOM     21  C   UNL     1      -8.434 -42.791  28.644  1.00  0.00     0.150 C 
ENDBRANCH   5   6
ENDBRANCH   1   5
BRANCH   2  22
ATOM     22  C   UNL     1     -17.411 -42.679  25.565  1.00  0.00     0.047 A 
ATOM     23  C   UNL     1     -18.175 -42.391  26.704  1.00  0.00     0.026 A 
ATOM     24  C   UNL     1     -17.925 -42.338  24.293  1.00  0.00    -0.025 A 
ATOM     25  C   UNL     1     -19.422 -41.769  26.596  1.00  0.00     0.002 A 
ATOM     26  C   UNL     1     -19.180 -41.704  24.207  1.00  0.00     0.006 A 
ATOM     27  C   UNL     1     -19.924 -41.424  25.349  1.00  0.00     0.000 A 
BRANCH  24  28
ATOM     28  C   UNL     1     -17.187 -42.595  22.996  1.00  0.00     0.034 C 
ATOM     29  C   UNL     1     -16.611 -41.319  22.400  1.00  0.00     0.009 C 
ENDBRANCH  24  28
ENDBRANCH   2  22
TORSDOF 4
ENDMDL
MODEL 3
REMARK VINA RESULT:   -11.527      1.667      3.084
REMARK INTER + INTRA:         -14.328
REMARK INTER:                 -14.033
REMARK INTRA:                  -0.295
REMARK UNBOUND:                -0.105
REMARK SMILES CCc1ccccc1NC(=O)Oc1ccc2c(c1)[C@]1(C)CC[N@@H+](C)[C@@H]1N2C
REMARK SMILES IDX 10 1 9 2 11 3 12 5 13 6 22 7 23 8 21 9 25 10 19 11 26 12
REMARK SMILES IDX 17 13 16 14 18 15 15 16 14 17 24 18 20 20 27 21 8 22 7 23
REMARK SMILES IDX 3 24 6 25 4 26 5 27 2 28 1 29
REMARK H PARENT 9 4 23 19
ROOT
ATOM      1  C   UNL     1     -13.826 -43.838  26.773  1.00  0.00     0.417 C 
ATOM      2  N   UNL     1     -14.625 -42.749  26.541  1.00  0.00    -0.291 N 
ATOM      3  O   UNL     1     -14.166 -44.966  27.102  1.00  0.00    -0.224 OA
ATOM      4  H   UNL     1     -14.108 -41.924  26.280  1.00  0.00     0.173 HD
ENDROOT
BRANCH   1   5
ATOM      5  O   UNL     1     -12.500 -43.447  26.577  1.00  0.00    -0.410 OA
BRANCH   5   6
ATOM      6  C   UNL     1     -11.698 -43.386  27.726  1.00  0.00     0.133 A 
ATOM      7  C   UNL     1     -12.187 -42.682  32.652  1.00  0.00     0.265 C 
ATOM      8  N   UNL     1     -10.711 -42.775  32.906  1.00  0.00    -0.317 N 
ATOM      9  C   UNL     1     -12.578 -44.064  32.171  1.00  0.00     0.081 C 
ATOM     10  C   UNL     1     -10.166 -43.900  32.092  1.00  0.00     0.296 C 
ATOM     11  C   UNL     1     -11.374 -44.528  31.358  1.00  0.00     0.072 C 
ATOM     12  N   UNL     1      -9.328 -43.149  31.163  1.00  0.00    -0.325 N 
ATOM     13  C   UNL     1     -11.246 -43.889  30.007  1.00  0.00    -0.007 A 
ATOM     14  C   UNL     1     -10.049 -43.168  29.938  1.00  0.00     0.045 A 
ATOM     15  C   UNL     1     -12.093 -44.000  28.915  1.00  0.00     0.054 A 
ATOM     16  C   UNL     1      -9.683 -42.528  28.761  1.00  0.00     0.030 A 
ATOM     17  C   UNL     1     -10.518 -42.637  27.645  1.00  0.00     0.049 A 
ATOM     18  C   UNL     1     -10.305 -42.783  34.333  1.00  0.00     0.334 C 
ATOM     19  H   UNL     1     -10.250 -41.986  32.435  1.00  0.00     0.349 HD
ATOM     20  C   UNL     1     -11.277 -46.049  31.262  1.00  0.00     0.025 C 
ATOM     21  C   UNL     1      -7.954 -43.635  30.995  1.00  0.00     0.150 C 
ENDBRANCH   5   6
ENDBRANCH   1   5
BRANCH   2  22
ATOM     22  C   UNL     1     -16.030 -42.647  26.624  1.00  0.00     0.047 A 
ATOM     23  C   UNL     1     -16.691 -42.484  27.849  1.00  0.00     0.026 A 
ATOM     24  C   UNL     1     -16.796 -42.707  25.437  1.00  0.00    -0.025 A 
ATOM     25  C   UNL     1     -18.083 -42.373  27.908  1.00  0.00     0.002 A 
ATOM     26  C   UNL     1     -18.197 -42.585  25.517  1.00  0.00     0.006 A 
ATOM     27  C   UNL     1     -18.836 -42.422  26.743  1.00  0.00     0.000 A 
BRANCH  24  28
ATOM     28  C   UNL     1     -16.192 -42.875  24.059  1.00  0.00     0.034 C 
ATOM     29  C   UNL     1     -16.843 -41.962  23.031  1.00  0.00     0.009 C 
ENDBRANCH  24  28
ENDBRANCH   2  22
TORSDOF 4
ENDMDL
MODEL 4
REMARK VINA RESULT:   -11.259      2.088      9.110
REMARK INTER + INTRA:         -13.997
REMARK INTER:                 -13.921
REMARK INTRA:                  -0.076
REMARK UNBOUND:                -0.105
REMARK SMILES CCc1ccccc1NC(=O)Oc1ccc2c(c1)[C@]1(C)CC[N@@H+](C)[C@@H]1N2C
REMARK SMILES IDX 10 1 9 2 11 3 12 5 13 6 22 7 23 8 21 9 25 10 19 11 26 12
REMARK SMILES IDX 17 13 16 14 18 15 15 16 14 17 24 18 20 20 27 21 8 22 7 23
REMARK SMILES IDX 3 24 6 25 4 26 5 27 2 28 1 29
REMARK H PARENT 9 4 23 19
ROOT
ATOM      1  C   UNL     1     -14.406 -43.534  26.307  1.00  0.00     0.417 C 
ATOM      2  N   UNL     1     -13.471 -43.374  27.296  1.00  0.00    -0.291 N 
ATOM      3  O   UNL     1     -14.598 -44.515  25.604  1.00  0.00    -0.224 OA
ATOM      4  H   UNL     1     -13.509 -42.468  27.739  1.00  0.00     0.173 HD
ENDROOT
BRANCH   1   5
ATOM      5  O   UNL     1     -15.137 -42.348  26.213  1.00  0.00    -0.410 OA
BRANCH   5   6
ATOM      6  C   UNL     1     -16.315 -42.409  25.452  1.00  0.00     0.133 A 
ATOM      7  C   UNL     1     -20.671 -44.862  25.406  1.00  0.00     0.265 C 
ATOM      8  N   UNL     1     -21.148 -44.182  24.156  1.00  0.00    -0.317 N 
ATOM      9  C   UNL     1     -20.584 -43.751  26.433  1.00  0.00     0.081 C 
ATOM     10  C   UNL     1     -20.800 -42.735  24.249  1.00  0.00     0.296 C 
ATOM     11  C   UNL     1     -20.130 -42.538  25.629  1.00  0.00     0.072 C 
ATOM     12  N   UNL     1     -19.815 -42.647  23.177  1.00  0.00    -0.325 N 
ATOM     13  C   UNL     1     -18.681 -42.549  25.242  1.00  0.00    -0.007 A 
ATOM     14  C   UNL     1     -18.564 -42.558  23.847  1.00  0.00     0.045 A 
ATOM     15  C   UNL     1     -17.566 -42.488  26.065  1.00  0.00     0.054 A 
ATOM     16  C   UNL     1     -17.313 -42.518  23.248  1.00  0.00     0.030 A 
ATOM     17  C   UNL     1     -16.177 -42.445  24.059  1.00  0.00     0.049 A 
ATOM     18  C   UNL     1     -22.551 -44.463  23.767  1.00  0.00     0.334 C 
ATOM     19  H   UNL     1     -20.528 -44.456  23.382  1.00  0.00     0.349 HD
ATOM     20  C   UNL     1     -20.516 -41.216  26.287  1.00  0.00     0.025 C 
ATOM     21  C   UNL     1     -19.998 -41.553  22.218  1.00  0.00     0.150 C 
ENDBRANCH   5   6
ENDBRANCH   1   5
BRANCH   2  22
ATOM     22  C   UNL     1     -12.497 -44.288  27.752  1.00  0.00     0.047 A 
ATOM     23  C   UNL     1     -12.757 -45.661  27.854  1.00  0.00     0.026 A 
ATOM     24  C   UNL     1     -11.217 -43.807  28.114  1.00  0.00    -0.025 A 
ATOM     25  C   UNL     1     -11.775 -46.550  28.296  1.00  0.00     0.002 A 
ATOM     26  C   UNL     1     -10.238 -44.721  28.550  1.00  0.00     0.006 A 
ATOM     27  C   UNL     1     -10.515 -46.082  28.642  1.00  0.00     0.000 A 
BRANCH  24  28
ATOM     28  C   UNL     1     -10.820 -42.348  28.041  1.00  0.00     0.034 C 
ATOM     29  C   UNL     1      -9.408 -42.163  27.506  1.00  0.00     0.009 C 
ENDBRANCH  24  28
ENDBRANCH   2  22
TORSDOF 4
ENDMDL
MODEL 5
REMARK VINA RESULT:   -10.902      1.252      1.548
REMARK INTER + INTRA:         -13.556
REMARK INTER:                 -13.361
REMARK INTRA:                  -0.196
REMARK UNBOUND:                -0.105
REMARK SMILES CCc1ccccc1NC(=O)Oc1ccc2c(c1)[C@]1(C)CC[N@@H+](C)[C@@H]1N2C
REMARK SMILES IDX 10 1 9 2 11 3 12 5 13 6 22 7 23 8 21 9 25 10 19 11 26 12
REMARK SMILES IDX 17 13 16 14 18 15 15 16 14 17 24 18 20 20 27 21 8 22 7 23
REMARK SMILES IDX 3 24 6 25 4 26 5 27 2 28 1 29
REMARK H PARENT 9 4 23 19
ROOT
ATOM      1  C   UNL     1     -15.103 -43.277  26.388  1.00  0.00     0.417 C 
ATOM      2  N   UNL     1     -15.529 -43.518  25.108  1.00  0.00    -0.291 N 
ATOM      3  O   UNL     1     -15.322 -42.295  27.083  1.00  0.00    -0.224 OA
ATOM      4  H   UNL     1     -15.218 -44.405  24.744  1.00  0.00     0.173 HD
ENDROOT
BRANCH   1   5
ATOM      5  O   UNL     1     -14.339 -44.371  26.798  1.00  0.00    -0.410 OA
BRANCH   5   6
ATOM      6  C   UNL     1     -13.235 -44.080  27.614  1.00  0.00     0.133 A 
ATOM      7  C   UNL     1     -12.238 -43.017  32.397  1.00  0.00     0.265 C 
ATOM      8  N   UNL     1     -10.767 -42.855  32.152  1.00  0.00    -0.317 N 
ATOM      9  C   UNL     1     -12.510 -44.482  32.120  1.00  0.00     0.081 C 
ATOM     10  C   UNL     1     -10.320 -43.949  31.243  1.00  0.00     0.296 C 
ATOM     11  C   UNL     1     -11.567 -44.823  30.971  1.00  0.00     0.072 C 
ATOM     12  N   UNL     1      -9.972 -43.164  30.063  1.00  0.00    -0.325 N 
ATOM     13  C   UNL     1     -11.994 -44.298  29.633  1.00  0.00    -0.007 A 
ATOM     14  C   UNL     1     -11.031 -43.406  29.146  1.00  0.00     0.045 A 
ATOM     15  C   UNL     1     -13.112 -44.639  28.887  1.00  0.00     0.054 A 
ATOM     16  C   UNL     1     -11.181 -42.826  27.894  1.00  0.00     0.030 A 
ATOM     17  C   UNL     1     -12.296 -43.165  27.122  1.00  0.00     0.049 A 
ATOM     18  C   UNL     1      -9.931 -42.669  33.363  1.00  0.00     0.334 C 
ATOM     19  H   UNL     1     -10.630 -42.049  31.528  1.00  0.00     0.349 HD
ATOM     20  C   UNL     1     -11.237 -46.312  30.900  1.00  0.00     0.025 C 
ATOM     21  C   UNL     1      -8.661 -43.440  29.466  1.00  0.00     0.150 C 
ENDBRANCH   5   6
ENDBRANCH   1   5
BRANCH   2  22
ATOM     22  C   UNL     1     -16.318 -42.703  24.268  1.00  0.00     0.047 A 
ATOM     23  C   UNL     1     -15.796 -42.099  23.117  1.00  0.00     0.026 A 
ATOM     24  C   UNL     1     -17.678 -42.491  24.593  1.00  0.00    -0.025 A 
ATOM     25  C   UNL     1     -16.597 -41.305  22.292  1.00  0.00     0.002 A 
ATOM     26  C   UNL     1     -18.471 -41.694  23.744  1.00  0.00     0.006 A 
ATOM     27  C   UNL     1     -17.934 -41.104  22.604  1.00  0.00     0.000 A 
BRANCH  24  28
ATOM     28  C   UNL     1     -18.352 -43.095  25.807  1.00  0.00     0.034 C 
ATOM     29  C   UNL     1     -19.427 -42.183  26.381  1.00  0.00     0.009 C 
ENDBRANCH  24  28
ENDBRANCH   2  22
TORSDOF 4
ENDMDL
MODEL 6
REMARK VINA RESULT:    -9.725      4.472     10.628
REMARK INTER + INTRA:         -12.104
REMARK INTER:                 -11.370
REMARK INTRA:                  -0.734
REMARK UNBOUND:                -0.105
REMARK SMILES CCc1ccccc1NC(=O)Oc1ccc2c(c1)[C@]1(C)CC[N@@H+](C)[C@@H]1N2C
REMARK SMILES IDX 10 1 9 2 11 3 12 5 13 6 22 7 23 8 21 9 25 10 19 11 26 12
REMARK SMILES IDX 17 13 16 14 18 15 15 16 14 17 24 18 20 20 27 21 8 22 7 23
REMARK SMILES IDX 3 24 6 25 4 26 5 27 2 28 1 29
REMARK H PARENT 9 4 23 19
ROOT
ATOM      1  C   UNL     1     -19.075 -42.122  26.562  1.00  0.00     0.417 C 
ATOM      2  N   UNL     1     -18.020 -42.029  25.693  1.00  0.00    -0.291 N 
ATOM      3  O   UNL     1     -19.147 -42.778  27.592  1.00  0.00    -0.224 OA
ATOM      4  H   UNL     1     -18.201 -41.420  24.909  1.00  0.00     0.173 HD
ENDROOT
BRANCH   1   5
ATOM      5  O   UNL     1     -20.109 -41.325  26.069  1.00  0.00    -0.410 OA
BRANCH   5   6
ATOM      6  C   UNL     1     -20.514 -41.585  24.751  1.00  0.00     0.133 A 
ATOM      7  C   UNL     1     -22.776 -39.248  20.953  1.00  0.00     0.265 C 
ATOM      8  N   UNL     1     -22.729 -40.454  20.061  1.00  0.00    -0.317 N 
ATOM      9  C   UNL     1     -21.322 -38.867  21.152  1.00  0.00     0.081 C 
ATOM     10  C   UNL     1     -21.389 -41.091  20.205  1.00  0.00     0.296 C 
ATOM     11  C   UNL     1     -20.591 -40.205  21.189  1.00  0.00     0.072 C 
ATOM     12  N   UNL     1     -21.778 -42.347  20.838  1.00  0.00    -0.325 N 
ATOM     13  C   UNL     1     -20.758 -40.976  22.463  1.00  0.00    -0.007 A 
ATOM     14  C   UNL     1     -21.387 -42.198  22.197  1.00  0.00     0.045 A 
ATOM     15  C   UNL     1     -20.325 -40.644  23.738  1.00  0.00     0.054 A 
ATOM     16  C   UNL     1     -21.605 -43.112  23.219  1.00  0.00     0.030 A 
ATOM     17  C   UNL     1     -21.166 -42.801  24.509  1.00  0.00     0.049 A 
ATOM     18  C   UNL     1     -23.169 -40.235  18.661  1.00  0.00     0.334 C 
ATOM     19  H   UNL     1     -23.313 -41.190  20.480  1.00  0.00     0.349 HD
ATOM     20  C   UNL     1     -19.118 -40.081  20.807  1.00  0.00     0.025 C 
ATOM     21  C   UNL     1     -21.228 -43.569  20.243  1.00  0.00     0.150 C 
ENDBRANCH   5   6
ENDBRANCH   1   5
BRANCH   2  22
ATOM     22  C   UNL     1     -16.759 -42.660  25.758  1.00  0.00     0.047 A 
ATOM     23  C   UNL     1     -16.116 -42.909  26.978  1.00  0.00     0.026 A 
ATOM     24  C   UNL     1     -16.125 -43.056  24.558  1.00  0.00    -0.025 A 
ATOM     25  C   UNL     1     -14.873 -43.545  27.020  1.00  0.00     0.002 A 
ATOM     26  C   UNL     1     -14.875 -43.704  24.623  1.00  0.00     0.006 A 
ATOM     27  C   UNL     1     -14.253 -43.944  25.845  1.00  0.00     0.000 A 
BRANCH  24  28
ATOM     28  C   UNL     1     -16.725 -42.844  23.184  1.00  0.00     0.034 C 
ATOM     29  C   UNL     1     -16.321 -41.507  22.581  1.00  0.00     0.009 C 
ENDBRANCH  24  28
ENDBRANCH   2  22
TORSDOF 4
ENDMDL
MODEL 7
REMARK VINA RESULT:    -9.648      4.539     10.927
REMARK INTER + INTRA:         -12.010
REMARK INTER:                 -11.048
REMARK INTRA:                  -0.961
REMARK UNBOUND:                -0.105
REMARK SMILES CCc1ccccc1NC(=O)Oc1ccc2c(c1)[C@]1(C)CC[N@@H+](C)[C@@H]1N2C
REMARK SMILES IDX 10 1 9 2 11 3 12 5 13 6 22 7 23 8 21 9 25 10 19 11 26 12
REMARK SMILES IDX 17 13 16 14 18 15 15 16 14 17 24 18 20 20 27 21 8 22 7 23
REMARK SMILES IDX 3 24 6 25 4 26 5 27 2 28 1 29
REMARK H PARENT 9 4 23 19
ROOT
ATOM      1  C   UNL     1     -19.304 -42.425  25.647  1.00  0.00     0.417 C 
ATOM      2  N   UNL     1     -18.025 -41.936  25.681  1.00  0.00    -0.291 N 
ATOM      3  O   UNL     1     -19.663 -43.587  25.519  1.00  0.00    -0.224 OA
ATOM      4  H   UNL     1     -17.983 -40.935  25.797  1.00  0.00     0.173 HD
ENDROOT
BRANCH   1   5
ATOM      5  O   UNL     1     -20.179 -41.346  25.782  1.00  0.00    -0.410 OA
BRANCH   5   6
ATOM      6  C   UNL     1     -20.930 -41.014  24.643  1.00  0.00     0.133 A 
ATOM      7  C   UNL     1     -20.318 -38.723  20.241  1.00  0.00     0.265 C 
ATOM      8  N   UNL     1     -21.754 -38.901  19.844  1.00  0.00    -0.317 N 
ATOM      9  C   UNL     1     -19.763 -40.133  20.301  1.00  0.00     0.081 C 
ATOM     10  C   UNL     1     -22.176 -40.281  20.218  1.00  0.00     0.296 C 
ATOM     11  C   UNL     1     -20.928 -40.967  20.823  1.00  0.00     0.072 C 
ATOM     12  N   UNL     1     -23.150 -39.969  21.258  1.00  0.00    -0.325 N 
ATOM     13  C   UNL     1     -21.204 -40.812  22.288  1.00  0.00    -0.007 A 
ATOM     14  C   UNL     1     -22.491 -40.294  22.475  1.00  0.00     0.045 A 
ATOM     15  C   UNL     1     -20.400 -41.167  23.361  1.00  0.00     0.054 A 
ATOM     16  C   UNL     1     -22.994 -40.110  23.756  1.00  0.00     0.030 A 
ATOM     17  C   UNL     1     -22.203 -40.472  24.851  1.00  0.00     0.049 A 
ATOM     18  C   UNL     1     -22.090 -38.500  18.456  1.00  0.00     0.334 C 
ATOM     19  H   UNL     1     -22.339 -38.362  20.496  1.00  0.00     0.349 HD
ATOM     20  C   UNL     1     -20.820 -42.439  20.433  1.00  0.00     0.025 C 
ATOM     21  C   UNL     1     -24.451 -40.638  21.148  1.00  0.00     0.150 C 
ENDBRANCH   5   6
ENDBRANCH   1   5
BRANCH   2  22
ATOM     22  C   UNL     1     -16.804 -42.636  25.572  1.00  0.00     0.047 A 
ATOM     23  C   UNL     1     -16.052 -42.995  26.699  1.00  0.00     0.026 A 
ATOM     24  C   UNL     1     -16.324 -42.989  24.290  1.00  0.00    -0.025 A 
ATOM     25  C   UNL     1     -14.852 -43.699  26.570  1.00  0.00     0.002 A 
ATOM     26  C   UNL     1     -15.116 -43.706  24.182  1.00  0.00     0.006 A 
ATOM     27  C   UNL     1     -14.384 -44.056  25.313  1.00  0.00     0.000 A 
BRANCH  24  28
ATOM     28  C   UNL     1     -17.051 -42.659  23.004  1.00  0.00     0.034 C 
ATOM     29  C   UNL     1     -16.591 -41.338  22.406  1.00  0.00     0.009 C 
ENDBRANCH  24  28
ENDBRANCH   2  22
TORSDOF 4
ENDMDL
MODEL 8
REMARK VINA RESULT:    -9.615      4.794     11.762
REMARK INTER + INTRA:         -11.968
REMARK INTER:                 -11.310
REMARK INTRA:                  -0.658
REMARK UNBOUND:                -0.105
REMARK SMILES CCc1ccccc1NC(=O)Oc1ccc2c(c1)[C@]1(C)CC[N@@H+](C)[C@@H]1N2C
REMARK SMILES IDX 10 1 9 2 11 3 12 5 13 6 22 7 23 8 21 9 25 10 19 11 26 12
REMARK SMILES IDX 17 13 16 14 18 15 15 16 14 17 24 18 20 20 27 21 8 22 7 23
REMARK SMILES IDX 3 24 6 25 4 26 5 27 2 28 1 29
REMARK H PARENT 9 4 23 19
ROOT
ATOM      1  C   UNL     1     -18.239 -42.019  22.689  1.00  0.00     0.417 C 
ATOM      2  N   UNL     1     -17.834 -42.976  23.582  1.00  0.00    -0.291 N 
ATOM      3  O   UNL     1     -17.705 -40.948  22.438  1.00  0.00    -0.224 OA
ATOM      4  H   UNL     1     -18.443 -43.779  23.610  1.00  0.00     0.173 HD
ENDROOT
BRANCH   1   5
ATOM      5  O   UNL     1     -19.414 -42.468  22.084  1.00  0.00    -0.410 OA
BRANCH   5   6
ATOM      6  C   UNL     1     -20.460 -41.536  21.999  1.00  0.00     0.133 A 
ATOM      7  C   UNL     1     -21.648 -37.401  19.452  1.00  0.00     0.265 C 
ATOM      8  N   UNL     1     -22.948 -37.215  20.178  1.00  0.00    -0.317 N 
ATOM      9  C   UNL     1     -21.827 -38.692  18.678  1.00  0.00     0.081 C 
ATOM     10  C   UNL     1     -23.605 -38.547  20.311  1.00  0.00     0.296 C 
ATOM     11  C   UNL     1     -22.679 -39.559  19.597  1.00  0.00     0.072 C 
ATOM     12  N   UNL     1     -23.535 -38.713  21.759  1.00  0.00    -0.325 N 
ATOM     13  C   UNL     1     -21.945 -40.143  20.767  1.00  0.00    -0.007 A 
ATOM     14  C   UNL     1     -22.504 -39.671  21.960  1.00  0.00     0.045 A 
ATOM     15  C   UNL     1     -20.911 -41.068  20.765  1.00  0.00     0.054 A 
ATOM     16  C   UNL     1     -22.023 -40.114  23.184  1.00  0.00     0.030 A 
ATOM     17  C   UNL     1     -20.988 -41.054  23.203  1.00  0.00     0.049 A 
ATOM     18  C   UNL     1     -23.825 -36.136  19.659  1.00  0.00     0.334 C 
ATOM     19  H   UNL     1     -22.742 -37.027  21.168  1.00  0.00     0.349 HD
ATOM     20  C   UNL     1     -23.456 -40.634  18.841  1.00  0.00     0.025 C 
ATOM     21  C   UNL     1     -24.782 -39.107  22.425  1.00  0.00     0.150 C 
ENDBRANCH   5   6
ENDBRANCH   1   5
BRANCH   2  22
ATOM     22  C   UNL     1     -16.710 -42.973  24.436  1.00  0.00     0.047 A 
ATOM     23  C   UNL     1     -15.421 -43.264  23.969  1.00  0.00     0.026 A 
ATOM     24  C   UNL     1     -16.886 -42.664  25.805  1.00  0.00    -0.025 A 
ATOM     25  C   UNL     1     -14.321 -43.244  24.829  1.00  0.00     0.002 A 
ATOM     26  C   UNL     1     -15.763 -42.641  26.654  1.00  0.00     0.006 A 
ATOM     27  C   UNL     1     -14.490 -42.931  26.171  1.00  0.00     0.000 A 
BRANCH  24  28
ATOM     28  C   UNL     1     -18.228 -42.329  26.421  1.00  0.00     0.034 C 
ATOM     29  C   UNL     1     -18.197 -42.402  27.941  1.00  0.00     0.009 C 
ENDBRANCH  24  28
ENDBRANCH   2  22
TORSDOF 4
ENDMDL
MODEL 9
REMARK VINA RESULT:    -9.229      4.495      9.449
REMARK INTER + INTRA:         -11.493
REMARK INTER:                 -10.723
REMARK INTRA:                  -0.770
REMARK UNBOUND:                -0.105
REMARK SMILES CCc1ccccc1NC(=O)Oc1ccc2c(c1)[C@]1(C)CC[N@@H+](C)[C@@H]1N2C
REMARK SMILES IDX 10 1 9 2 11 3 12 5 13 6 22 7 23 8 21 9 25 10 19 11 26 12
REMARK SMILES IDX 17 13 16 14 18 15 15 16 14 17 24 18 20 20 27 21 8 22 7 23
REMARK SMILES IDX 3 24 6 25 4 26 5 27 2 28 1 29
REMARK H PARENT 9 4 23 19
ROOT
ATOM      1  C   UNL     1     -17.923 -42.039  22.942  1.00  0.00     0.417 C 
ATOM      2  N   UNL     1     -17.580 -42.907  23.945  1.00  0.00    -0.291 N 
ATOM      3  O   UNL     1     -17.238 -41.159  22.441  1.00  0.00    -0.224 OA
ATOM      4  H   UNL     1     -18.320 -43.547  24.189  1.00  0.00     0.173 HD
ENDROOT
BRANCH   1   5
ATOM      5  O   UNL     1     -19.237 -42.318  22.564  1.00  0.00    -0.410 OA
BRANCH   5   6
ATOM      6  C   UNL     1     -20.217 -42.123  23.550  1.00  0.00     0.133 A 
ATOM      7  C   UNL     1     -24.080 -44.560  25.584  1.00  0.00     0.265 C 
ATOM      8  N   UNL     1     -24.435 -43.424  26.498  1.00  0.00    -0.317 N 
ATOM      9  C   UNL     1     -22.719 -45.022  26.064  1.00  0.00     0.081 C 
ATOM     10  C   UNL     1     -23.174 -42.869  27.067  1.00  0.00     0.296 C 
ATOM     11  C   UNL     1     -22.025 -43.738  26.503  1.00  0.00     0.072 C 
ATOM     12  N   UNL     1     -23.180 -41.550  26.444  1.00  0.00    -0.325 N 
ATOM     13  C   UNL     1     -21.542 -42.870  25.379  1.00  0.00    -0.007 A 
ATOM     14  C   UNL     1     -22.190 -41.631  25.427  1.00  0.00     0.045 A 
ATOM     15  C   UNL     1     -20.560 -43.142  24.438  1.00  0.00     0.054 A 
ATOM     16  C   UNL     1     -21.868 -40.636  24.514  1.00  0.00     0.030 A 
ATOM     17  C   UNL     1     -20.874 -40.886  23.564  1.00  0.00     0.049 A 
ATOM     18  C   UNL     1     -25.497 -43.710  27.494  1.00  0.00     0.334 C 
ATOM     19  H   UNL     1     -24.728 -42.623  25.922  1.00  0.00     0.349 HD
ATOM     20  C   UNL     1     -20.919 -43.985  27.526  1.00  0.00     0.025 C 
ATOM     21  C   UNL     1     -22.951 -40.411  27.339  1.00  0.00     0.150 C 
ENDBRANCH   5   6
ENDBRANCH   1   5
BRANCH   2  22
ATOM     22  C   UNL     1     -16.364 -43.007  24.655  1.00  0.00     0.047 A 
ATOM     23  C   UNL     1     -15.157 -43.324  24.017  1.00  0.00     0.026 A 
ATOM     24  C   UNL     1     -16.359 -42.777  26.050  1.00  0.00    -0.025 A 
ATOM     25  C   UNL     1     -13.962 -43.406  24.736  1.00  0.00     0.002 A 
ATOM     26  C   UNL     1     -15.142 -42.857  26.755  1.00  0.00     0.006 A 
ATOM     27  C   UNL     1     -13.953 -43.172  26.103  1.00  0.00     0.000 A 
BRANCH  24  28
ATOM     28  C   UNL     1     -17.599 -42.423  26.844  1.00  0.00     0.034 C 
ATOM     29  C   UNL     1     -17.346 -42.448  28.344  1.00  0.00     0.009 C 
ENDBRANCH  24  28
ENDBRANCH   2  22
TORSDOF 4
ENDMDL
