MODEL 1
REMARK VINA RESULT:   -12.213      0.000      0.000
REMARK INTER + INTRA:         -17.743
REMARK INTER:                 -17.210
REMARK INTRA:                  -0.532
REMARK UNBOUND:                -0.532
REMARK SMILES C=C(O)c1c[n+](Cc2cccc(Cl)c2)ccc1C[C@H]1Cc2cc(OC)c(O)cc2C1=O
REMARK SMILES IDX 4 1 5 2 6 3 15 4 16 5 17 6 2 7 1 8 3 9 18 11 19 12 20 13
REMARK SMILES IDX 30 14 21 15 29 16 22 17 28 18 23 19 26 20 31 21 24 22 25 23
REMARK SMILES IDX 27 24 7 26 8 27 9 28 14 29 10 30 12 31 11 32 13 33
REMARK H PARENT 3 10 27 25
ROOT
ATOM      1  C   UNL     1     -11.250 -43.654  28.242  1.00  0.00     0.083 A 
ATOM      2  C   UNL     1     -10.646 -44.446  29.227  1.00  0.00     0.320 A 
ATOM      3  N   UNL     1     -11.241 -45.566  29.694  1.00  0.00    -0.200 N 
ATOM      4  C   UNL     1     -12.437 -45.962  29.206  1.00  0.00     0.308 A 
ATOM      5  C   UNL     1     -13.075 -45.226  28.213  1.00  0.00     0.075 A 
ATOM      6  C   UNL     1     -12.486 -44.058  27.710  1.00  0.00    -0.024 A 
ENDROOT
BRANCH   1   7
ATOM      7  C   UNL     1     -10.507 -42.461  27.817  1.00  0.00     0.121 C 
ATOM      8  C   UNL     1      -9.345 -42.509  27.156  1.00  0.00     0.059 C 
BRANCH   7   9
ATOM      9  O   UNL     1     -11.143 -41.277  28.107  1.00  0.00    -0.508 OA
ATOM     10  H   UNL     1     -10.914 -40.626  27.417  1.00  0.00     0.293 HD
ENDBRANCH   7   9
ENDBRANCH   1   7
BRANCH   6  11
ATOM     11  C   UNL     1     -13.202 -43.299  26.608  1.00  0.00     0.049 C 
BRANCH  11  12
ATOM     12  C   UNL     1     -14.571 -43.880  26.245  1.00  0.00     0.070 C 
ATOM     13  C   UNL     1     -15.761 -43.138  26.899  1.00  0.00     0.048 C 
ATOM     14  C   UNL     1     -14.813 -43.749  24.755  1.00  0.00     0.167 C 
ATOM     15  C   UNL     1     -16.665 -42.803  25.754  1.00  0.00    -0.032 A 
ATOM     16  C   UNL     1     -16.113 -43.137  24.524  1.00  0.00     0.025 A 
ATOM     17  C   UNL     1     -17.916 -42.200  25.813  1.00  0.00     0.055 A 
ATOM     18  C   UNL     1     -16.746 -42.897  23.321  1.00  0.00     0.062 A 
ATOM     19  C   UNL     1     -18.598 -41.943  24.615  1.00  0.00     0.160 A 
ATOM     20  C   UNL     1     -18.001 -42.296  23.381  1.00  0.00     0.158 A 
ATOM     21  O   UNL     1     -14.059 -44.107  23.869  1.00  0.00    -0.294 OA
BRANCH  19  22
ATOM     22  O   UNL     1     -19.833 -41.355  24.531  1.00  0.00    -0.493 OA
ATOM     23  C   UNL     1     -20.612 -41.275  25.716  1.00  0.00     0.278 C 
ENDBRANCH  19  22
BRANCH  20  24
ATOM     24  O   UNL     1     -18.681 -42.032  22.220  1.00  0.00    -0.504 OA
ATOM     25  H   UNL     1     -19.444 -41.462  22.407  1.00  0.00     0.293 HD
ENDBRANCH  20  24
ENDBRANCH  11  12
ENDBRANCH   6  11
BRANCH   3  26
ATOM     26  C   UNL     1     -10.569 -46.375  30.741  1.00  0.00     0.393 C 
BRANCH  26  27
ATOM     27  C   UNL     1      -9.427 -45.616  31.367  1.00  0.00     0.018 A 
ATOM     28  C   UNL     1      -8.099 -46.020  31.151  1.00  0.00     0.010 A 
ATOM     29  C   UNL     1      -9.666 -44.487  32.167  1.00  0.00     0.030 A 
ATOM     30  C   UNL     1      -7.040 -45.320  31.734  1.00  0.00     0.002 A 
ATOM     31  C   UNL     1      -8.601 -43.794  32.748  1.00  0.00     0.041 A 
ATOM     32  C   UNL     1      -7.290 -44.209  32.535  1.00  0.00     0.020 A 
ATOM     33  Cl  UNL     1      -8.921 -42.423  33.734  1.00  0.00    -0.084 Cl
ENDBRANCH  26  27
ENDBRANCH   3  26
TORSDOF 8
ENDMDL
MODEL 2
REMARK VINA RESULT:   -12.184      2.044      3.274
REMARK INTER + INTRA:         -17.702
REMARK INTER:                 -17.217
REMARK INTRA:                  -0.484
REMARK UNBOUND:                -0.532
REMARK SMILES C=C(O)c1c[n+](Cc2cccc(Cl)c2)ccc1C[C@H]1Cc2cc(OC)c(O)cc2C1=O
REMARK SMILES IDX 4 1 5 2 6 3 15 4 16 5 17 6 2 7 1 8 3 9 18 11 19 12 20 13
REMARK SMILES IDX 30 14 21 15 29 16 22 17 28 18 23 19 26 20 31 21 24 22 25 23
REMARK SMILES IDX 27 24 7 26 8 27 9 28 14 29 10 30 12 31 11 32 13 33
REMARK H PARENT 3 10 27 25
ROOT
ATOM      1  C   UNL     1     -12.207 -46.031  30.421  1.00  0.00     0.083 A 
ATOM      2  C   UNL     1     -10.957 -46.177  31.035  1.00  0.00     0.320 A 
ATOM      3  N   UNL     1      -9.834 -46.375  30.311  1.00  0.00    -0.200 N 
ATOM      4  C   UNL     1      -9.888 -46.419  28.961  1.00  0.00     0.308 A 
ATOM      5  C   UNL     1     -11.098 -46.261  28.295  1.00  0.00     0.075 A 
ATOM      6  C   UNL     1     -12.281 -46.058  29.018  1.00  0.00    -0.024 A 
ENDROOT
BRANCH   1   7
ATOM      7  C   UNL     1     -13.354 -45.824  31.315  1.00  0.00     0.121 C 
ATOM      8  C   UNL     1     -13.625 -44.660  31.914  1.00  0.00     0.059 C 
BRANCH   7   9
ATOM      9  O   UNL     1     -14.168 -46.925  31.439  1.00  0.00    -0.508 OA
ATOM     10  H   UNL     1     -15.040 -46.629  31.764  1.00  0.00     0.293 HD
ENDBRANCH   7   9
ENDBRANCH   1   7
BRANCH   6  11
ATOM     11  C   UNL     1     -13.577 -45.863  28.253  1.00  0.00     0.049 C 
BRANCH  11  12
ATOM     12  C   UNL     1     -13.710 -44.483  27.603  1.00  0.00     0.070 C 
ATOM     13  C   UNL     1     -13.701 -44.516  26.056  1.00  0.00     0.048 C 
ATOM     14  C   UNL     1     -15.047 -43.866  27.962  1.00  0.00     0.167 C 
ATOM     15  C   UNL     1     -14.933 -43.764  25.660  1.00  0.00    -0.032 A 
ATOM     16  C   UNL     1     -15.714 -43.408  26.753  1.00  0.00     0.025 A 
ATOM     17  C   UNL     1     -15.349 -43.438  24.375  1.00  0.00     0.055 A 
ATOM     18  C   UNL     1     -16.913 -42.733  26.638  1.00  0.00     0.062 A 
ATOM     19  C   UNL     1     -16.559 -42.748  24.212  1.00  0.00     0.160 A 
ATOM     20  C   UNL     1     -17.327 -42.405  25.350  1.00  0.00     0.158 A 
ATOM     21  O   UNL     1     -15.506 -43.747  29.084  1.00  0.00    -0.294 OA
BRANCH  19  22
ATOM     22  O   UNL     1     -17.083 -42.368  23.004  1.00  0.00    -0.493 OA
ATOM     23  C   UNL     1     -16.465 -41.287  22.322  1.00  0.00     0.278 C 
ENDBRANCH  19  22
BRANCH  20  24
ATOM     24  O   UNL     1     -18.509 -41.735  25.170  1.00  0.00    -0.504 OA
ATOM     25  H   UNL     1     -18.891 -41.964  24.307  1.00  0.00     0.293 HD
ENDBRANCH  20  24
ENDBRANCH  11  12
ENDBRANCH   6  11
BRANCH   3  26
ATOM     26  C   UNL     1      -8.529 -46.529  31.000  1.00  0.00     0.393 C 
BRANCH  26  27
ATOM     27  C   UNL     1      -8.198 -45.305  31.817  1.00  0.00     0.018 A 
ATOM     28  C   UNL     1      -6.868 -45.023  32.170  1.00  0.00     0.010 A 
ATOM     29  C   UNL     1      -9.208 -44.422  32.232  1.00  0.00     0.030 A 
ATOM     30  C   UNL     1      -6.560 -43.893  32.931  1.00  0.00     0.002 A 
ATOM     31  C   UNL     1      -8.891 -43.295  32.995  1.00  0.00     0.041 A 
ATOM     32  C   UNL     1      -7.572 -43.030  33.347  1.00  0.00     0.020 A 
ATOM     33  Cl  UNL     1     -10.147 -42.237  33.501  1.00  0.00    -0.084 Cl
ENDBRANCH  26  27
ENDBRANCH   3  26
TORSDOF 8
ENDMDL
MODEL 3
REMARK VINA RESULT:   -12.104      4.067      8.497
REMARK INTER + INTRA:         -17.589
REMARK INTER:                 -17.624
REMARK INTRA:                   0.035
REMARK UNBOUND:                -0.532
REMARK SMILES C=C(O)c1c[n+](Cc2cccc(Cl)c2)ccc1C[C@H]1Cc2cc(OC)c(O)cc2C1=O
REMARK SMILES IDX 4 1 5 2 6 3 15 4 16 5 17 6 2 7 1 8 3 9 18 11 19 12 20 13
REMARK SMILES IDX 30 14 21 15 29 16 22 17 28 18 23 19 26 20 31 21 24 22 25 23
REMARK SMILES IDX 27 24 7 26 8 27 9 28 14 29 10 30 12 31 11 32 13 33
REMARK H PARENT 3 10 27 25
ROOT
ATOM      1  C   UNL     1     -11.710 -43.935  27.898  1.00  0.00     0.083 A 
ATOM      2  C   UNL     1     -12.584 -43.154  27.133  1.00  0.00     0.320 A 
ATOM      3  N   UNL     1     -13.636 -43.702  26.485  1.00  0.00    -0.200 N 
ATOM      4  C   UNL     1     -13.882 -45.028  26.574  1.00  0.00     0.308 A 
ATOM      5  C   UNL     1     -13.058 -45.850  27.335  1.00  0.00     0.075 A 
ATOM      6  C   UNL     1     -11.958 -45.314  28.017  1.00  0.00    -0.024 A 
ENDROOT
BRANCH   1   7
ATOM      7  C   UNL     1     -10.603 -43.226  28.553  1.00  0.00     0.121 C 
ATOM      8  C   UNL     1      -9.314 -43.470  28.299  1.00  0.00     0.059 C 
BRANCH   7   9
ATOM      9  O   UNL     1     -11.011 -42.239  29.419  1.00  0.00    -0.508 OA
ATOM     10  H   UNL     1     -11.356 -42.662  30.228  1.00  0.00     0.293 HD
ENDBRANCH   7   9
ENDBRANCH   1   7
BRANCH   6  11
ATOM     11  C   UNL     1     -11.100 -46.241  28.858  1.00  0.00     0.049 C 
BRANCH  11  12
ATOM     12  C   UNL     1     -11.394 -46.165  30.358  1.00  0.00     0.070 C 
ATOM     13  C   UNL     1     -10.357 -45.341  31.159  1.00  0.00     0.048 C 
ATOM     14  C   UNL     1     -12.711 -45.452  30.594  1.00  0.00     0.167 C 
ATOM     15  C   UNL     1     -11.179 -44.347  31.920  1.00  0.00    -0.032 A 
ATOM     16  C   UNL     1     -12.525 -44.399  31.582  1.00  0.00     0.025 A 
ATOM     17  C   UNL     1     -10.733 -43.420  32.853  1.00  0.00     0.055 A 
ATOM     18  C   UNL     1     -13.475 -43.560  32.129  1.00  0.00     0.062 A 
ATOM     19  C   UNL     1     -11.665 -42.550  33.439  1.00  0.00     0.160 A 
ATOM     20  C   UNL     1     -13.028 -42.632  33.066  1.00  0.00     0.158 A 
ATOM     21  O   UNL     1     -13.775 -45.712  30.064  1.00  0.00    -0.294 OA
BRANCH  19  22
ATOM     22  O   UNL     1     -11.359 -41.592  34.369  1.00  0.00    -0.493 OA
ATOM     23  C   UNL     1     -10.083 -41.649  34.987  1.00  0.00     0.278 C 
ENDBRANCH  19  22
BRANCH  20  24
ATOM     24  O   UNL     1     -13.923 -41.771  33.646  1.00  0.00    -0.504 OA
ATOM     25  H   UNL     1     -13.492 -41.285  34.367  1.00  0.00     0.293 HD
ENDBRANCH  20  24
ENDBRANCH  11  12
ENDBRANCH   6  11
BRANCH   3  26
ATOM     26  C   UNL     1     -14.537 -42.839  25.682  1.00  0.00     0.393 C 
BRANCH  26  27
ATOM     27  C   UNL     1     -15.877 -42.675  26.355  1.00  0.00     0.018 A 
ATOM     28  C   UNL     1     -15.972 -42.657  27.756  1.00  0.00     0.010 A 
ATOM     29  C   UNL     1     -17.049 -42.526  25.597  1.00  0.00     0.030 A 
ATOM     30  C   UNL     1     -17.213 -42.509  28.382  1.00  0.00     0.002 A 
ATOM     31  C   UNL     1     -18.286 -42.381  26.231  1.00  0.00     0.041 A 
ATOM     32  C   UNL     1     -18.371 -42.374  27.619  1.00  0.00     0.020 A 
ATOM     33  Cl  UNL     1     -19.708 -42.214  25.281  1.00  0.00    -0.084 Cl
ENDBRANCH  26  27
ENDBRANCH   3  26
TORSDOF 8
ENDMDL
MODEL 4
REMARK VINA RESULT:   -11.147      2.096      3.746
REMARK INTER + INTRA:         -16.241
REMARK INTER:                 -15.023
REMARK INTRA:                  -1.217
REMARK UNBOUND:                -0.532
REMARK SMILES C=C(O)c1c[n+](Cc2cccc(Cl)c2)ccc1C[C@H]1Cc2cc(OC)c(O)cc2C1=O
REMARK SMILES IDX 4 1 5 2 6 3 15 4 16 5 17 6 2 7 1 8 3 9 18 11 19 12 20 13
REMARK SMILES IDX 30 14 21 15 29 16 22 17 28 18 23 19 26 20 31 21 24 22 25 23
REMARK SMILES IDX 27 24 7 26 8 27 9 28 14 29 10 30 12 31 11 32 13 33
REMARK H PARENT 3 10 27 25
ROOT
ATOM      1  C   UNL     1     -14.392 -44.046  26.125  1.00  0.00     0.083 A 
ATOM      2  C   UNL     1     -13.551 -45.050  26.621  1.00  0.00     0.320 A 
ATOM      3  N   UNL     1     -13.490 -45.330  27.941  1.00  0.00    -0.200 N 
ATOM      4  C   UNL     1     -14.260 -44.654  28.823  1.00  0.00     0.308 A 
ATOM      5  C   UNL     1     -15.128 -43.659  28.385  1.00  0.00     0.075 A 
ATOM      6  C   UNL     1     -15.213 -43.343  27.023  1.00  0.00    -0.024 A 
ENDROOT
BRANCH   1   7
ATOM      7  C   UNL     1     -14.369 -43.833  24.672  1.00  0.00     0.121 C 
ATOM      8  C   UNL     1     -14.906 -44.683  23.791  1.00  0.00     0.059 C 
BRANCH   7   9
ATOM      9  O   UNL     1     -13.793 -42.644  24.294  1.00  0.00    -0.508 OA
ATOM     10  H   UNL     1     -13.165 -42.370  24.990  1.00  0.00     0.293 HD
ENDBRANCH   7   9
ENDBRANCH   1   7
BRANCH   6  11
ATOM     11  C   UNL     1     -16.192 -42.270  26.585  1.00  0.00     0.049 C 
BRANCH  11  12
ATOM     12  C   UNL     1     -17.612 -42.789  26.347  1.00  0.00     0.070 C 
ATOM     13  C   UNL     1     -18.655 -42.246  27.354  1.00  0.00     0.048 C 
ATOM     14  C   UNL     1     -18.115 -42.328  24.993  1.00  0.00     0.167 C 
ATOM     15  C   UNL     1     -19.744 -41.683  26.495  1.00  0.00    -0.032 A 
ATOM     16  C   UNL     1     -19.425 -41.713  25.142  1.00  0.00     0.025 A 
ATOM     17  C   UNL     1     -20.954 -41.143  26.910  1.00  0.00     0.055 A 
ATOM     18  C   UNL     1     -20.259 -41.223  24.158  1.00  0.00     0.062 A 
ATOM     19  C   UNL     1     -21.836 -40.637  25.943  1.00  0.00     0.160 A 
ATOM     20  C   UNL     1     -21.473 -40.684  24.575  1.00  0.00     0.158 A 
ATOM     21  O   UNL     1     -17.536 -42.455  23.930  1.00  0.00    -0.294 OA
BRANCH  19  22
ATOM     22  O   UNL     1     -23.057 -40.078  26.216  1.00  0.00    -0.493 OA
ATOM     23  C   UNL     1     -23.318 -39.675  27.551  1.00  0.00     0.278 C 
ENDBRANCH  19  22
BRANCH  20  24
ATOM     24  O   UNL     1     -22.345 -40.181  23.645  1.00  0.00    -0.504 OA
ATOM     25  H   UNL     1     -22.984 -40.866  23.387  1.00  0.00     0.293 HD
ENDBRANCH  20  24
ENDBRANCH  11  12
ENDBRANCH   6  11
BRANCH   3  26
ATOM     26  C   UNL     1     -12.583 -46.400  28.427  1.00  0.00     0.393 C 
BRANCH  26  27
ATOM     27  C   UNL     1     -11.514 -45.838  29.330  1.00  0.00     0.018 A 
ATOM     28  C   UNL     1     -11.386 -46.296  30.652  1.00  0.00     0.010 A 
ATOM     29  C   UNL     1     -10.623 -44.857  28.866  1.00  0.00     0.030 A 
ATOM     30  C   UNL     1     -10.399 -45.774  31.491  1.00  0.00     0.002 A 
ATOM     31  C   UNL     1      -9.641 -44.338  29.714  1.00  0.00     0.041 A 
ATOM     32  C   UNL     1      -9.528 -44.792  31.024  1.00  0.00     0.020 A 
ATOM     33  Cl  UNL     1      -8.570 -43.129  29.126  1.00  0.00    -0.084 Cl
ENDBRANCH  26  27
ENDBRANCH   3  26
TORSDOF 8
ENDMDL
MODEL 5
REMARK VINA RESULT:   -11.044      2.321      3.503
REMARK INTER + INTRA:         -16.095
REMARK INTER:                 -15.570
REMARK INTRA:                  -0.525
REMARK UNBOUND:                -0.532
REMARK SMILES C=C(O)c1c[n+](Cc2cccc(Cl)c2)ccc1C[C@H]1Cc2cc(OC)c(O)cc2C1=O
REMARK SMILES IDX 4 1 5 2 6 3 15 4 16 5 17 6 2 7 1 8 3 9 18 11 19 12 20 13
REMARK SMILES IDX 30 14 21 15 29 16 22 17 28 18 23 19 26 20 31 21 24 22 25 23
REMARK SMILES IDX 27 24 7 26 8 27 9 28 14 29 10 30 12 31 11 32 13 33
REMARK H PARENT 3 10 27 25
ROOT
ATOM      1  C   UNL     1     -15.362 -43.550  28.566  1.00  0.00     0.083 A 
ATOM      2  C   UNL     1     -14.772 -44.501  29.406  1.00  0.00     0.320 A 
ATOM      3  N   UNL     1     -13.689 -45.211  29.019  1.00  0.00    -0.200 N 
ATOM      4  C   UNL     1     -13.134 -45.005  27.804  1.00  0.00     0.308 A 
ATOM      5  C   UNL     1     -13.665 -44.059  26.934  1.00  0.00     0.075 A 
ATOM      6  C   UNL     1     -14.789 -43.309  27.305  1.00  0.00    -0.024 A 
ENDROOT
BRANCH   1   7
ATOM      7  C   UNL     1     -16.535 -42.844  29.098  1.00  0.00     0.121 C 
ATOM      8  C   UNL     1     -17.674 -42.682  28.417  1.00  0.00     0.059 C 
BRANCH   7   9
ATOM      9  O   UNL     1     -16.381 -42.410  30.393  1.00  0.00    -0.508 OA
ATOM     10  H   UNL     1     -15.615 -42.871  30.785  1.00  0.00     0.293 HD
ENDBRANCH   7   9
ENDBRANCH   1   7
BRANCH   6  11
ATOM     11  C   UNL     1     -15.322 -42.269  26.337  1.00  0.00     0.049 C 
BRANCH  11  12
ATOM     12  C   UNL     1     -16.000 -42.865  25.101  1.00  0.00     0.070 C 
ATOM     13  C   UNL     1     -17.545 -42.877  25.178  1.00  0.00     0.048 C 
ATOM     14  C   UNL     1     -15.687 -42.022  23.880  1.00  0.00     0.167 C 
ATOM     15  C   UNL     1     -17.987 -42.203  23.916  1.00  0.00    -0.032 A 
ATOM     16  C   UNL     1     -16.922 -41.698  23.182  1.00  0.00     0.025 A 
ATOM     17  C   UNL     1     -19.288 -42.029  23.462  1.00  0.00     0.055 A 
ATOM     18  C   UNL     1     -17.080 -41.009  21.995  1.00  0.00     0.062 A 
ATOM     19  C   UNL     1     -19.496 -41.340  22.258  1.00  0.00     0.160 A 
ATOM     20  C   UNL     1     -18.385 -40.837  21.540  1.00  0.00     0.158 A 
ATOM     21  O   UNL     1     -14.581 -41.673  23.512  1.00  0.00    -0.294 OA
BRANCH  19  22
ATOM     22  O   UNL     1     -20.724 -41.098  21.700  1.00  0.00    -0.493 OA
ATOM     23  C   UNL     1     -21.585 -40.184  22.361  1.00  0.00     0.278 C 
ENDBRANCH  19  22
BRANCH  20  24
ATOM     24  O   UNL     1     -18.608 -40.163  20.368  1.00  0.00    -0.504 OA
ATOM     25  H   UNL     1     -17.923 -40.392  19.719  1.00  0.00     0.293 HD
ENDBRANCH  20  24
ENDBRANCH  11  12
ENDBRANCH   6  11
BRANCH   3  26
ATOM     26  C   UNL     1     -13.096 -46.212  29.939  1.00  0.00     0.393 C 
BRANCH  26  27
ATOM     27  C   UNL     1     -11.929 -45.631  30.697  1.00  0.00     0.018 A 
ATOM     28  C   UNL     1     -12.083 -44.453  31.447  1.00  0.00     0.010 A 
ATOM     29  C   UNL     1     -10.673 -46.259  30.676  1.00  0.00     0.030 A 
ATOM     30  C   UNL     1     -11.002 -43.911  32.147  1.00  0.00     0.002 A 
ATOM     31  C   UNL     1      -9.597 -45.709  31.376  1.00  0.00     0.041 A 
ATOM     32  C   UNL     1      -9.757 -44.537  32.109  1.00  0.00     0.020 A 
ATOM     33  Cl  UNL     1      -8.067 -46.489  31.324  1.00  0.00    -0.084 Cl
ENDBRANCH  26  27
ENDBRANCH   3  26
TORSDOF 8
ENDMDL
MODEL 6
REMARK VINA RESULT:   -10.437      4.502     10.586
REMARK INTER + INTRA:         -15.241
REMARK INTER:                 -14.822
REMARK INTRA:                  -0.419
REMARK UNBOUND:                -0.532
REMARK SMILES C=C(O)c1c[n+](Cc2cccc(Cl)c2)ccc1C[C@H]1Cc2cc(OC)c(O)cc2C1=O
REMARK SMILES IDX 4 1 5 2 6 3 15 4 16 5 17 6 2 7 1 8 3 9 18 11 19 12 20 13
REMARK SMILES IDX 30 14 21 15 29 16 22 17 28 18 23 19 26 20 31 21 24 22 25 23
REMARK SMILES IDX 27 24 7 26 8 27 9 28 14 29 10 30 12 31 11 32 13 33
REMARK H PARENT 3 10 27 25
ROOT
ATOM      1  C   UNL     1     -16.598 -42.709  24.933  1.00  0.00     0.083 A 
ATOM      2  C   UNL     1     -17.904 -42.491  24.480  1.00  0.00     0.320 A 
ATOM      3  N   UNL     1     -18.922 -42.268  25.341  1.00  0.00    -0.200 N 
ATOM      4  C   UNL     1     -18.697 -42.234  26.674  1.00  0.00     0.308 A 
ATOM      5  C   UNL     1     -17.417 -42.426  27.180  1.00  0.00     0.075 A 
ATOM      6  C   UNL     1     -16.341 -42.661  26.314  1.00  0.00    -0.024 A 
ENDROOT
BRANCH   1   7
ATOM      7  C   UNL     1     -15.578 -42.941  23.901  1.00  0.00     0.121 C 
ATOM      8  C   UNL     1     -15.045 -44.140  23.643  1.00  0.00     0.059 C 
BRANCH   7   9
ATOM      9  O   UNL     1     -15.256 -41.819  23.176  1.00  0.00    -0.508 OA
ATOM     10  H   UNL     1     -15.877 -41.748  22.426  1.00  0.00     0.293 HD
ENDBRANCH   7   9
ENDBRANCH   1   7
BRANCH   6  11
ATOM     11  C   UNL     1     -14.955 -42.839  26.906  1.00  0.00     0.049 C 
BRANCH  11  12
ATOM     12  C   UNL     1     -14.641 -44.277  27.324  1.00  0.00     0.070 C 
ATOM     13  C   UNL     1     -13.272 -44.792  26.818  1.00  0.00     0.048 C 
ATOM     14  C   UNL     1     -14.547 -44.372  28.834  1.00  0.00     0.167 C 
ATOM     15  C   UNL     1     -12.586 -45.299  28.049  1.00  0.00    -0.032 A 
ATOM     16  C   UNL     1     -13.310 -45.041  29.206  1.00  0.00     0.025 A 
ATOM     17  C   UNL     1     -11.356 -45.938  28.128  1.00  0.00     0.055 A 
ATOM     18  C   UNL     1     -12.868 -45.387  30.467  1.00  0.00     0.062 A 
ATOM     19  C   UNL     1     -10.870 -46.314  29.389  1.00  0.00     0.160 A 
ATOM     20  C   UNL     1     -11.635 -46.030  30.545  1.00  0.00     0.158 A 
ATOM     21  O   UNL     1     -15.375 -43.971  29.632  1.00  0.00    -0.294 OA
BRANCH  19  22
ATOM     22  O   UNL     1      -9.675 -46.947  29.608  1.00  0.00    -0.493 OA
ATOM     23  C   UNL     1      -8.679 -46.252  30.343  1.00  0.00     0.278 C 
ENDBRANCH  19  22
BRANCH  20  24
ATOM     24  O   UNL     1     -11.142 -46.400  31.770  1.00  0.00    -0.504 OA
ATOM     25  H   UNL     1     -10.306 -45.938  31.942  1.00  0.00     0.293 HD
ENDBRANCH  20  24
ENDBRANCH  11  12
ENDBRANCH   6  11
BRANCH   3  26
ATOM     26  C   UNL     1     -20.292 -42.044  24.820  1.00  0.00     0.393 C 
BRANCH  26  27
ATOM     27  C   UNL     1     -20.260 -41.558  23.393  1.00  0.00     0.018 A 
ATOM     28  C   UNL     1     -19.842 -40.251  23.095  1.00  0.00     0.010 A 
ATOM     29  C   UNL     1     -20.636 -42.404  22.337  1.00  0.00     0.030 A 
ATOM     30  C   UNL     1     -19.816 -39.798  21.774  1.00  0.00     0.002 A 
ATOM     31  C   UNL     1     -20.609 -41.942  21.018  1.00  0.00     0.041 A 
ATOM     32  C   UNL     1     -20.203 -40.642  20.735  1.00  0.00     0.020 A 
ATOM     33  Cl  UNL     1     -21.086 -42.992  19.744  1.00  0.00    -0.084 Cl
ENDBRANCH  26  27
ENDBRANCH   3  26
TORSDOF 8
ENDMDL
MODEL 7
REMARK VINA RESULT:   -10.350      3.373      6.600
REMARK INTER + INTRA:         -15.118
REMARK INTER:                 -14.046
REMARK INTRA:                  -1.071
REMARK UNBOUND:                -0.532
REMARK SMILES C=C(O)c1c[n+](Cc2cccc(Cl)c2)ccc1C[C@H]1Cc2cc(OC)c(O)cc2C1=O
REMARK SMILES IDX 4 1 5 2 6 3 15 4 16 5 17 6 2 7 1 8 3 9 18 11 19 12 20 13
REMARK SMILES IDX 30 14 21 15 29 16 22 17 28 18 23 19 26 20 31 21 24 22 25 23
REMARK SMILES IDX 27 24 7 26 8 27 9 28 14 29 10 30 12 31 11 32 13 33
REMARK H PARENT 3 10 27 25
ROOT
ATOM      1  C   UNL     1     -16.669 -42.469  24.496  1.00  0.00     0.083 A 
ATOM      2  C   UNL     1     -15.308 -42.509  24.820  1.00  0.00     0.320 A 
ATOM      3  N   UNL     1     -14.890 -42.617  26.101  1.00  0.00    -0.200 N 
ATOM      4  C   UNL     1     -15.787 -42.708  27.108  1.00  0.00     0.308 A 
ATOM      5  C   UNL     1     -17.152 -42.694  26.845  1.00  0.00     0.075 A 
ATOM      6  C   UNL     1     -17.616 -42.580  25.528  1.00  0.00    -0.024 A 
ENDROOT
BRANCH   1   7
ATOM      7  C   UNL     1     -16.998 -42.348  23.069  1.00  0.00     0.121 C 
ATOM      8  C   UNL     1     -16.763 -41.248  22.346  1.00  0.00     0.059 C 
BRANCH   7   9
ATOM      9  O   UNL     1     -17.522 -43.494  22.521  1.00  0.00    -0.508 OA
ATOM     10  H   UNL     1     -16.783 -44.071  22.247  1.00  0.00     0.293 HD
ENDBRANCH   7   9
ENDBRANCH   1   7
BRANCH   6  11
ATOM     11  C   UNL     1     -19.114 -42.595  25.281  1.00  0.00     0.049 C 
BRANCH  11  12
ATOM     12  C   UNL     1     -19.725 -41.203  25.104  1.00  0.00     0.070 C 
ATOM     13  C   UNL     1     -20.284 -40.939  23.685  1.00  0.00     0.048 C 
ATOM     14  C   UNL     1     -20.922 -41.041  26.020  1.00  0.00     0.167 C 
ATOM     15  C   UNL     1     -21.689 -40.479  23.918  1.00  0.00    -0.032 A 
ATOM     16  C   UNL     1     -22.060 -40.555  25.255  1.00  0.00     0.025 A 
ATOM     17  C   UNL     1     -22.603 -40.038  22.969  1.00  0.00     0.055 A 
ATOM     18  C   UNL     1     -23.318 -40.213  25.711  1.00  0.00     0.062 A 
ATOM     19  C   UNL     1     -23.891 -39.675  23.388  1.00  0.00     0.160 A 
ATOM     20  C   UNL     1     -24.231 -39.769  24.759  1.00  0.00     0.158 A 
ATOM     21  O   UNL     1     -20.947 -41.261  27.217  1.00  0.00    -0.294 OA
BRANCH  19  22
ATOM     22  O   UNL     1     -24.884 -39.226  22.558  1.00  0.00    -0.493 OA
ATOM     23  C   UNL     1     -24.623 -39.204  21.163  1.00  0.00     0.278 C 
ENDBRANCH  19  22
BRANCH  20  24
ATOM     24  O   UNL     1     -25.496 -39.414  25.149  1.00  0.00    -0.504 OA
ATOM     25  H   UNL     1     -26.041 -40.210  25.267  1.00  0.00     0.293 HD
ENDBRANCH  20  24
ENDBRANCH  11  12
ENDBRANCH   6  11
BRANCH   3  26
ATOM     26  C   UNL     1     -13.438 -42.652  26.402  1.00  0.00     0.393 C 
BRANCH  26  27
ATOM     27  C   UNL     1     -13.041 -43.969  27.019  1.00  0.00     0.018 A 
ATOM     28  C   UNL     1     -13.470 -45.180  26.450  1.00  0.00     0.010 A 
ATOM     29  C   UNL     1     -12.230 -44.012  28.164  1.00  0.00     0.030 A 
ATOM     30  C   UNL     1     -13.107 -46.401  27.023  1.00  0.00     0.002 A 
ATOM     31  C   UNL     1     -11.874 -45.238  28.732  1.00  0.00     0.041 A 
ATOM     32  C   UNL     1     -12.311 -46.431  28.166  1.00  0.00     0.020 A 
ATOM     33  Cl  UNL     1     -10.891 -45.263  30.142  1.00  0.00    -0.084 Cl
ENDBRANCH  26  27
ENDBRANCH   3  26
TORSDOF 8
ENDMDL
MODEL 8
REMARK VINA RESULT:   -10.227      1.563      2.323
REMARK INTER + INTRA:         -14.945
REMARK INTER:                 -14.985
REMARK INTRA:                   0.040
REMARK UNBOUND:                -0.532
REMARK SMILES C=C(O)c1c[n+](Cc2cccc(Cl)c2)ccc1C[C@H]1Cc2cc(OC)c(O)cc2C1=O
REMARK SMILES IDX 4 1 5 2 6 3 15 4 16 5 17 6 2 7 1 8 3 9 18 11 19 12 20 13
REMARK SMILES IDX 30 14 21 15 29 16 22 17 28 18 23 19 26 20 31 21 24 22 25 23
REMARK SMILES IDX 27 24 7 26 8 27 9 28 14 29 10 30 12 31 11 32 13 33
REMARK H PARENT 3 10 27 25
ROOT
ATOM      1  C   UNL     1     -11.923 -43.648  28.547  1.00  0.00     0.083 A 
ATOM      2  C   UNL     1     -11.574 -43.785  29.895  1.00  0.00     0.320 A 
ATOM      3  N   UNL     1     -12.274 -44.587  30.728  1.00  0.00    -0.200 N 
ATOM      4  C   UNL     1     -13.329 -45.297  30.269  1.00  0.00     0.308 A 
ATOM      5  C   UNL     1     -13.710 -45.215  28.934  1.00  0.00     0.075 A 
ATOM      6  C   UNL     1     -13.006 -44.391  28.047  1.00  0.00    -0.024 A 
ENDROOT
BRANCH   1   7
ATOM      7  C   UNL     1     -11.086 -42.746  27.744  1.00  0.00     0.121 C 
ATOM      8  C   UNL     1      -9.819 -43.012  27.410  1.00  0.00     0.059 C 
BRANCH   7   9
ATOM      9  O   UNL     1     -11.742 -41.619  27.310  1.00  0.00    -0.508 OA
ATOM     10  H   UNL     1     -12.540 -41.496  27.859  1.00  0.00     0.293 HD
ENDBRANCH   7   9
ENDBRANCH   1   7
BRANCH   6  11
ATOM     11  C   UNL     1     -13.437 -44.351  26.592  1.00  0.00     0.049 C 
BRANCH  11  12
ATOM     12  C   UNL     1     -14.122 -43.043  26.186  1.00  0.00     0.070 C 
ATOM     13  C   UNL     1     -14.317 -42.886  24.659  1.00  0.00     0.048 C 
ATOM     14  C   UNL     1     -15.525 -42.992  26.756  1.00  0.00     0.167 C 
ATOM     15  C   UNL     1     -15.774 -42.583  24.499  1.00  0.00    -0.032 A 
ATOM     16  C   UNL     1     -16.470 -42.662  25.700  1.00  0.00     0.025 A 
ATOM     17  C   UNL     1     -16.451 -42.277  23.325  1.00  0.00     0.055 A 
ATOM     18  C   UNL     1     -17.831 -42.453  25.800  1.00  0.00     0.062 A 
ATOM     19  C   UNL     1     -17.834 -42.051  23.381  1.00  0.00     0.160 A 
ATOM     20  C   UNL     1     -18.507 -42.144  24.623  1.00  0.00     0.158 A 
ATOM     21  O   UNL     1     -15.836 -43.178  27.918  1.00  0.00    -0.294 OA
BRANCH  19  22
ATOM     22  O   UNL     1     -18.618 -41.743  22.301  1.00  0.00    -0.493 OA
ATOM     23  C   UNL     1     -18.416 -40.488  21.670  1.00  0.00     0.278 C 
ENDBRANCH  19  22
BRANCH  20  24
ATOM     24  O   UNL     1     -19.859 -41.924  24.658  1.00  0.00    -0.504 OA
ATOM     25  H   UNL     1     -20.059 -41.194  25.265  1.00  0.00     0.293 HD
ENDBRANCH  20  24
ENDBRANCH  11  12
ENDBRANCH   6  11
BRANCH   3  26
ATOM     26  C   UNL     1     -11.874 -44.701  32.151  1.00  0.00     0.393 C 
BRANCH  26  27
ATOM     27  C   UNL     1     -10.428 -44.318  32.343  1.00  0.00     0.018 A 
ATOM     28  C   UNL     1     -10.086 -43.176  33.085  1.00  0.00     0.010 A 
ATOM     29  C   UNL     1      -9.399 -45.099  31.794  1.00  0.00     0.030 A 
ATOM     30  C   UNL     1      -8.747 -42.817  33.259  1.00  0.00     0.002 A 
ATOM     31  C   UNL     1      -8.062 -44.732  31.971  1.00  0.00     0.041 A 
ATOM     32  C   UNL     1      -7.735 -43.593  32.700  1.00  0.00     0.020 A 
ATOM     33  Cl  UNL     1      -6.821 -45.697  31.277  1.00  0.00    -0.084 Cl
ENDBRANCH  26  27
ENDBRANCH   3  26
TORSDOF 8
ENDMDL
MODEL 9
REMARK VINA RESULT:    -9.565      5.655     11.686
REMARK INTER + INTRA:         -14.011
REMARK INTER:                 -12.950
REMARK INTRA:                  -1.061
REMARK UNBOUND:                -0.532
REMARK SMILES C=C(O)c1c[n+](Cc2cccc(Cl)c2)ccc1C[C@H]1Cc2cc(OC)c(O)cc2C1=O
REMARK SMILES IDX 4 1 5 2 6 3 15 4 16 5 17 6 2 7 1 8 3 9 18 11 19 12 20 13
REMARK SMILES IDX 30 14 21 15 29 16 22 17 28 18 23 19 26 20 31 21 24 22 25 23
REMARK SMILES IDX 27 24 7 26 8 27 9 28 14 29 10 30 12 31 11 32 13 33
REMARK H PARENT 3 10 27 25
ROOT
ATOM      1  C   UNL     1     -23.198 -42.538  27.586  1.00  0.00     0.083 A 
ATOM      2  C   UNL     1     -24.281 -41.756  28.005  1.00  0.00     0.320 A 
ATOM      3  N   UNL     1     -24.299 -40.418  27.818  1.00  0.00    -0.200 N 
ATOM      4  C   UNL     1     -23.270 -39.798  27.199  1.00  0.00     0.308 A 
ATOM      5  C   UNL     1     -22.176 -40.526  26.744  1.00  0.00     0.075 A 
ATOM      6  C   UNL     1     -22.125 -41.914  26.926  1.00  0.00    -0.024 A 
ENDROOT
BRANCH   1   7
ATOM      7  C   UNL     1     -23.293 -43.980  27.847  1.00  0.00     0.121 C 
ATOM      8  C   UNL     1     -23.968 -44.831  27.067  1.00  0.00     0.059 C 
BRANCH   7   9
ATOM      9  O   UNL     1     -22.573 -44.395  28.942  1.00  0.00    -0.508 OA
ATOM     10  H   UNL     1     -21.905 -45.042  28.645  1.00  0.00     0.293 HD
ENDBRANCH   7   9
ENDBRANCH   1   7
BRANCH   6  11
ATOM     11  C   UNL     1     -20.926 -42.674  26.390  1.00  0.00     0.049 C 
BRANCH  11  12
ATOM     12  C   UNL     1     -19.639 -41.847  26.346  1.00  0.00     0.070 C 
ATOM     13  C   UNL     1     -18.634 -42.191  27.472  1.00  0.00     0.048 C 
ATOM     14  C   UNL     1     -18.883 -42.129  25.063  1.00  0.00     0.167 C 
ATOM     15  C   UNL     1     -17.350 -42.465  26.754  1.00  0.00    -0.032 A 
ATOM     16  C   UNL     1     -17.498 -42.447  25.372  1.00  0.00     0.025 A 
ATOM     17  C   UNL     1     -16.110 -42.745  27.315  1.00  0.00     0.055 A 
ATOM     18  C   UNL     1     -16.460 -42.701  24.497  1.00  0.00     0.062 A 
ATOM     19  C   UNL     1     -15.026 -43.003  26.463  1.00  0.00     0.160 A 
ATOM     20  C   UNL     1     -15.218 -42.978  25.061  1.00  0.00     0.158 A 
ATOM     21  O   UNL     1     -19.340 -42.086  23.935  1.00  0.00    -0.294 OA
BRANCH  19  22
ATOM     22  O   UNL     1     -13.755 -43.292  26.885  1.00  0.00    -0.493 OA
ATOM     23  C   UNL     1     -13.527 -44.555  27.490  1.00  0.00     0.278 C 
ENDBRANCH  19  22
BRANCH  20  24
ATOM     24  O   UNL     1     -14.148 -43.238  24.245  1.00  0.00    -0.504 OA
ATOM     25  H   UNL     1     -14.444 -43.302  23.323  1.00  0.00     0.293 HD
ENDBRANCH  20  24
ENDBRANCH  11  12
ENDBRANCH   6  11
BRANCH   3  26
ATOM     26  C   UNL     1     -25.465 -39.625  28.280  1.00  0.00     0.393 C 
BRANCH  26  27
ATOM     27  C   UNL     1     -25.141 -38.865  29.542  1.00  0.00     0.018 A 
ATOM     28  C   UNL     1     -24.669 -37.544  29.477  1.00  0.00     0.010 A 
ATOM     29  C   UNL     1     -25.312 -39.459  30.803  1.00  0.00     0.030 A 
ATOM     30  C   UNL     1     -24.364 -36.841  30.645  1.00  0.00     0.002 A 
ATOM     31  C   UNL     1     -25.002 -38.749  31.966  1.00  0.00     0.041 A 
ATOM     32  C   UNL     1     -24.527 -37.444  31.890  1.00  0.00     0.020 A 
ATOM     33  Cl  UNL     1     -25.209 -39.502  33.497  1.00  0.00    -0.084 Cl
ENDBRANCH  26  27
ENDBRANCH   3  26
TORSDOF 8
ENDMDL
