MODEL 1
REMARK VINA RESULT:   -11.675      0.000      0.000
REMARK INTER + INTRA:         -16.693
REMARK INTER:                 -16.794
REMARK INTRA:                   0.100
REMARK UNBOUND:                 0.100
REMARK SMILES C=C(O)c1c[n+](Cc2cccc(Cl)c2)ccc1CC1=C(O)c2cc(O)c(OC)cc2C1
REMARK SMILES IDX 4 1 5 2 6 3 15 4 16 5 17 6 2 7 1 8 3 9 18 11 19 12 20 13
REMARK SMILES IDX 31 14 22 15 30 16 23 17 29 18 24 19 26 20 21 21 25 23 27 25
REMARK SMILES IDX 28 26 7 27 8 28 9 29 14 30 10 31 12 32 11 33 13 34
REMARK H PARENT 3 10 21 22 25 24
ROOT
ATOM      1  C   UNL     1     -11.553 -43.532  28.348  1.00  0.00     0.083 A 
ATOM      2  C   UNL     1     -11.159 -44.264  29.471  1.00  0.00     0.320 A 
ATOM      3  N   UNL     1     -11.880 -45.320  29.916  1.00  0.00    -0.200 N 
ATOM      4  C   UNL     1     -13.046 -45.657  29.324  1.00  0.00     0.308 A 
ATOM      5  C   UNL     1     -13.485 -44.976  28.198  1.00  0.00     0.075 A 
ATOM      6  C   UNL     1     -12.720 -43.927  27.669  1.00  0.00    -0.021 A 
ENDROOT
BRANCH   1   7
ATOM      7  C   UNL     1     -10.652 -42.456  27.913  1.00  0.00     0.121 C 
ATOM      8  C   UNL     1      -9.466 -42.673  27.333  1.00  0.00     0.059 C 
BRANCH   7   9
ATOM      9  O   UNL     1     -11.168 -41.191  28.077  1.00  0.00    -0.508 OA
ATOM     10  H   UNL     1     -11.885 -41.060  27.429  1.00  0.00     0.293 HD
ENDBRANCH   7   9
ENDBRANCH   1   7
BRANCH   6  11
ATOM     11  C   UNL     1     -13.101 -43.389  26.306  1.00  0.00     0.072 C 
BRANCH  11  12
ATOM     12  C   UNL     1     -14.570 -43.171  26.094  1.00  0.00    -0.019 C 
ATOM     13  C   UNL     1     -15.324 -43.168  24.977  1.00  0.00     0.123 C 
ATOM     14  C   UNL     1     -15.423 -42.880  27.318  1.00  0.00     0.071 C 
ATOM     15  C   UNL     1     -16.713 -42.882  25.323  1.00  0.00     0.024 A 
ATOM     16  C   UNL     1     -16.779 -42.706  26.708  1.00  0.00    -0.029 A 
ATOM     17  C   UNL     1     -17.858 -42.774  24.550  1.00  0.00     0.062 A 
ATOM     18  C   UNL     1     -17.975 -42.417  27.345  1.00  0.00     0.055 A 
ATOM     19  C   UNL     1     -19.076 -42.482  25.185  1.00  0.00     0.158 A 
ATOM     20  C   UNL     1     -19.145 -42.300  26.581  1.00  0.00     0.160 A 
BRANCH  13  21
ATOM     21  O   UNL     1     -14.921 -43.388  23.695  1.00  0.00    -0.507 OA
ATOM     22  H   UNL     1     -14.005 -43.068  23.617  1.00  0.00     0.293 HD
ENDBRANCH  13  21
BRANCH  19  23
ATOM     23  O   UNL     1     -20.197 -42.376  24.407  1.00  0.00    -0.504 OA
ATOM     24  H   UNL     1     -20.844 -41.789  24.831  1.00  0.00     0.293 HD
ENDBRANCH  19  23
BRANCH  20  25
ATOM     25  O   UNL     1     -20.241 -42.010  27.350  1.00  0.00    -0.493 OA
ATOM     26  C   UNL     1     -21.094 -40.951  26.944  1.00  0.00     0.278 C 
ENDBRANCH  20  25
ENDBRANCH  11  12
ENDBRANCH   6  11
BRANCH   3  27
ATOM     27  C   UNL     1     -11.339 -46.152  31.016  1.00  0.00     0.393 C 
BRANCH  27  28
ATOM     28  C   UNL     1      -9.926 -45.755  31.381  1.00  0.00     0.018 A 
ATOM     29  C   UNL     1      -8.851 -46.559  30.972  1.00  0.00     0.010 A 
ATOM     30  C   UNL     1      -9.645 -44.576  32.094  1.00  0.00     0.030 A 
ATOM     31  C   UNL     1      -7.535 -46.211  31.296  1.00  0.00     0.002 A 
ATOM     32  C   UNL     1      -8.331 -44.242  32.427  1.00  0.00     0.041 A 
ATOM     33  C   UNL     1      -7.276 -45.055  32.030  1.00  0.00     0.020 A 
ATOM     34  Cl  UNL     1      -8.032 -42.820  33.347  1.00  0.00    -0.084 Cl
ENDBRANCH  27  28
ENDBRANCH   3  27
TORSDOF 9
ENDMDL
MODEL 2
REMARK VINA RESULT:   -11.485      3.973      9.498
REMARK INTER + INTRA:         -16.420
REMARK INTER:                 -16.406
REMARK INTRA:                  -0.014
REMARK UNBOUND:                 0.100
REMARK SMILES C=C(O)c1c[n+](Cc2cccc(Cl)c2)ccc1CC1=C(O)c2cc(O)c(OC)cc2C1
REMARK SMILES IDX 4 1 5 2 6 3 15 4 16 5 17 6 2 7 1 8 3 9 18 11 19 12 20 13
REMARK SMILES IDX 31 14 22 15 30 16 23 17 29 18 24 19 26 20 21 21 25 23 27 25
REMARK SMILES IDX 28 26 7 27 8 28 9 29 14 30 10 31 12 32 11 33 13 34
REMARK H PARENT 3 10 21 22 25 24
ROOT
ATOM      1  C   UNL     1     -13.252 -45.509  27.713  1.00  0.00     0.083 A 
ATOM      2  C   UNL     1     -13.638 -44.666  26.668  1.00  0.00     0.320 A 
ATOM      3  N   UNL     1     -14.529 -43.665  26.859  1.00  0.00    -0.200 N 
ATOM      4  C   UNL     1     -15.128 -43.494  28.056  1.00  0.00     0.308 A 
ATOM      5  C   UNL     1     -14.779 -44.291  29.136  1.00  0.00     0.075 A 
ATOM      6  C   UNL     1     -13.803 -45.286  28.988  1.00  0.00    -0.021 A 
ENDROOT
BRANCH   1   7
ATOM      7  C   UNL     1     -12.221 -46.511  27.407  1.00  0.00     0.121 C 
ATOM      8  C   UNL     1     -11.024 -46.545  28.003  1.00  0.00     0.059 C 
BRANCH   7   9
ATOM      9  O   UNL     1     -12.620 -47.471  26.506  1.00  0.00    -0.508 OA
ATOM     10  H   UNL     1     -12.025 -48.239  26.586  1.00  0.00     0.293 HD
ENDBRANCH   7   9
ENDBRANCH   1   7
BRANCH   6  11
ATOM     11  C   UNL     1     -13.273 -45.952  30.241  1.00  0.00     0.072 C 
BRANCH  11  12
ATOM     12  C   UNL     1     -12.367 -45.100  31.081  1.00  0.00    -0.019 C 
ATOM     13  C   UNL     1     -12.610 -44.023  31.852  1.00  0.00     0.123 C 
ATOM     14  C   UNL     1     -10.888 -45.451  31.099  1.00  0.00     0.071 C 
ATOM     15  C   UNL     1     -11.362 -43.553  32.447  1.00  0.00     0.024 A 
ATOM     16  C   UNL     1     -10.337 -44.391  32.003  1.00  0.00    -0.029 A 
ATOM     17  C   UNL     1     -11.083 -42.500  33.304  1.00  0.00     0.062 A 
ATOM     18  C   UNL     1      -9.022 -44.198  32.396  1.00  0.00     0.055 A 
ATOM     19  C   UNL     1      -9.753 -42.296  33.710  1.00  0.00     0.158 A 
ATOM     20  C   UNL     1      -8.716 -43.137  33.260  1.00  0.00     0.160 A 
BRANCH  13  21
ATOM     21  O   UNL     1     -13.806 -43.413  32.085  1.00  0.00    -0.507 OA
ATOM     22  H   UNL     1     -13.705 -42.866  32.884  1.00  0.00     0.293 HD
ENDBRANCH  13  21
BRANCH  19  23
ATOM     23  O   UNL     1      -9.493 -41.250  34.554  1.00  0.00    -0.504 OA
ATOM     24  H   UNL     1     -10.114 -41.261  35.301  1.00  0.00     0.293 HD
ENDBRANCH  19  23
BRANCH  20  25
ATOM     25  O   UNL     1      -7.380 -43.075  33.554  1.00  0.00    -0.493 OA
ATOM     26  C   UNL     1      -6.487 -43.908  32.830  1.00  0.00     0.278 C 
ENDBRANCH  20  25
ENDBRANCH  11  12
ENDBRANCH   6  11
BRANCH   3  27
ATOM     27  C   UNL     1     -14.788 -42.708  25.757  1.00  0.00     0.393 C 
BRANCH  27  28
ATOM     28  C   UNL     1     -16.259 -42.625  25.416  1.00  0.00     0.018 A 
ATOM     29  C   UNL     1     -16.682 -42.865  24.100  1.00  0.00     0.010 A 
ATOM     30  C   UNL     1     -17.233 -42.345  26.391  1.00  0.00     0.030 A 
ATOM     31  C   UNL     1     -18.038 -42.795  23.762  1.00  0.00     0.002 A 
ATOM     32  C   UNL     1     -18.584 -42.262  26.044  1.00  0.00     0.041 A 
ATOM     33  C   UNL     1     -18.988 -42.487  24.734  1.00  0.00     0.020 A 
ATOM     34  Cl  UNL     1     -19.740 -41.866  27.254  1.00  0.00    -0.084 Cl
ENDBRANCH  27  28
ENDBRANCH   3  27
TORSDOF 9
ENDMDL
MODEL 3
REMARK VINA RESULT:   -11.306      3.668      8.171
REMARK INTER + INTRA:         -16.163
REMARK INTER:                 -15.088
REMARK INTRA:                  -1.075
REMARK UNBOUND:                 0.100
REMARK SMILES C=C(O)c1c[n+](Cc2cccc(Cl)c2)ccc1CC1=C(O)c2cc(O)c(OC)cc2C1
REMARK SMILES IDX 4 1 5 2 6 3 15 4 16 5 17 6 2 7 1 8 3 9 18 11 19 12 20 13
REMARK SMILES IDX 31 14 22 15 30 16 23 17 29 18 24 19 26 20 21 21 25 23 27 25
REMARK SMILES IDX 28 26 7 27 8 28 9 29 14 30 10 31 12 32 11 33 13 34
REMARK H PARENT 3 10 21 22 25 24
ROOT
ATOM      1  C   UNL     1     -11.690 -43.629  27.537  1.00  0.00     0.083 A 
ATOM      2  C   UNL     1     -12.578 -43.119  26.587  1.00  0.00     0.320 A 
ATOM      3  N   UNL     1     -13.633 -43.843  26.143  1.00  0.00    -0.200 N 
ATOM      4  C   UNL     1     -13.818 -45.114  26.556  1.00  0.00     0.308 A 
ATOM      5  C   UNL     1     -12.977 -45.674  27.506  1.00  0.00     0.075 A 
ATOM      6  C   UNL     1     -11.922 -44.922  28.041  1.00  0.00    -0.021 A 
ENDROOT
BRANCH   1   7
ATOM      7  C   UNL     1     -10.628 -42.726  28.000  1.00  0.00     0.121 C 
ATOM      8  C   UNL     1      -9.354 -42.816  27.603  1.00  0.00     0.059 C 
BRANCH   7   9
ATOM      9  O   UNL     1     -11.069 -41.716  28.824  1.00  0.00    -0.508 OA
ATOM     10  H   UNL     1     -10.937 -41.990  29.751  1.00  0.00     0.293 HD
ENDBRANCH   7   9
ENDBRANCH   1   7
BRANCH   6  11
ATOM     11  C   UNL     1     -11.197 -45.476  29.249  1.00  0.00     0.072 C 
BRANCH  11  12
ATOM     12  C   UNL     1     -11.267 -44.624  30.482  1.00  0.00    -0.019 C 
ATOM     13  C   UNL     1     -10.312 -44.191  31.327  1.00  0.00     0.123 C 
ATOM     14  C   UNL     1     -12.638 -44.140  30.926  1.00  0.00     0.071 C 
ATOM     15  C   UNL     1     -10.920 -43.398  32.392  1.00  0.00     0.024 A 
ATOM     16  C   UNL     1     -12.298 -43.367  32.163  1.00  0.00    -0.029 A 
ATOM     17  C   UNL     1     -10.378 -42.739  33.483  1.00  0.00     0.062 A 
ATOM     18  C   UNL     1     -13.157 -42.688  33.012  1.00  0.00     0.055 A 
ATOM     19  C   UNL     1     -11.239 -42.047  34.350  1.00  0.00     0.158 A 
ATOM     20  C   UNL     1     -12.630 -42.017  34.125  1.00  0.00     0.160 A 
BRANCH  13  21
ATOM     21  O   UNL     1      -8.970 -44.418  31.262  1.00  0.00    -0.507 OA
ATOM     22  H   UNL     1      -8.843 -45.331  30.949  1.00  0.00     0.293 HD
ENDBRANCH  13  21
BRANCH  19  23
ATOM     23  O   UNL     1     -10.688 -41.404  35.425  1.00  0.00    -0.504 OA
ATOM     24  H   UNL     1      -9.761 -41.672  35.536  1.00  0.00     0.293 HD
ENDBRANCH  19  23
BRANCH  20  25
ATOM     25  O   UNL     1     -13.601 -41.397  34.867  1.00  0.00    -0.493 OA
ATOM     26  C   UNL     1     -14.890 -41.235  34.296  1.00  0.00     0.278 C 
ENDBRANCH  20  25
ENDBRANCH  11  12
ENDBRANCH   6  11
BRANCH   3  27
ATOM     27  C   UNL     1     -14.627 -43.199  25.252  1.00  0.00     0.393 C 
BRANCH  27  28
ATOM     28  C   UNL     1     -15.911 -42.874  25.983  1.00  0.00     0.018 A 
ATOM     29  C   UNL     1     -17.081 -42.619  25.251  1.00  0.00     0.010 A 
ATOM     30  C   UNL     1     -15.982 -42.851  27.387  1.00  0.00     0.030 A 
ATOM     31  C   UNL     1     -18.280 -42.317  25.906  1.00  0.00     0.002 A 
ATOM     32  C   UNL     1     -17.179 -42.536  28.034  1.00  0.00     0.041 A 
ATOM     33  C   UNL     1     -18.328 -42.270  27.298  1.00  0.00     0.020 A 
ATOM     34  Cl  UNL     1     -17.214 -42.467  29.752  1.00  0.00    -0.084 Cl
ENDBRANCH  27  28
ENDBRANCH   3  27
TORSDOF 9
ENDMDL
MODEL 4
REMARK VINA RESULT:   -11.222      4.162      9.974
REMARK INTER + INTRA:         -16.041
REMARK INTER:                 -16.742
REMARK INTRA:                   0.700
REMARK UNBOUND:                 0.100
REMARK SMILES C=C(O)c1c[n+](Cc2cccc(Cl)c2)ccc1CC1=C(O)c2cc(O)c(OC)cc2C1
REMARK SMILES IDX 4 1 5 2 6 3 15 4 16 5 17 6 2 7 1 8 3 9 18 11 19 12 20 13
REMARK SMILES IDX 31 14 22 15 30 16 23 17 29 18 24 19 26 20 21 21 25 23 27 25
REMARK SMILES IDX 28 26 7 27 8 28 9 29 14 30 10 31 12 32 11 33 13 34
REMARK H PARENT 3 10 21 22 25 24
ROOT
ATOM      1  C   UNL     1     -16.092 -43.085  26.526  1.00  0.00     0.083 A 
ATOM      2  C   UNL     1     -16.673 -42.665  25.328  1.00  0.00     0.320 A 
ATOM      3  N   UNL     1     -16.152 -43.013  24.128  1.00  0.00    -0.200 N 
ATOM      4  C   UNL     1     -15.007 -43.723  24.053  1.00  0.00     0.308 A 
ATOM      5  C   UNL     1     -14.387 -44.180  25.207  1.00  0.00     0.075 A 
ATOM      6  C   UNL     1     -14.947 -43.900  26.462  1.00  0.00    -0.021 A 
ENDROOT
BRANCH   1   7
ATOM      7  C   UNL     1     -16.788 -42.711  27.765  1.00  0.00     0.121 C 
ATOM      8  C   UNL     1     -18.058 -42.294  27.802  1.00  0.00     0.059 C 
BRANCH   7   9
ATOM      9  O   UNL     1     -16.046 -42.903  28.907  1.00  0.00    -0.508 OA
ATOM     10  H   UNL     1     -16.516 -43.536  29.481  1.00  0.00     0.293 HD
ENDBRANCH   7   9
ENDBRANCH   1   7
BRANCH   6  11
ATOM     11  C   UNL     1     -14.387 -44.629  27.666  1.00  0.00     0.072 C 
BRANCH  11  12
ATOM     12  C   UNL     1     -12.969 -44.288  28.016  1.00  0.00    -0.019 C 
ATOM     13  C   UNL     1     -12.114 -44.818  28.912  1.00  0.00     0.123 C 
ATOM     14  C   UNL     1     -12.319 -43.130  27.274  1.00  0.00     0.071 C 
ATOM     15  C   UNL     1     -10.845 -44.097  28.867  1.00  0.00     0.024 A 
ATOM     16  C   UNL     1     -10.960 -43.093  27.902  1.00  0.00    -0.029 A 
ATOM     17  C   UNL     1      -9.664 -44.254  29.574  1.00  0.00     0.062 A 
ATOM     18  C   UNL     1      -9.912 -42.229  27.627  1.00  0.00     0.055 A 
ATOM     19  C   UNL     1      -8.595 -43.385  29.303  1.00  0.00     0.158 A 
ATOM     20  C   UNL     1      -8.709 -42.368  28.333  1.00  0.00     0.160 A 
BRANCH  13  21
ATOM     21  O   UNL     1     -12.331 -45.863  29.759  1.00  0.00    -0.507 OA
ATOM     22  H   UNL     1     -12.797 -46.555  29.257  1.00  0.00     0.293 HD
ENDBRANCH  13  21
BRANCH  19  23
ATOM     23  O   UNL     1      -7.435 -43.551  30.012  1.00  0.00    -0.504 OA
ATOM     24  H   UNL     1      -6.984 -42.699  30.120  1.00  0.00     0.293 HD
ENDBRANCH  19  23
BRANCH  20  25
ATOM     25  O   UNL     1      -7.773 -41.444  27.953  1.00  0.00    -0.493 OA
ATOM     26  C   UNL     1      -7.589 -41.196  26.567  1.00  0.00     0.278 C 
ENDBRANCH  20  25
ENDBRANCH  11  12
ENDBRANCH   6  11
BRANCH   3  27
ATOM     27  C   UNL     1     -16.892 -42.668  22.891  1.00  0.00     0.393 C 
BRANCH  27  28
ATOM     28  C   UNL     1     -18.231 -42.032  23.194  1.00  0.00     0.018 A 
ATOM     29  C   UNL     1     -19.071 -42.608  24.160  1.00  0.00     0.010 A 
ATOM     30  C   UNL     1     -18.654 -40.852  22.558  1.00  0.00     0.030 A 
ATOM     31  C   UNL     1     -20.312 -42.036  24.458  1.00  0.00     0.002 A 
ATOM     32  C   UNL     1     -19.901 -40.295  22.849  1.00  0.00     0.041 A 
ATOM     33  C   UNL     1     -20.730 -40.882  23.797  1.00  0.00     0.020 A 
ATOM     34  Cl  UNL     1     -20.406 -38.879  22.012  1.00  0.00    -0.084 Cl
ENDBRANCH  27  28
ENDBRANCH   3  27
TORSDOF 9
ENDMDL
MODEL 5
REMARK VINA RESULT:   -11.181      3.945      8.827
REMARK INTER + INTRA:         -15.982
REMARK INTER:                 -15.142
REMARK INTRA:                  -0.840
REMARK UNBOUND:                 0.100
REMARK SMILES C=C(O)c1c[n+](Cc2cccc(Cl)c2)ccc1CC1=C(O)c2cc(O)c(OC)cc2C1
REMARK SMILES IDX 4 1 5 2 6 3 15 4 16 5 17 6 2 7 1 8 3 9 18 11 19 12 20 13
REMARK SMILES IDX 31 14 22 15 30 16 23 17 29 18 24 19 26 20 21 21 25 23 27 25
REMARK SMILES IDX 28 26 7 27 8 28 9 29 14 30 10 31 12 32 11 33 13 34
REMARK H PARENT 3 10 21 22 25 24
ROOT
ATOM      1  C   UNL     1     -11.856 -43.737  27.694  1.00  0.00     0.083 A 
ATOM      2  C   UNL     1     -12.602 -43.146  26.671  1.00  0.00     0.320 A 
ATOM      3  N   UNL     1     -13.708 -43.742  26.167  1.00  0.00    -0.200 N 
ATOM      4  C   UNL     1     -14.087 -44.965  26.593  1.00  0.00     0.308 A 
ATOM      5  C   UNL     1     -13.394 -45.599  27.614  1.00  0.00     0.075 A 
ATOM      6  C   UNL     1     -12.290 -44.972  28.208  1.00  0.00    -0.021 A 
ENDROOT
BRANCH   1   7
ATOM      7  C   UNL     1     -10.720 -42.963  28.214  1.00  0.00     0.121 C 
ATOM      8  C   UNL     1      -9.444 -43.232  27.914  1.00  0.00     0.059 C 
BRANCH   7   9
ATOM      9  O   UNL     1     -11.081 -41.878  28.978  1.00  0.00    -0.508 OA
ATOM     10  H   UNL     1     -11.666 -41.305  28.448  1.00  0.00     0.293 HD
ENDBRANCH   7   9
ENDBRANCH   1   7
BRANCH   6  11
ATOM     11  C   UNL     1     -11.729 -45.578  29.478  1.00  0.00     0.072 C 
BRANCH  11  12
ATOM     12  C   UNL     1     -11.732 -44.670  30.673  1.00  0.00    -0.019 C 
ATOM     13  C   UNL     1     -12.724 -43.987  31.276  1.00  0.00     0.123 C 
ATOM     14  C   UNL     1     -10.405 -44.419  31.370  1.00  0.00     0.071 C 
ATOM     15  C   UNL     1     -12.184 -43.230  32.402  1.00  0.00     0.024 A 
ATOM     16  C   UNL     1     -10.810 -43.478  32.461  1.00  0.00    -0.029 A 
ATOM     17  C   UNL     1     -12.782 -42.388  33.326  1.00  0.00     0.062 A 
ATOM     18  C   UNL     1     -10.010 -42.894  33.431  1.00  0.00     0.055 A 
ATOM     19  C   UNL     1     -11.981 -41.791  34.313  1.00  0.00     0.158 A 
ATOM     20  C   UNL     1     -10.594 -42.036  34.373  1.00  0.00     0.160 A 
BRANCH  13  21
ATOM     21  O   UNL     1     -14.044 -43.958  30.943  1.00  0.00    -0.507 OA
ATOM     22  H   UNL     1     -14.458 -43.238  31.450  1.00  0.00     0.293 HD
ENDBRANCH  13  21
BRANCH  19  23
ATOM     23  O   UNL     1     -12.587 -40.960  35.217  1.00  0.00    -0.504 OA
ATOM     24  H   UNL     1     -13.517 -41.213  35.332  1.00  0.00     0.293 HD
ENDBRANCH  19  23
BRANCH  20  25
ATOM     25  O   UNL     1      -9.678 -41.538  35.261  1.00  0.00    -0.493 OA
ATOM     26  C   UNL     1      -8.344 -42.020  35.202  1.00  0.00     0.278 C 
ENDBRANCH  20  25
ENDBRANCH  11  12
ENDBRANCH   6  11
BRANCH   3  27
ATOM     27  C   UNL     1     -14.546 -43.004  25.193  1.00  0.00     0.393 C 
BRANCH  27  28
ATOM     28  C   UNL     1     -15.939 -42.750  25.725  1.00  0.00     0.018 A 
ATOM     29  C   UNL     1     -16.148 -42.659  27.110  1.00  0.00     0.010 A 
ATOM     30  C   UNL     1     -17.040 -42.567  24.869  1.00  0.00     0.030 A 
ATOM     31  C   UNL     1     -17.427 -42.424  27.624  1.00  0.00     0.002 A 
ATOM     32  C   UNL     1     -18.317 -42.347  25.390  1.00  0.00     0.041 A 
ATOM     33  C   UNL     1     -18.513 -42.274  26.763  1.00  0.00     0.020 A 
ATOM     34  Cl  UNL     1     -19.647 -42.180  24.312  1.00  0.00    -0.084 Cl
ENDBRANCH  27  28
ENDBRANCH   3  27
TORSDOF 9
ENDMDL
MODEL 6
REMARK VINA RESULT:   -10.629      3.014      5.456
REMARK INTER + INTRA:         -15.189
REMARK INTER:                 -13.755
REMARK INTRA:                  -1.435
REMARK UNBOUND:                 0.100
REMARK SMILES C=C(O)c1c[n+](Cc2cccc(Cl)c2)ccc1CC1=C(O)c2cc(O)c(OC)cc2C1
REMARK SMILES IDX 4 1 5 2 6 3 15 4 16 5 17 6 2 7 1 8 3 9 18 11 19 12 20 13
REMARK SMILES IDX 31 14 22 15 30 16 23 17 29 18 24 19 26 20 21 21 25 23 27 25
REMARK SMILES IDX 28 26 7 27 8 28 9 29 14 30 10 31 12 32 11 33 13 34
REMARK H PARENT 3 10 21 22 25 24
ROOT
ATOM      1  C   UNL     1     -16.306 -42.809  24.921  1.00  0.00     0.083 A 
ATOM      2  C   UNL     1     -15.165 -43.562  25.205  1.00  0.00     0.320 A 
ATOM      3  N   UNL     1     -14.830 -43.889  26.476  1.00  0.00    -0.200 N 
ATOM      4  C   UNL     1     -15.557 -43.434  27.518  1.00  0.00     0.308 A 
ATOM      5  C   UNL     1     -16.708 -42.691  27.301  1.00  0.00     0.075 A 
ATOM      6  C   UNL     1     -17.121 -42.403  25.993  1.00  0.00    -0.021 A 
ENDROOT
BRANCH   1   7
ATOM      7  C   UNL     1     -16.610 -42.581  23.502  1.00  0.00     0.121 C 
ATOM      8  C   UNL     1     -16.112 -41.561  22.794  1.00  0.00     0.059 C 
BRANCH   7   9
ATOM      9  O   UNL     1     -17.393 -43.556  22.931  1.00  0.00    -0.508 OA
ATOM     10  H   UNL     1     -16.901 -44.398  22.942  1.00  0.00     0.293 HD
ENDBRANCH   7   9
ENDBRANCH   1   7
BRANCH   6  11
ATOM     11  C   UNL     1     -18.505 -41.819  25.799  1.00  0.00     0.072 C 
BRANCH  11  12
ATOM     12  C   UNL     1     -19.637 -42.789  25.968  1.00  0.00    -0.019 C 
ATOM     13  C   UNL     1     -20.341 -43.509  25.073  1.00  0.00     0.123 C 
ATOM     14  C   UNL     1     -20.143 -43.043  27.379  1.00  0.00     0.071 C 
ATOM     15  C   UNL     1     -21.360 -44.293  25.766  1.00  0.00     0.024 A 
ATOM     16  C   UNL     1     -21.251 -44.019  27.131  1.00  0.00    -0.029 A 
ATOM     17  C   UNL     1     -22.319 -45.181  25.305  1.00  0.00     0.062 A 
ATOM     18  C   UNL     1     -22.091 -44.615  28.058  1.00  0.00     0.055 A 
ATOM     19  C   UNL     1     -23.176 -45.791  26.236  1.00  0.00     0.158 A 
ATOM     20  C   UNL     1     -23.071 -45.514  27.614  1.00  0.00     0.160 A 
BRANCH  13  21
ATOM     21  O   UNL     1     -20.184 -43.548  23.720  1.00  0.00    -0.507 OA
ATOM     22  H   UNL     1     -20.185 -42.629  23.399  1.00  0.00     0.293 HD
ENDBRANCH  13  21
BRANCH  19  23
ATOM     23  O   UNL     1     -24.119 -46.663  25.764  1.00  0.00    -0.504 OA
ATOM     24  H   UNL     1     -25.007 -46.286  25.873  1.00  0.00     0.293 HD
ENDBRANCH  19  23
BRANCH  20  25
ATOM     25  O   UNL     1     -23.822 -46.016  28.643  1.00  0.00    -0.493 OA
ATOM     26  C   UNL     1     -24.727 -45.149  29.309  1.00  0.00     0.278 C 
ENDBRANCH  20  25
ENDBRANCH  11  12
ENDBRANCH   6  11
BRANCH   3  27
ATOM     27  C   UNL     1     -13.697 -44.815  26.710  1.00  0.00     0.393 C 
BRANCH  27  28
ATOM     28  C   UNL     1     -12.658 -44.213  27.629  1.00  0.00     0.018 A 
ATOM     29  C   UNL     1     -11.950 -43.070  27.225  1.00  0.00     0.010 A 
ATOM     30  C   UNL     1     -12.396 -44.745  28.904  1.00  0.00     0.030 A 
ATOM     31  C   UNL     1     -10.986 -42.495  28.059  1.00  0.00     0.002 A 
ATOM     32  C   UNL     1     -11.422 -44.175  29.727  1.00  0.00     0.041 A 
ATOM     33  C   UNL     1     -10.717 -43.052  29.309  1.00  0.00     0.020 A 
ATOM     34  Cl  UNL     1     -11.093 -44.886  31.258  1.00  0.00    -0.084 Cl
ENDBRANCH  27  28
ENDBRANCH   3  27
TORSDOF 9
ENDMDL
MODEL 7
REMARK VINA RESULT:   -10.125      2.881      5.256
REMARK INTER + INTRA:         -14.464
REMARK INTER:                 -13.492
REMARK INTRA:                  -0.972
REMARK UNBOUND:                 0.100
REMARK SMILES C=C(O)c1c[n+](Cc2cccc(Cl)c2)ccc1CC1=C(O)c2cc(O)c(OC)cc2C1
REMARK SMILES IDX 4 1 5 2 6 3 15 4 16 5 17 6 2 7 1 8 3 9 18 11 19 12 20 13
REMARK SMILES IDX 31 14 22 15 30 16 23 17 29 18 24 19 26 20 21 21 25 23 27 25
REMARK SMILES IDX 28 26 7 27 8 28 9 29 14 30 10 31 12 32 11 33 13 34
REMARK H PARENT 3 10 21 22 25 24
ROOT
ATOM      1  C   UNL     1     -15.671 -42.976  25.060  1.00  0.00     0.083 A 
ATOM      2  C   UNL     1     -14.617 -43.834  25.381  1.00  0.00     0.320 A 
ATOM      3  N   UNL     1     -14.435 -44.292  26.643  1.00  0.00    -0.200 N 
ATOM      4  C   UNL     1     -15.234 -43.876  27.648  1.00  0.00     0.308 A 
ATOM      5  C   UNL     1     -16.305 -43.033  27.392  1.00  0.00     0.075 A 
ATOM      6  C   UNL     1     -16.563 -42.604  26.082  1.00  0.00    -0.021 A 
ENDROOT
BRANCH   1   7
ATOM      7  C   UNL     1     -15.814 -42.606  23.646  1.00  0.00     0.121 C 
ATOM      8  C   UNL     1     -16.754 -43.111  22.840  1.00  0.00     0.059 C 
BRANCH   7   9
ATOM      9  O   UNL     1     -14.943 -41.625  23.231  1.00  0.00    -0.508 OA
ATOM     10  H   UNL     1     -15.100 -41.449  22.285  1.00  0.00     0.293 HD
ENDBRANCH   7   9
ENDBRANCH   1   7
BRANCH   6  11
ATOM     11  C   UNL     1     -17.879 -41.905  25.812  1.00  0.00     0.072 C 
BRANCH  11  12
ATOM     12  C   UNL     1     -19.103 -42.752  26.001  1.00  0.00    -0.019 C 
ATOM     13  C   UNL     1     -19.765 -43.135  27.109  1.00  0.00     0.123 C 
ATOM     14  C   UNL     1     -19.757 -43.331  24.757  1.00  0.00     0.071 C 
ATOM     15  C   UNL     1     -20.894 -43.983  26.738  1.00  0.00     0.024 A 
ATOM     16  C   UNL     1     -20.894 -44.107  25.347  1.00  0.00    -0.029 A 
ATOM     17  C   UNL     1     -21.867 -44.616  27.496  1.00  0.00     0.062 A 
ATOM     18  C   UNL     1     -21.851 -44.860  24.687  1.00  0.00     0.055 A 
ATOM     19  C   UNL     1     -22.843 -45.382  26.837  1.00  0.00     0.158 A 
ATOM     20  C   UNL     1     -22.843 -45.512  25.433  1.00  0.00     0.160 A 
BRANCH  13  21
ATOM     21  O   UNL     1     -19.483 -42.820  28.404  1.00  0.00    -0.507 OA
ATOM     22  H   UNL     1     -18.841 -43.475  28.732  1.00  0.00     0.293 HD
ENDBRANCH  13  21
BRANCH  19  23
ATOM     23  O   UNL     1     -23.795 -46.003  27.600  1.00  0.00    -0.504 OA
ATOM     24  H   UNL     1     -24.025 -45.449  28.363  1.00  0.00     0.293 HD
ENDBRANCH  19  23
BRANCH  20  25
ATOM     25  O   UNL     1     -23.711 -46.216  24.642  1.00  0.00    -0.493 OA
ATOM     26  C   UNL     1     -23.498 -47.609  24.472  1.00  0.00     0.278 C 
ENDBRANCH  20  25
ENDBRANCH  11  12
ENDBRANCH   6  11
BRANCH   3  27
ATOM     27  C   UNL     1     -13.395 -45.316  26.897  1.00  0.00     0.393 C 
BRANCH  27  28
ATOM     28  C   UNL     1     -12.416 -44.873  27.962  1.00  0.00     0.018 A 
ATOM     29  C   UNL     1     -11.801 -43.616  27.861  1.00  0.00     0.010 A 
ATOM     30  C   UNL     1     -12.123 -45.672  29.081  1.00  0.00     0.030 A 
ATOM     31  C   UNL     1     -10.894 -43.184  28.834  1.00  0.00     0.002 A 
ATOM     32  C   UNL     1     -11.206 -45.242  30.042  1.00  0.00     0.041 A 
ATOM     33  C   UNL     1     -10.592 -44.001  29.923  1.00  0.00     0.020 A 
ATOM     34  Cl  UNL     1     -10.834 -46.271  31.370  1.00  0.00    -0.084 Cl
ENDBRANCH  27  28
ENDBRANCH   3  27
TORSDOF 9
ENDMDL
MODEL 8
REMARK VINA RESULT:    -9.841      4.174      9.149
REMARK INTER + INTRA:         -14.055
REMARK INTER:                 -13.223
REMARK INTRA:                  -0.832
REMARK UNBOUND:                 0.100
REMARK SMILES C=C(O)c1c[n+](Cc2cccc(Cl)c2)ccc1CC1=C(O)c2cc(O)c(OC)cc2C1
REMARK SMILES IDX 4 1 5 2 6 3 15 4 16 5 17 6 2 7 1 8 3 9 18 11 19 12 20 13
REMARK SMILES IDX 31 14 22 15 30 16 23 17 29 18 24 19 26 20 21 21 25 23 27 25
REMARK SMILES IDX 28 26 7 27 8 28 9 29 14 30 10 31 12 32 11 33 13 34
REMARK H PARENT 3 10 21 22 25 24
ROOT
ATOM      1  C   UNL     1     -12.789 -44.919  27.671  1.00  0.00     0.083 A 
ATOM      2  C   UNL     1     -13.892 -44.603  26.874  1.00  0.00     0.320 A 
ATOM      3  N   UNL     1     -13.986 -43.414  26.235  1.00  0.00    -0.200 N 
ATOM      4  C   UNL     1     -13.042 -42.463  26.404  1.00  0.00     0.308 A 
ATOM      5  C   UNL     1     -11.918 -42.720  27.174  1.00  0.00     0.075 A 
ATOM      6  C   UNL     1     -11.756 -43.971  27.787  1.00  0.00    -0.021 A 
ENDROOT
BRANCH   1   7
ATOM      7  C   UNL     1     -12.759 -46.267  28.254  1.00  0.00     0.121 C 
ATOM      8  C   UNL     1     -13.049 -46.526  29.534  1.00  0.00     0.059 C 
BRANCH   7   9
ATOM      9  O   UNL     1     -12.485 -47.265  27.348  1.00  0.00    -0.508 OA
ATOM     10  H   UNL     1     -11.896 -47.917  27.771  1.00  0.00     0.293 HD
ENDBRANCH   7   9
ENDBRANCH   1   7
BRANCH   6  11
ATOM     11  C   UNL     1     -10.407 -44.293  28.396  1.00  0.00     0.072 C 
BRANCH  11  12
ATOM     12  C   UNL     1     -10.206 -43.797  29.797  1.00  0.00    -0.019 C 
ATOM     13  C   UNL     1      -9.127 -43.805  30.604  1.00  0.00     0.123 C 
ATOM     14  C   UNL     1     -11.400 -43.176  30.503  1.00  0.00     0.071 C 
ATOM     15  C   UNL     1      -9.473 -43.211  31.893  1.00  0.00     0.024 A 
ATOM     16  C   UNL     1     -10.819 -42.840  31.842  1.00  0.00    -0.029 A 
ATOM     17  C   UNL     1      -8.728 -42.986  33.040  1.00  0.00     0.062 A 
ATOM     18  C   UNL     1     -11.447 -42.246  32.925  1.00  0.00     0.055 A 
ATOM     19  C   UNL     1      -9.355 -42.384  34.143  1.00  0.00     0.158 A 
ATOM     20  C   UNL     1     -10.714 -42.012  34.097  1.00  0.00     0.160 A 
BRANCH  13  21
ATOM     21  O   UNL     1      -7.879 -44.277  30.329  1.00  0.00    -0.507 OA
ATOM     22  H   UNL     1      -7.764 -45.106  30.825  1.00  0.00     0.293 HD
ENDBRANCH  13  21
BRANCH  19  23
ATOM     23  O   UNL     1      -8.607 -42.172  35.269  1.00  0.00    -0.504 OA
ATOM     24  H   UNL     1      -8.040 -41.392  35.152  1.00  0.00     0.293 HD
ENDBRANCH  19  23
BRANCH  20  25
ATOM     25  O   UNL     1     -11.470 -41.423  35.075  1.00  0.00    -0.493 OA
ATOM     26  C   UNL     1     -12.864 -41.270  34.854  1.00  0.00     0.278 C 
ENDBRANCH  20  25
ENDBRANCH  11  12
ENDBRANCH   6  11
BRANCH   3  27
ATOM     27  C   UNL     1     -15.100 -43.191  25.284  1.00  0.00     0.393 C 
BRANCH  27  28
ATOM     28  C   UNL     1     -16.375 -42.791  25.993  1.00  0.00     0.018 A 
ATOM     29  C   UNL     1     -16.407 -42.753  27.396  1.00  0.00     0.010 A 
ATOM     30  C   UNL     1     -17.534 -42.420  25.287  1.00  0.00     0.030 A 
ATOM     31  C   UNL     1     -17.574 -42.385  28.073  1.00  0.00     0.002 A 
ATOM     32  C   UNL     1     -18.700 -42.068  25.970  1.00  0.00     0.041 A 
ATOM     33  C   UNL     1     -18.724 -42.048  27.359  1.00  0.00     0.020 A 
ATOM     34  Cl  UNL     1     -20.112 -41.671  25.072  1.00  0.00    -0.084 Cl
ENDBRANCH  27  28
ENDBRANCH   3  27
TORSDOF 9
ENDMDL
MODEL 9
REMARK VINA RESULT:    -9.698      7.115     13.333
REMARK INTER + INTRA:         -13.849
REMARK INTER:                 -12.519
REMARK INTRA:                  -1.330
REMARK UNBOUND:                 0.100
REMARK SMILES C=C(O)c1c[n+](Cc2cccc(Cl)c2)ccc1CC1=C(O)c2cc(O)c(OC)cc2C1
REMARK SMILES IDX 4 1 5 2 6 3 15 4 16 5 17 6 2 7 1 8 3 9 18 11 19 12 20 13
REMARK SMILES IDX 31 14 22 15 30 16 23 17 29 18 24 19 26 20 21 21 25 23 27 25
REMARK SMILES IDX 28 26 7 27 8 28 9 29 14 30 10 31 12 32 11 33 13 34
REMARK H PARENT 3 10 21 22 25 24
ROOT
ATOM      1  C   UNL     1     -21.817 -41.550  21.726  1.00  0.00     0.083 A 
ATOM      2  C   UNL     1     -21.824 -40.820  20.535  1.00  0.00     0.320 A 
ATOM      3  N   UNL     1     -21.340 -39.557  20.476  1.00  0.00    -0.200 N 
ATOM      4  C   UNL     1     -20.896 -38.936  21.590  1.00  0.00     0.308 A 
ATOM      5  C   UNL     1     -20.852 -39.611  22.800  1.00  0.00     0.075 A 
ATOM      6  C   UNL     1     -21.276 -40.946  22.875  1.00  0.00    -0.021 A 
ENDROOT
BRANCH   1   7
ATOM      7  C   UNL     1     -22.297 -42.937  21.653  1.00  0.00     0.121 C 
ATOM      8  C   UNL     1     -23.592 -43.271  21.648  1.00  0.00     0.059 C 
BRANCH   7   9
ATOM      9  O   UNL     1     -21.298 -43.871  21.508  1.00  0.00    -0.508 OA
ATOM     10  H   UNL     1     -20.464 -43.490  21.841  1.00  0.00     0.293 HD
ENDBRANCH   7   9
ENDBRANCH   1   7
BRANCH   6  11
ATOM     11  C   UNL     1     -20.971 -41.716  24.144  1.00  0.00     0.072 C 
BRANCH  11  12
ATOM     12  C   UNL     1     -19.527 -42.067  24.346  1.00  0.00    -0.019 C 
ATOM     13  C   UNL     1     -18.562 -42.426  23.477  1.00  0.00     0.123 C 
ATOM     14  C   UNL     1     -18.991 -42.051  25.768  1.00  0.00     0.071 C 
ATOM     15  C   UNL     1     -17.320 -42.682  24.201  1.00  0.00     0.024 A 
ATOM     16  C   UNL     1     -17.567 -42.466  25.559  1.00  0.00    -0.029 A 
ATOM     17  C   UNL     1     -16.059 -43.067  23.773  1.00  0.00     0.062 A 
ATOM     18  C   UNL     1     -16.574 -42.632  26.511  1.00  0.00     0.055 A 
ATOM     19  C   UNL     1     -15.045 -43.238  24.729  1.00  0.00     0.158 A 
ATOM     20  C   UNL     1     -15.292 -43.025  26.100  1.00  0.00     0.160 A 
BRANCH  13  21
ATOM     21  O   UNL     1     -18.658 -42.553  22.124  1.00  0.00    -0.507 OA
ATOM     22  H   UNL     1     -19.389 -43.168  21.939  1.00  0.00     0.293 HD
ENDBRANCH  13  21
BRANCH  19  23
ATOM     23  O   UNL     1     -13.806 -43.622  24.290  1.00  0.00    -0.504 OA
ATOM     24  H   UNL     1     -13.873 -44.015  23.405  1.00  0.00     0.293 HD
ENDBRANCH  19  23
BRANCH  20  25
ATOM     25  O   UNL     1     -14.424 -43.148  27.152  1.00  0.00    -0.493 OA
ATOM     26  C   UNL     1     -14.180 -44.443  27.682  1.00  0.00     0.278 C 
ENDBRANCH  20  25
ENDBRANCH  11  12
ENDBRANCH   6  11
BRANCH   3  27
ATOM     27  C   UNL     1     -21.233 -38.885  19.160  1.00  0.00     0.393 C 
BRANCH  27  28
ATOM     28  C   UNL     1     -22.568 -38.354  18.687  1.00  0.00     0.018 A 
ATOM     29  C   UNL     1     -23.275 -39.041  17.689  1.00  0.00     0.010 A 
ATOM     30  C   UNL     1     -23.148 -37.200  19.243  1.00  0.00     0.030 A 
ATOM     31  C   UNL     1     -24.513 -38.570  17.237  1.00  0.00     0.002 A 
ATOM     32  C   UNL     1     -24.377 -36.726  18.778  1.00  0.00     0.041 A 
ATOM     33  C   UNL     1     -25.061 -37.407  17.778  1.00  0.00     0.020 A 
ATOM     34  Cl  UNL     1     -25.029 -35.282  19.447  1.00  0.00    -0.084 Cl
ENDBRANCH  27  28
ENDBRANCH   3  27
TORSDOF 9
ENDMDL
