MODEL 1
REMARK VINA RESULT:    -9.832      0.000      0.000
REMARK INTER + INTRA:         -15.027
REMARK INTER:                 -13.568
REMARK INTRA:                  -1.459
REMARK UNBOUND:                -1.459
REMARK SMILES COc1ccc(OC)c([C@@H]2CC(c3cc(F)ccc3F)=NN2c2ccc(S(N)(=O)=O)cc2)c1
REMARK SMILES IDX 23 1 24 2 25 3 26 4 31 5 32 6 22 7 10 8 11 9 12 10 21 11
REMARK SMILES IDX 9 12 3 13 4 14 33 15 5 16 6 17 2 18 1 19 7 20 8 21 13 22
REMARK SMILES IDX 14 23 19 24 15 25 18 26 17 27 20 28 16 29 27 30 29 31 30 32
REMARK SMILES IDX 28 33
REMARK H PARENT 28 34 28 35
ROOT
ATOM      1  C   UNL     1     -17.786 -42.330  25.307  1.00  0.00     0.060 A 
ATOM      2  C   UNL     1     -16.738 -42.827  24.506  1.00  0.00     0.029 A 
ATOM      3  C   UNL     1     -15.558 -43.339  25.057  1.00  0.00     0.024 A 
ATOM      4  C   UNL     1     -15.401 -43.354  26.440  1.00  0.00     0.082 A 
ATOM      5  C   UNL     1     -16.418 -42.878  27.265  1.00  0.00     0.024 A 
ATOM      6  C   UNL     1     -17.592 -42.369  26.696  1.00  0.00     0.029 A 
ENDROOT
BRANCH   1   7
ATOM      7  N   UNL     1     -18.948 -41.834  24.720  1.00  0.00    -0.257 N 
ATOM      8  C   UNL     1     -20.189 -41.455  25.404  1.00  0.00     0.148 C 
ATOM      9  C   UNL     1     -20.941 -40.662  24.334  1.00  0.00     0.091 C 
ATOM     10  C   UNL     1     -20.097 -40.965  23.124  1.00  0.00     0.074 C 
ATOM     11  N   UNL     1     -18.977 -41.565  23.379  1.00  0.00    -0.176 NA
BRANCH   8  12
ATOM     12  C   UNL     1     -20.980 -42.641  25.936  1.00  0.00     0.023 A 
ATOM     13  C   UNL     1     -21.408 -45.059  25.830  1.00  0.00     0.119 A 
ATOM     14  C   UNL     1     -22.361 -44.940  26.837  1.00  0.00     0.050 A 
ATOM     15  C   UNL     1     -20.722 -43.918  25.396  1.00  0.00     0.056 A 
ATOM     16  C   UNL     1     -22.625 -43.690  27.398  1.00  0.00     0.050 A 
ATOM     17  C   UNL     1     -21.953 -42.551  26.942  1.00  0.00     0.124 A 
BRANCH  13  18
ATOM     18  O   UNL     1     -21.042 -46.216  25.199  1.00  0.00    -0.497 OA
ATOM     19  C   UNL     1     -22.050 -46.883  24.449  1.00  0.00     0.278 C 
ENDBRANCH  13  18
BRANCH  17  20
ATOM     20  O   UNL     1     -22.194 -41.357  27.567  1.00  0.00    -0.496 OA
ATOM     21  C   UNL     1     -23.449 -40.812  27.149  1.00  0.00     0.278 C 
ENDBRANCH  17  20
ENDBRANCH   8  12
BRANCH  10  22
ATOM     22  C   UNL     1     -20.524 -40.566  21.766  1.00  0.00     0.037 A 
ATOM     23  C   UNL     1     -20.540 -39.215  21.394  1.00  0.00     0.052 A 
ATOM     24  C   UNL     1     -20.920 -41.531  20.832  1.00  0.00     0.132 A 
ATOM     25  C   UNL     1     -20.943 -38.860  20.109  1.00  0.00     0.124 A 
ATOM     26  C   UNL     1     -21.324 -41.163  19.547  1.00  0.00     0.043 A 
ATOM     27  C   UNL     1     -21.334 -39.818  19.182  1.00  0.00     0.042 A 
ATOM     28  F   UNL     1     -20.947 -42.835  21.137  1.00  0.00    -0.206 F 
ATOM     29  F   UNL     1     -20.952 -37.567  19.762  1.00  0.00    -0.207 F 
ENDBRANCH  10  22
ENDBRANCH   1   7
BRANCH   4  30
ATOM     30  S   UNL     1     -13.930 -44.027  27.148  1.00  0.00     0.238 S 
ATOM     31  O   UNL     1     -12.907 -43.009  27.186  1.00  0.00    -0.207 OA
ATOM     32  O   UNL     1     -13.691 -45.341  26.597  1.00  0.00    -0.207 OA
BRANCH  30  33
ATOM     33  N   UNL     1     -14.393 -44.278  28.741  1.00  0.00    -0.225 NA
ATOM     34  H   UNL     1     -15.049 -43.552  29.029  1.00  0.00     0.137 HD
ATOM     35  H   UNL     1     -14.747 -45.228  28.854  1.00  0.00     0.137 HD
ENDBRANCH  30  33
ENDBRANCH   4  30
TORSDOF 7
ENDMDL
MODEL 2
REMARK VINA RESULT:    -9.672      7.394     11.518
REMARK INTER + INTRA:         -14.806
REMARK INTER:                 -13.605
REMARK INTRA:                  -1.201
REMARK UNBOUND:                -1.459
REMARK SMILES COc1ccc(OC)c([C@@H]2CC(c3cc(F)ccc3F)=NN2c2ccc(S(N)(=O)=O)cc2)c1
REMARK SMILES IDX 23 1 24 2 25 3 26 4 31 5 32 6 22 7 10 8 11 9 12 10 21 11
REMARK SMILES IDX 9 12 3 13 4 14 33 15 5 16 6 17 2 18 1 19 7 20 8 21 13 22
REMARK SMILES IDX 14 23 19 24 15 25 18 26 17 27 20 28 16 29 27 30 29 31 30 32
REMARK SMILES IDX 28 33
REMARK H PARENT 28 34 28 35
ROOT
ATOM      1  C   UNL     1     -12.881 -44.197  28.280  1.00  0.00     0.060 A 
ATOM      2  C   UNL     1     -12.753 -42.937  27.662  1.00  0.00     0.029 A 
ATOM      3  C   UNL     1     -13.330 -42.654  26.420  1.00  0.00     0.024 A 
ATOM      4  C   UNL     1     -14.049 -43.646  25.760  1.00  0.00     0.082 A 
ATOM      5  C   UNL     1     -14.205 -44.902  26.342  1.00  0.00     0.024 A 
ATOM      6  C   UNL     1     -13.620 -45.168  27.586  1.00  0.00     0.029 A 
ENDROOT
BRANCH   1   7
ATOM      7  N   UNL     1     -12.296 -44.437  29.522  1.00  0.00    -0.257 N 
ATOM      8  C   UNL     1     -12.973 -44.889  30.742  1.00  0.00     0.148 C 
ATOM      9  C   UNL     1     -11.809 -45.320  31.638  1.00  0.00     0.091 C 
ATOM     10  C   UNL     1     -10.644 -44.775  30.855  1.00  0.00     0.074 C 
ATOM     11  N   UNL     1     -10.940 -44.345  29.668  1.00  0.00    -0.176 NA
BRANCH   8  12
ATOM     12  C   UNL     1     -13.857 -43.828  31.380  1.00  0.00     0.023 A 
ATOM     13  C   UNL     1     -14.174 -42.231  33.220  1.00  0.00     0.119 A 
ATOM     14  C   UNL     1     -15.387 -41.828  32.669  1.00  0.00     0.050 A 
ATOM     15  C   UNL     1     -13.419 -43.215  32.572  1.00  0.00     0.056 A 
ATOM     16  C   UNL     1     -15.837 -42.409  31.483  1.00  0.00     0.050 A 
ATOM     17  C   UNL     1     -15.087 -43.408  30.853  1.00  0.00     0.124 A 
BRANCH  13  18
ATOM     18  O   UNL     1     -13.609 -41.745  34.367  1.00  0.00    -0.497 OA
ATOM     19  C   UNL     1     -14.443 -40.962  35.212  1.00  0.00     0.278 C 
ENDBRANCH  13  18
BRANCH  17  20
ATOM     20  O   UNL     1     -15.533 -43.902  29.657  1.00  0.00    -0.496 OA
ATOM     21  C   UNL     1     -16.611 -43.108  29.152  1.00  0.00     0.278 C 
ENDBRANCH  17  20
ENDBRANCH   8  12
BRANCH  10  22
ATOM     22  C   UNL     1      -9.274 -44.775  31.410  1.00  0.00     0.037 A 
ATOM     23  C   UNL     1      -8.803 -43.676  32.140  1.00  0.00     0.052 A 
ATOM     24  C   UNL     1      -8.425 -45.872  31.212  1.00  0.00     0.132 A 
ATOM     25  C   UNL     1      -7.509 -43.696  32.656  1.00  0.00     0.124 A 
ATOM     26  C   UNL     1      -7.131 -45.880  31.733  1.00  0.00     0.043 A 
ATOM     27  C   UNL     1      -6.668 -44.786  32.461  1.00  0.00     0.042 A 
ATOM     28  F   UNL     1      -8.813 -46.941  30.503  1.00  0.00    -0.206 F 
ATOM     29  F   UNL     1      -7.068 -42.643  33.355  1.00  0.00    -0.207 F 
ENDBRANCH  10  22
ENDBRANCH   1   7
BRANCH   4  30
ATOM     30  S   UNL     1     -14.810 -43.291  24.206  1.00  0.00     0.238 S 
ATOM     31  O   UNL     1     -14.774 -44.472  23.375  1.00  0.00    -0.207 OA
ATOM     32  O   UNL     1     -14.359 -42.002  23.735  1.00  0.00    -0.207 OA
BRANCH  30  33
ATOM     33  N   UNL     1     -16.416 -43.082  24.643  1.00  0.00    -0.225 NA
ATOM     34  H   UNL     1     -16.959 -42.782  23.832  1.00  0.00     0.137 HD
ATOM     35  H   UNL     1     -16.767 -43.929  25.089  1.00  0.00     0.137 HD
ENDBRANCH  30  33
ENDBRANCH   4  30
TORSDOF 7
ENDMDL
MODEL 3
REMARK VINA RESULT:    -9.521      1.522      1.784
REMARK INTER + INTRA:         -14.598
REMARK INTER:                 -13.373
REMARK INTRA:                  -1.225
REMARK UNBOUND:                -1.459
REMARK SMILES COc1ccc(OC)c([C@@H]2CC(c3cc(F)ccc3F)=NN2c2ccc(S(N)(=O)=O)cc2)c1
REMARK SMILES IDX 23 1 24 2 25 3 26 4 31 5 32 6 22 7 10 8 11 9 12 10 21 11
REMARK SMILES IDX 9 12 3 13 4 14 33 15 5 16 6 17 2 18 1 19 7 20 8 21 13 22
REMARK SMILES IDX 14 23 19 24 15 25 18 26 17 27 20 28 16 29 27 30 29 31 30 32
REMARK SMILES IDX 28 33
REMARK H PARENT 28 34 28 35
ROOT
ATOM      1  C   UNL     1     -18.001 -42.245  25.143  1.00  0.00     0.060 A 
ATOM      2  C   UNL     1     -16.951 -42.732  24.340  1.00  0.00     0.029 A 
ATOM      3  C   UNL     1     -15.761 -43.225  24.887  1.00  0.00     0.024 A 
ATOM      4  C   UNL     1     -15.595 -43.227  26.269  1.00  0.00     0.082 A 
ATOM      5  C   UNL     1     -16.614 -42.760  27.098  1.00  0.00     0.024 A 
ATOM      6  C   UNL     1     -17.798 -42.271  26.532  1.00  0.00     0.029 A 
ENDROOT
BRANCH   1   7
ATOM      7  N   UNL     1     -19.174 -41.769  24.560  1.00  0.00    -0.257 N 
ATOM      8  C   UNL     1     -20.530 -41.853  25.112  1.00  0.00     0.148 C 
ATOM      9  C   UNL     1     -21.315 -40.869  24.241  1.00  0.00     0.091 C 
ATOM     10  C   UNL     1     -20.306 -40.599  23.157  1.00  0.00     0.074 C 
ATOM     11  N   UNL     1     -19.118 -41.063  23.390  1.00  0.00    -0.176 NA
BRANCH   8  12
ATOM     12  C   UNL     1     -21.110 -43.259  25.098  1.00  0.00     0.023 A 
ATOM     13  C   UNL     1     -22.145 -45.058  23.783  1.00  0.00     0.119 A 
ATOM     14  C   UNL     1     -22.200 -45.863  24.916  1.00  0.00     0.050 A 
ATOM     15  C   UNL     1     -21.595 -43.774  23.879  1.00  0.00     0.056 A 
ATOM     16  C   UNL     1     -21.713 -45.382  26.133  1.00  0.00     0.050 A 
ATOM     17  C   UNL     1     -21.187 -44.090  26.226  1.00  0.00     0.124 A 
BRANCH  13  18
ATOM     18  O   UNL     1     -22.575 -45.400  22.530  1.00  0.00    -0.497 OA
ATOM     19  C   UNL     1     -22.795 -46.783  22.282  1.00  0.00     0.278 C 
ENDBRANCH  13  18
BRANCH  17  20
ATOM     20  O   UNL     1     -20.660 -43.685  27.423  1.00  0.00    -0.496 OA
ATOM     21  C   UNL     1     -20.944 -44.639  28.449  1.00  0.00     0.278 C 
ENDBRANCH  17  20
ENDBRANCH   8  12
BRANCH  10  22
ATOM     22  C   UNL     1     -20.662 -39.829  21.945  1.00  0.00     0.037 A 
ATOM     23  C   UNL     1     -21.876 -39.135  21.877  1.00  0.00     0.052 A 
ATOM     24  C   UNL     1     -19.793 -39.787  20.848  1.00  0.00     0.132 A 
ATOM     25  C   UNL     1     -22.193 -38.414  20.727  1.00  0.00     0.124 A 
ATOM     26  C   UNL     1     -20.122 -39.063  19.701  1.00  0.00     0.043 A 
ATOM     27  C   UNL     1     -21.329 -38.370  19.639  1.00  0.00     0.042 A 
ATOM     28  F   UNL     1     -18.629 -40.450  20.846  1.00  0.00    -0.206 F 
ATOM     29  F   UNL     1     -23.355 -37.750  20.672  1.00  0.00    -0.207 F 
ENDBRANCH  10  22
ENDBRANCH   1   7
BRANCH   4  30
ATOM     30  S   UNL     1     -14.111 -43.875  26.973  1.00  0.00     0.238 S 
ATOM     31  O   UNL     1     -13.112 -42.834  27.027  1.00  0.00    -0.207 OA
ATOM     32  O   UNL     1     -13.840 -45.176  26.407  1.00  0.00    -0.207 OA
BRANCH  30  33
ATOM     33  N   UNL     1     -14.571 -44.155  28.562  1.00  0.00    -0.225 NA
ATOM     34  H   UNL     1     -14.354 -43.340  29.135  1.00  0.00     0.137 HD
ATOM     35  H   UNL     1     -15.551 -44.437  28.594  1.00  0.00     0.137 HD
ENDBRANCH  30  33
ENDBRANCH   4  30
TORSDOF 7
ENDMDL
MODEL 4
REMARK VINA RESULT:    -8.781      4.404      7.622
REMARK INTER + INTRA:         -13.576
REMARK INTER:                 -11.934
REMARK INTRA:                  -1.642
REMARK UNBOUND:                -1.459
REMARK SMILES COc1ccc(OC)c([C@@H]2CC(c3cc(F)ccc3F)=NN2c2ccc(S(N)(=O)=O)cc2)c1
REMARK SMILES IDX 23 1 24 2 25 3 26 4 31 5 32 6 22 7 10 8 11 9 12 10 21 11
REMARK SMILES IDX 9 12 3 13 4 14 33 15 5 16 6 17 2 18 1 19 7 20 8 21 13 22
REMARK SMILES IDX 14 23 19 24 15 25 18 26 17 27 20 28 16 29 27 30 29 31 30 32
REMARK SMILES IDX 28 33
REMARK H PARENT 28 34 28 35
ROOT
ATOM      1  C   UNL     1     -20.990 -40.898  22.382  1.00  0.00     0.060 A 
ATOM      2  C   UNL     1     -20.493 -39.593  22.196  1.00  0.00     0.029 A 
ATOM      3  C   UNL     1     -21.017 -38.726  21.231  1.00  0.00     0.024 A 
ATOM      4  C   UNL     1     -22.057 -39.161  20.416  1.00  0.00     0.082 A 
ATOM      5  C   UNL     1     -22.581 -40.443  20.573  1.00  0.00     0.024 A 
ATOM      6  C   UNL     1     -22.044 -41.297  21.544  1.00  0.00     0.029 A 
ENDROOT
BRANCH   1   7
ATOM      7  N   UNL     1     -20.445 -41.729  23.358  1.00  0.00    -0.257 N 
ATOM      8  C   UNL     1     -21.076 -42.904  23.968  1.00  0.00     0.148 C 
ATOM      9  C   UNL     1     -19.904 -43.598  24.665  1.00  0.00     0.091 C 
ATOM     10  C   UNL     1     -18.847 -42.531  24.551  1.00  0.00     0.074 C 
ATOM     11  N   UNL     1     -19.158 -41.538  23.778  1.00  0.00    -0.176 NA
BRANCH   8  12
ATOM     12  C   UNL     1     -22.218 -42.564  24.914  1.00  0.00     0.023 A 
ATOM     13  C   UNL     1     -23.015 -41.184  26.784  1.00  0.00     0.119 A 
ATOM     14  C   UNL     1     -24.255 -41.813  26.727  1.00  0.00     0.050 A 
ATOM     15  C   UNL     1     -22.015 -41.555  25.878  1.00  0.00     0.056 A 
ATOM     16  C   UNL     1     -24.486 -42.805  25.774  1.00  0.00     0.050 A 
ATOM     17  C   UNL     1     -23.475 -43.186  24.886  1.00  0.00     0.124 A 
BRANCH  13  18
ATOM     18  O   UNL     1     -22.652 -40.195  27.656  1.00  0.00    -0.497 OA
ATOM     19  C   UNL     1     -23.613 -39.176  27.906  1.00  0.00     0.278 C 
ENDBRANCH  13  18
BRANCH  17  20
ATOM     20  O   UNL     1     -23.767 -44.116  23.924  1.00  0.00    -0.496 OA
ATOM     21  C   UNL     1     -23.716 -45.438  24.467  1.00  0.00     0.278 C 
ENDBRANCH  17  20
ENDBRANCH   8  12
BRANCH  10  22
ATOM     22  C   UNL     1     -17.551 -42.651  25.252  1.00  0.00     0.037 A 
ATOM     23  C   UNL     1     -16.378 -42.923  24.536  1.00  0.00     0.052 A 
ATOM     24  C   UNL     1     -17.476 -42.499  26.643  1.00  0.00     0.132 A 
ATOM     25  C   UNL     1     -15.166 -43.030  25.215  1.00  0.00     0.124 A 
ATOM     26  C   UNL     1     -16.257 -42.610  27.312  1.00  0.00     0.043 A 
ATOM     27  C   UNL     1     -15.093 -42.876  26.595  1.00  0.00     0.042 A 
ATOM     28  F   UNL     1     -18.568 -42.260  27.383  1.00  0.00    -0.206 F 
ATOM     29  F   UNL     1     -14.050 -43.286  24.522  1.00  0.00    -0.207 F 
ENDBRANCH  10  22
ENDBRANCH   1   7
BRANCH   4  30
ATOM     30  S   UNL     1     -22.748 -38.066  19.215  1.00  0.00     0.238 S 
ATOM     31  O   UNL     1     -24.156 -37.889  19.482  1.00  0.00    -0.207 OA
ATOM     32  O   UNL     1     -22.249 -38.415  17.905  1.00  0.00    -0.207 OA
BRANCH  30  33
ATOM     33  N   UNL     1     -22.016 -36.608  19.609  1.00  0.00    -0.225 NA
ATOM     34  H   UNL     1     -22.696 -35.986  20.046  1.00  0.00     0.137 HD
ATOM     35  H   UNL     1     -21.185 -36.781  20.176  1.00  0.00     0.137 HD
ENDBRANCH  30  33
ENDBRANCH   4  30
TORSDOF 7
ENDMDL
MODEL 5
REMARK VINA RESULT:    -8.594      7.475     11.653
REMARK INTER + INTRA:         -13.318
REMARK INTER:                 -12.623
REMARK INTRA:                  -0.695
REMARK UNBOUND:                -1.459
REMARK SMILES COc1ccc(OC)c([C@@H]2CC(c3cc(F)ccc3F)=NN2c2ccc(S(N)(=O)=O)cc2)c1
REMARK SMILES IDX 23 1 24 2 25 3 26 4 31 5 32 6 22 7 10 8 11 9 12 10 21 11
REMARK SMILES IDX 9 12 3 13 4 14 33 15 5 16 6 17 2 18 1 19 7 20 8 21 13 22
REMARK SMILES IDX 14 23 19 24 15 25 18 26 17 27 20 28 16 29 27 30 29 31 30 32
REMARK SMILES IDX 28 33
REMARK H PARENT 28 34 28 35
ROOT
ATOM      1  C   UNL     1     -12.672 -44.189  28.441  1.00  0.00     0.060 A 
ATOM      2  C   UNL     1     -12.325 -43.060  27.672  1.00  0.00     0.029 A 
ATOM      3  C   UNL     1     -12.924 -42.786  26.437  1.00  0.00     0.024 A 
ATOM      4  C   UNL     1     -13.887 -43.658  25.938  1.00  0.00     0.082 A 
ATOM      5  C   UNL     1     -14.262 -44.782  26.672  1.00  0.00     0.024 A 
ATOM      6  C   UNL     1     -13.652 -45.039  27.906  1.00  0.00     0.029 A 
ENDROOT
BRANCH   1   7
ATOM      7  N   UNL     1     -12.058 -44.422  29.669  1.00  0.00    -0.257 N 
ATOM      8  C   UNL     1     -12.706 -44.859  30.910  1.00  0.00     0.148 C 
ATOM      9  C   UNL     1     -11.523 -45.290  31.780  1.00  0.00     0.091 C 
ATOM     10  C   UNL     1     -10.375 -44.760  30.963  1.00  0.00     0.074 C 
ATOM     11  N   UNL     1     -10.697 -44.338  29.781  1.00  0.00    -0.176 NA
BRANCH   8  12
ATOM     12  C   UNL     1     -13.567 -43.786  31.560  1.00  0.00     0.023 A 
ATOM     13  C   UNL     1     -15.665 -42.507  31.515  1.00  0.00     0.119 A 
ATOM     14  C   UNL     1     -15.282 -41.828  32.668  1.00  0.00     0.050 A 
ATOM     15  C   UNL     1     -14.815 -43.480  30.978  1.00  0.00     0.056 A 
ATOM     16  C   UNL     1     -14.059 -42.122  33.272  1.00  0.00     0.050 A 
ATOM     17  C   UNL     1     -13.205 -43.080  32.716  1.00  0.00     0.124 A 
BRANCH  13  18
ATOM     18  O   UNL     1     -16.832 -42.329  30.825  1.00  0.00    -0.497 OA
ATOM     19  C   UNL     1     -16.848 -42.762  29.470  1.00  0.00     0.278 C 
ENDBRANCH  13  18
BRANCH  17  20
ATOM     20  O   UNL     1     -12.046 -43.384  33.380  1.00  0.00    -0.496 OA
ATOM     21  C   UNL     1     -11.387 -42.192  33.819  1.00  0.00     0.278 C 
ENDBRANCH  17  20
ENDBRANCH   8  12
BRANCH  10  22
ATOM     22  C   UNL     1      -8.991 -44.765  31.484  1.00  0.00     0.037 A 
ATOM     23  C   UNL     1      -8.479 -43.645  32.151  1.00  0.00     0.052 A 
ATOM     24  C   UNL     1      -8.170 -45.887  31.314  1.00  0.00     0.132 A 
ATOM     25  C   UNL     1      -7.173 -43.670  32.636  1.00  0.00     0.124 A 
ATOM     26  C   UNL     1      -6.863 -45.900  31.803  1.00  0.00     0.043 A 
ATOM     27  C   UNL     1      -6.360 -44.785  32.470  1.00  0.00     0.042 A 
ATOM     28  F   UNL     1      -8.597 -46.978  30.664  1.00  0.00    -0.206 F 
ATOM     29  F   UNL     1      -6.693 -42.596  33.276  1.00  0.00    -0.207 F 
ENDBRANCH  10  22
ENDBRANCH   1   7
BRANCH   4  30
ATOM     30  S   UNL     1     -14.672 -43.307  24.396  1.00  0.00     0.238 S 
ATOM     31  O   UNL     1     -14.634 -44.485  23.560  1.00  0.00    -0.207 OA
ATOM     32  O   UNL     1     -14.243 -42.011  23.923  1.00  0.00    -0.207 OA
BRANCH  30  33
ATOM     33  N   UNL     1     -16.275 -43.118  24.855  1.00  0.00    -0.225 NA
ATOM     34  H   UNL     1     -16.501 -42.125  24.920  1.00  0.00     0.137 HD
ATOM     35  H   UNL     1     -16.880 -43.642  24.222  1.00  0.00     0.137 HD
ENDBRANCH  30  33
ENDBRANCH   4  30
TORSDOF 7
ENDMDL
MODEL 6
REMARK VINA RESULT:    -8.554      3.308      6.213
REMARK INTER + INTRA:         -13.263
REMARK INTER:                 -11.780
REMARK INTRA:                  -1.482
REMARK UNBOUND:                -1.459
REMARK SMILES COc1ccc(OC)c([C@@H]2CC(c3cc(F)ccc3F)=NN2c2ccc(S(N)(=O)=O)cc2)c1
REMARK SMILES IDX 23 1 24 2 25 3 26 4 31 5 32 6 22 7 10 8 11 9 12 10 21 11
REMARK SMILES IDX 9 12 3 13 4 14 33 15 5 16 6 17 2 18 1 19 7 20 8 21 13 22
REMARK SMILES IDX 14 23 19 24 15 25 18 26 17 27 20 28 16 29 27 30 29 31 30 32
REMARK SMILES IDX 28 33
REMARK H PARENT 28 34 28 35
ROOT
ATOM      1  C   UNL     1     -19.616 -41.797  24.609  1.00  0.00     0.060 A 
ATOM      2  C   UNL     1     -18.878 -42.161  25.753  1.00  0.00     0.029 A 
ATOM      3  C   UNL     1     -17.517 -42.480  25.693  1.00  0.00     0.024 A 
ATOM      4  C   UNL     1     -16.864 -42.450  24.464  1.00  0.00     0.082 A 
ATOM      5  C   UNL     1     -17.557 -42.088  23.311  1.00  0.00     0.024 A 
ATOM      6  C   UNL     1     -18.919 -41.772  23.391  1.00  0.00     0.029 A 
ENDROOT
BRANCH   1   7
ATOM      7  N   UNL     1     -20.969 -41.480  24.713  1.00  0.00    -0.257 N 
ATOM      8  C   UNL     1     -22.066 -42.026  23.908  1.00  0.00     0.148 C 
ATOM      9  C   UNL     1     -23.309 -41.606  24.695  1.00  0.00     0.091 C 
ATOM     10  C   UNL     1     -22.697 -40.648  25.683  1.00  0.00     0.074 C 
ATOM     11  N   UNL     1     -21.401 -40.643  25.704  1.00  0.00    -0.176 NA
BRANCH   8  12
ATOM     12  C   UNL     1     -22.074 -41.531  22.469  1.00  0.00     0.023 A 
ATOM     13  C   UNL     1     -22.248 -39.614  20.940  1.00  0.00     0.119 A 
ATOM     14  C   UNL     1     -22.091 -40.463  19.849  1.00  0.00     0.050 A 
ATOM     15  C   UNL     1     -22.230 -40.148  22.234  1.00  0.00     0.056 A 
ATOM     16  C   UNL     1     -21.921 -41.833  20.055  1.00  0.00     0.050 A 
ATOM     17  C   UNL     1     -21.927 -42.362  21.349  1.00  0.00     0.124 A 
BRANCH  13  18
ATOM     18  O   UNL     1     -22.415 -38.257  20.889  1.00  0.00    -0.497 OA
ATOM     19  C   UNL     1     -22.995 -37.727  19.704  1.00  0.00     0.278 C 
ENDBRANCH  13  18
BRANCH  17  20
ATOM     20  O   UNL     1     -21.690 -43.702  21.508  1.00  0.00    -0.496 OA
ATOM     21  C   UNL     1     -22.698 -44.475  20.851  1.00  0.00     0.278 C 
ENDBRANCH  17  20
ENDBRANCH   8  12
BRANCH  10  22
ATOM     22  C   UNL     1     -23.536 -39.814  26.571  1.00  0.00     0.037 A 
ATOM     23  C   UNL     1     -23.731 -40.177  27.909  1.00  0.00     0.052 A 
ATOM     24  C   UNL     1     -24.150 -38.652  26.086  1.00  0.00     0.132 A 
ATOM     25  C   UNL     1     -24.523 -39.377  28.730  1.00  0.00     0.124 A 
ATOM     26  C   UNL     1     -24.942 -37.860  26.917  1.00  0.00     0.043 A 
ATOM     27  C   UNL     1     -25.130 -38.223  28.249  1.00  0.00     0.042 A 
ATOM     28  F   UNL     1     -24.018 -38.268  24.809  1.00  0.00    -0.206 F 
ATOM     29  F   UNL     1     -24.702 -39.729  30.010  1.00  0.00    -0.207 F 
ENDBRANCH  10  22
ENDBRANCH   1   7
BRANCH   4  30
ATOM     30  S   UNL     1     -15.139 -42.820  24.379  1.00  0.00     0.238 S 
ATOM     31  O   UNL     1     -14.941 -43.998  23.567  1.00  0.00    -0.207 OA
ATOM     32  O   UNL     1     -14.554 -42.680  25.692  1.00  0.00    -0.207 OA
BRANCH  30  33
ATOM     33  N   UNL     1     -14.550 -41.533  23.477  1.00  0.00    -0.225 NA
ATOM     34  H   UNL     1     -13.763 -41.843  22.906  1.00  0.00     0.137 HD
ATOM     35  H   UNL     1     -15.308 -41.108  22.944  1.00  0.00     0.137 HD
ENDBRANCH  30  33
ENDBRANCH   4  30
TORSDOF 7
ENDMDL
MODEL 7
REMARK VINA RESULT:    -8.459      3.114      5.885
REMARK INTER + INTRA:         -13.133
REMARK INTER:                 -11.859
REMARK INTRA:                  -1.274
REMARK UNBOUND:                -1.459
REMARK SMILES COc1ccc(OC)c([C@@H]2CC(c3cc(F)ccc3F)=NN2c2ccc(S(N)(=O)=O)cc2)c1
REMARK SMILES IDX 23 1 24 2 25 3 26 4 31 5 32 6 22 7 10 8 11 9 12 10 21 11
REMARK SMILES IDX 9 12 3 13 4 14 33 15 5 16 6 17 2 18 1 19 7 20 8 21 13 22
REMARK SMILES IDX 14 23 19 24 15 25 18 26 17 27 20 28 16 29 27 30 29 31 30 32
REMARK SMILES IDX 28 33
REMARK H PARENT 28 34 28 35
ROOT
ATOM      1  C   UNL     1     -19.384 -42.232  25.945  1.00  0.00     0.060 A 
ATOM      2  C   UNL     1     -18.619 -42.254  27.129  1.00  0.00     0.029 A 
ATOM      3  C   UNL     1     -17.245 -42.517  27.123  1.00  0.00     0.024 A 
ATOM      4  C   UNL     1     -16.605 -42.776  25.915  1.00  0.00     0.082 A 
ATOM      5  C   UNL     1     -17.325 -42.756  24.722  1.00  0.00     0.024 A 
ATOM      6  C   UNL     1     -18.700 -42.491  24.747  1.00  0.00     0.029 A 
ENDROOT
BRANCH   1   7
ATOM      7  N   UNL     1     -20.750 -41.960  25.992  1.00  0.00    -0.257 N 
ATOM      8  C   UNL     1     -21.802 -42.592  25.190  1.00  0.00     0.148 C 
ATOM      9  C   UNL     1     -23.083 -42.173  25.917  1.00  0.00     0.091 C 
ATOM     10  C   UNL     1     -22.535 -41.138  26.863  1.00  0.00     0.074 C 
ATOM     11  N   UNL     1     -21.241 -41.084  26.920  1.00  0.00    -0.176 NA
BRANCH   8  12
ATOM     12  C   UNL     1     -21.785 -42.181  23.725  1.00  0.00     0.023 A 
ATOM     13  C   UNL     1     -21.546 -40.364  22.088  1.00  0.00     0.119 A 
ATOM     14  C   UNL     1     -21.710 -41.273  21.047  1.00  0.00     0.050 A 
ATOM     15  C   UNL     1     -21.575 -40.822  23.410  1.00  0.00     0.056 A 
ATOM     16  C   UNL     1     -21.905 -42.625  21.331  1.00  0.00     0.050 A 
ATOM     17  C   UNL     1     -21.956 -43.072  22.656  1.00  0.00     0.124 A 
BRANCH  13  18
ATOM     18  O   UNL     1     -21.340 -39.018  21.958  1.00  0.00    -0.497 OA
ATOM     19  C   UNL     1     -20.764 -38.572  20.736  1.00  0.00     0.278 C 
ENDBRANCH  13  18
BRANCH  17  20
ATOM     20  O   UNL     1     -22.081 -44.416  22.887  1.00  0.00    -0.496 OA
ATOM     21  C   UNL     1     -22.784 -45.050  21.814  1.00  0.00     0.278 C 
ENDBRANCH  17  20
ENDBRANCH   8  12
BRANCH  10  22
ATOM     22  C   UNL     1     -23.429 -40.287  27.677  1.00  0.00     0.037 A 
ATOM     23  C   UNL     1     -23.399 -38.893  27.543  1.00  0.00     0.052 A 
ATOM     24  C   UNL     1     -24.316 -40.861  28.596  1.00  0.00     0.132 A 
ATOM     25  C   UNL     1     -24.251 -38.109  28.317  1.00  0.00     0.124 A 
ATOM     26  C   UNL     1     -25.163 -40.065  29.368  1.00  0.00     0.043 A 
ATOM     27  C   UNL     1     -25.133 -38.679  29.228  1.00  0.00     0.042 A 
ATOM     28  F   UNL     1     -24.373 -42.186  28.785  1.00  0.00    -0.206 F 
ATOM     29  F   UNL     1     -24.218 -36.777  28.180  1.00  0.00    -0.207 F 
ENDBRANCH  10  22
ENDBRANCH   1   7
BRANCH   4  30
ATOM     30  S   UNL     1     -14.865 -43.078  25.891  1.00  0.00     0.238 S 
ATOM     31  O   UNL     1     -14.616 -44.471  26.181  1.00  0.00    -0.207 OA
ATOM     32  O   UNL     1     -14.184 -42.011  26.588  1.00  0.00    -0.207 OA
BRANCH  30  33
ATOM     33  N   UNL     1     -14.496 -42.871  24.267  1.00  0.00    -0.225 NA
ATOM     34  H   UNL     1     -15.112 -42.167  23.860  1.00  0.00     0.137 HD
ATOM     35  H   UNL     1     -13.503 -42.665  24.162  1.00  0.00     0.137 HD
ENDBRANCH  30  33
ENDBRANCH   4  30
TORSDOF 7
ENDMDL
MODEL 8
REMARK VINA RESULT:    -7.952      4.676      8.533
REMARK INTER + INTRA:         -12.433
REMARK INTER:                 -11.338
REMARK INTRA:                  -1.095
REMARK UNBOUND:                -1.459
REMARK SMILES COc1ccc(OC)c([C@@H]2CC(c3cc(F)ccc3F)=NN2c2ccc(S(N)(=O)=O)cc2)c1
REMARK SMILES IDX 23 1 24 2 25 3 26 4 31 5 32 6 22 7 10 8 11 9 12 10 21 11
REMARK SMILES IDX 9 12 3 13 4 14 33 15 5 16 6 17 2 18 1 19 7 20 8 21 13 22
REMARK SMILES IDX 14 23 19 24 15 25 18 26 17 27 20 28 16 29 27 30 29 31 30 32
REMARK SMILES IDX 28 33
REMARK H PARENT 28 34 28 35
ROOT
ATOM      1  C   UNL     1     -22.236 -43.265  21.855  1.00  0.00     0.060 A 
ATOM      2  C   UNL     1     -23.595 -43.560  22.085  1.00  0.00     0.029 A 
ATOM      3  C   UNL     1     -24.329 -44.400  21.241  1.00  0.00     0.024 A 
ATOM      4  C   UNL     1     -23.708 -44.960  20.128  1.00  0.00     0.082 A 
ATOM      5  C   UNL     1     -22.364 -44.698  19.870  1.00  0.00     0.024 A 
ATOM      6  C   UNL     1     -21.645 -43.855  20.727  1.00  0.00     0.029 A 
ENDROOT
BRANCH   1   7
ATOM      7  N   UNL     1     -21.538 -42.429  22.724  1.00  0.00    -0.257 N 
ATOM      8  C   UNL     1     -21.759 -40.995  22.936  1.00  0.00     0.148 C 
ATOM      9  C   UNL     1     -20.980 -40.715  24.222  1.00  0.00     0.091 C 
ATOM     10  C   UNL     1     -20.219 -42.007  24.368  1.00  0.00     0.074 C 
ATOM     11  N   UNL     1     -20.589 -42.951  23.560  1.00  0.00    -0.176 NA
BRANCH   8  12
ATOM     12  C   UNL     1     -21.315 -40.129  21.767  1.00  0.00     0.023 A 
ATOM     13  C   UNL     1     -21.856 -38.285  20.235  1.00  0.00     0.119 A 
ATOM     14  C   UNL     1     -20.619 -38.429  19.615  1.00  0.00     0.050 A 
ATOM     15  C   UNL     1     -22.190 -39.123  21.305  1.00  0.00     0.056 A 
ATOM     16  C   UNL     1     -19.729 -39.408  20.062  1.00  0.00     0.050 A 
ATOM     17  C   UNL     1     -20.079 -40.257  21.117  1.00  0.00     0.124 A 
BRANCH  13  18
ATOM     18  O   UNL     1     -22.819 -37.369  19.909  1.00  0.00    -0.497 OA
ATOM     19  C   UNL     1     -24.170 -37.750  20.138  1.00  0.00     0.278 C 
ENDBRANCH  13  18
BRANCH  17  20
ATOM     20  O   UNL     1     -19.150 -41.156  21.566  1.00  0.00    -0.496 OA
ATOM     21  C   UNL     1     -17.925 -40.495  21.895  1.00  0.00     0.278 C 
ENDBRANCH  17  20
ENDBRANCH   8  12
BRANCH  10  22
ATOM     22  C   UNL     1     -19.158 -42.167  25.386  1.00  0.00     0.037 A 
ATOM     23  C   UNL     1     -17.865 -42.552  25.011  1.00  0.00     0.052 A 
ATOM     24  C   UNL     1     -19.432 -41.939  26.741  1.00  0.00     0.132 A 
ATOM     25  C   UNL     1     -16.880 -42.696  25.985  1.00  0.00     0.124 A 
ATOM     26  C   UNL     1     -18.437 -42.088  27.708  1.00  0.00     0.043 A 
ATOM     27  C   UNL     1     -17.151 -42.468  27.329  1.00  0.00     0.042 A 
ATOM     28  F   UNL     1     -20.655 -41.591  27.162  1.00  0.00    -0.206 F 
ATOM     29  F   UNL     1     -15.646 -43.062  25.616  1.00  0.00    -0.207 F 
ENDBRANCH  10  22
ENDBRANCH   1   7
BRANCH   4  30
ATOM     30  S   UNL     1     -24.615 -46.046  19.072  1.00  0.00     0.238 S 
ATOM     31  O   UNL     1     -25.343 -45.269  18.096  1.00  0.00    -0.207 OA
ATOM     32  O   UNL     1     -25.248 -47.072  19.869  1.00  0.00    -0.207 OA
BRANCH  30  33
ATOM     33  N   UNL     1     -23.388 -46.817  18.226  1.00  0.00    -0.225 NA
ATOM     34  H   UNL     1     -23.787 -47.508  17.591  1.00  0.00     0.137 HD
ATOM     35  H   UNL     1     -22.795 -46.125  17.769  1.00  0.00     0.137 HD
ENDBRANCH  30  33
ENDBRANCH   4  30
TORSDOF 7
ENDMDL
MODEL 9
REMARK VINA RESULT:    -7.839      3.175      5.433
REMARK INTER + INTRA:         -12.277
REMARK INTER:                 -11.445
REMARK INTRA:                  -0.831
REMARK UNBOUND:                -1.459
REMARK SMILES COc1ccc(OC)c([C@@H]2CC(c3cc(F)ccc3F)=NN2c2ccc(S(N)(=O)=O)cc2)c1
REMARK SMILES IDX 23 1 24 2 25 3 26 4 31 5 32 6 22 7 10 8 11 9 12 10 21 11
REMARK SMILES IDX 9 12 3 13 4 14 33 15 5 16 6 17 2 18 1 19 7 20 8 21 13 22
REMARK SMILES IDX 14 23 19 24 15 25 18 26 17 27 20 28 16 29 27 30 29 31 30 32
REMARK SMILES IDX 28 33
REMARK H PARENT 28 34 28 35
ROOT
ATOM      1  C   UNL     1     -19.522 -42.198  25.866  1.00  0.00     0.060 A 
ATOM      2  C   UNL     1     -18.712 -42.229  27.019  1.00  0.00     0.029 A 
ATOM      3  C   UNL     1     -17.333 -42.454  26.955  1.00  0.00     0.024 A 
ATOM      4  C   UNL     1     -16.733 -42.667  25.717  1.00  0.00     0.082 A 
ATOM      5  C   UNL     1     -17.499 -42.637  24.554  1.00  0.00     0.024 A 
ATOM      6  C   UNL     1     -18.879 -42.409  24.637  1.00  0.00     0.029 A 
ENDROOT
BRANCH   1   7
ATOM      7  N   UNL     1     -20.892 -41.963  25.972  1.00  0.00    -0.257 N 
ATOM      8  C   UNL     1     -21.967 -42.714  25.316  1.00  0.00     0.148 C 
ATOM      9  C   UNL     1     -23.215 -42.254  26.074  1.00  0.00     0.091 C 
ATOM     10  C   UNL     1     -22.649 -41.102  26.860  1.00  0.00     0.074 C 
ATOM     11  N   UNL     1     -21.357 -41.002  26.826  1.00  0.00    -0.176 NA
BRANCH   8  12
ATOM     12  C   UNL     1     -22.056 -42.473  23.817  1.00  0.00     0.023 A 
ATOM     13  C   UNL     1     -22.053 -43.447  21.560  1.00  0.00     0.119 A 
ATOM     14  C   UNL     1     -22.222 -42.181  21.008  1.00  0.00     0.050 A 
ATOM     15  C   UNL     1     -21.981 -43.584  22.951  1.00  0.00     0.056 A 
ATOM     16  C   UNL     1     -22.313 -41.066  21.842  1.00  0.00     0.050 A 
ATOM     17  C   UNL     1     -22.217 -41.209  23.230  1.00  0.00     0.124 A 
BRANCH  13  18
ATOM     18  O   UNL     1     -21.957 -44.622  20.867  1.00  0.00    -0.497 OA
ATOM     19  C   UNL     1     -22.467 -44.628  19.540  1.00  0.00     0.278 C 
ENDBRANCH  13  18
BRANCH  17  20
ATOM     20  O   UNL     1     -22.379 -40.098  24.014  1.00  0.00    -0.496 OA
ATOM     21  C   UNL     1     -23.551 -39.374  23.627  1.00  0.00     0.278 C 
ENDBRANCH  17  20
ENDBRANCH   8  12
BRANCH  10  22
ATOM     22  C   UNL     1     -23.523 -40.190  27.630  1.00  0.00     0.037 A 
ATOM     23  C   UNL     1     -23.548 -38.820  27.343  1.00  0.00     0.052 A 
ATOM     24  C   UNL     1     -24.334 -40.683  28.659  1.00  0.00     0.132 A 
ATOM     25  C   UNL     1     -24.379 -37.978  28.079  1.00  0.00     0.124 A 
ATOM     26  C   UNL     1     -25.162 -39.830  29.391  1.00  0.00     0.043 A 
ATOM     27  C   UNL     1     -25.187 -38.468  29.099  1.00  0.00     0.042 A 
ATOM     28  F   UNL     1     -24.335 -41.981  28.994  1.00  0.00    -0.206 F 
ATOM     29  F   UNL     1     -24.400 -36.670  27.795  1.00  0.00    -0.207 F 
ENDBRANCH  10  22
ENDBRANCH   1   7
BRANCH   4  30
ATOM     30  S   UNL     1     -14.988 -42.922  25.621  1.00  0.00     0.238 S 
ATOM     31  O   UNL     1     -14.718 -44.332  25.469  1.00  0.00    -0.207 OA
ATOM     32  O   UNL     1     -14.330 -42.113  26.620  1.00  0.00    -0.207 OA
BRANCH  30  33
ATOM     33  N   UNL     1     -14.614 -42.218  24.144  1.00  0.00    -0.225 NA
ATOM     34  H   UNL     1     -15.102 -42.707  23.394  1.00  0.00     0.137 HD
ATOM     35  H   UNL     1     -14.804 -41.216  24.180  1.00  0.00     0.137 HD
ENDBRANCH  30  33
ENDBRANCH   4  30
TORSDOF 7
ENDMDL
