MODEL 1
REMARK VINA RESULT:   -11.990      0.000      0.000
REMARK INTER + INTRA:         -17.652
REMARK INTER:                 -16.897
REMARK INTRA:                  -0.755
REMARK UNBOUND:                -0.755
REMARK SMILES O=C(Nc1cncc(OC[C@H]2CC[N@H+](Cc3ccccc3)CC2)c1)c1ccnc2[nH]ccc12
REMARK SMILES IDX 9 1 10 2 11 3 13 4 14 5 12 6 22 7 23 8 15 10 16 11 17 12
REMARK SMILES IDX 21 13 18 14 20 15 19 16 8 17 7 18 24 19 6 20 4 21 5 22 3 23
REMARK SMILES IDX 2 24 1 26 25 27 26 28 33 29 27 30 32 31 29 32 28 33 31 34
REMARK SMILES IDX 30 35
REMARK H PARENT 14 9 3 25 30 36
ROOT
ATOM      1  O   UNL     1     -14.233 -43.342  27.175  1.00  0.00    -0.492 OA
ENDROOT
BRANCH   1   2
ATOM      2  C   UNL     1     -14.264 -42.876  25.825  1.00  0.00     0.233 C 
BRANCH   2   3
ATOM      3  C   UNL     1     -15.637 -43.133  25.178  1.00  0.00     0.038 C 
ATOM      4  C   UNL     1     -17.048 -42.848  23.095  1.00  0.00     0.262 C 
ATOM      5  N   UNL     1     -18.110 -42.183  23.941  1.00  0.00    -0.331 N 
ATOM      6  C   UNL     1     -15.680 -42.630  23.728  1.00  0.00     0.069 C 
ATOM      7  C   UNL     1     -18.121 -42.701  25.357  1.00  0.00     0.262 C 
ATOM      8  C   UNL     1     -16.757 -42.481  25.996  1.00  0.00     0.069 C 
ATOM      9  H   UNL     1     -17.888 -41.180  23.971  1.00  0.00     0.348 HD
BRANCH   5  10
ATOM     10  C   UNL     1     -19.490 -42.277  23.315  1.00  0.00     0.299 C 
BRANCH  10  11
ATOM     11  C   UNL     1     -19.869 -41.046  22.538  1.00  0.00     0.006 A 
ATOM     12  C   UNL     1     -20.926 -40.229  22.968  1.00  0.00     0.009 A 
ATOM     13  C   UNL     1     -19.183 -40.709  21.361  1.00  0.00     0.009 A 
ATOM     14  C   UNL     1     -21.293 -39.103  22.229  1.00  0.00     0.001 A 
ATOM     15  C   UNL     1     -19.555 -39.582  20.626  1.00  0.00     0.001 A 
ATOM     16  C   UNL     1     -20.610 -38.782  21.059  1.00  0.00     0.000 A 
ENDBRANCH  10  11
ENDBRANCH   5  10
ENDBRANCH   2   3
ENDBRANCH   1   2
BRANCH   1  17
ATOM     17  C   UNL     1     -13.356 -44.334  27.504  1.00  0.00     0.139 A 
ATOM     18  C   UNL     1     -13.317 -45.624  26.995  1.00  0.00     0.157 A 
ATOM     19  C   UNL     1     -12.386 -43.988  28.447  1.00  0.00     0.075 A 
ATOM     20  N   UNL     1     -12.386 -46.542  27.333  1.00  0.00    -0.259 NA
ATOM     21  C   UNL     1     -11.415 -44.912  28.844  1.00  0.00     0.063 A 
ATOM     22  C   UNL     1     -11.458 -46.170  28.253  1.00  0.00     0.137 A 
BRANCH  21  23
ATOM     23  N   UNL     1     -10.468 -44.498  29.806  1.00  0.00    -0.320 N 
ATOM     24  C   UNL     1     -10.559 -44.670  31.175  1.00  0.00     0.256 C 
ATOM     25  H   UNL     1      -9.677 -43.969  29.463  1.00  0.00     0.170 HD
ATOM     26  O   UNL     1     -11.497 -45.174  31.780  1.00  0.00    -0.269 OA
BRANCH  24  27
ATOM     27  C   UNL     1      -9.426 -44.131  31.957  1.00  0.00     0.052 A 
ATOM     28  C   UNL     1      -8.128 -44.529  31.620  1.00  0.00     0.035 A 
ATOM     29  C   UNL     1      -9.594 -43.217  33.016  1.00  0.00     0.031 A 
ATOM     30  C   UNL     1      -7.068 -44.045  32.368  1.00  0.00     0.114 A 
ATOM     31  C   UNL     1     -10.667 -42.508  33.635  1.00  0.00     0.030 A 
ATOM     32  C   UNL     1      -8.436 -42.820  33.676  1.00  0.00     0.138 A 
ATOM     33  N   UNL     1      -7.172 -43.198  33.416  1.00  0.00    -0.239 NA
ATOM     34  C   UNL     1     -10.138 -41.743  34.653  1.00  0.00     0.085 A 
ATOM     35  N   UNL     1      -8.782 -41.945  34.667  1.00  0.00    -0.346 N 
ATOM     36  H   UNL     1      -8.111 -41.508  35.286  1.00  0.00     0.167 HD
ENDBRANCH  24  27
ENDBRANCH  21  23
ENDBRANCH   1  17
TORSDOF 7
ENDMDL
MODEL 2
REMARK VINA RESULT:   -11.613      1.873      2.916
REMARK INTER + INTRA:         -17.120
REMARK INTER:                 -16.145
REMARK INTRA:                  -0.975
REMARK UNBOUND:                -0.755
REMARK SMILES O=C(Nc1cncc(OC[C@H]2CC[N@H+](Cc3ccccc3)CC2)c1)c1ccnc2[nH]ccc12
REMARK SMILES IDX 9 1 10 2 11 3 13 4 14 5 12 6 22 7 23 8 15 10 16 11 17 12
REMARK SMILES IDX 21 13 18 14 20 15 19 16 8 17 7 18 24 19 6 20 4 21 5 22 3 23
REMARK SMILES IDX 2 24 1 26 25 27 26 28 33 29 27 30 32 31 29 32 28 33 31 34
REMARK SMILES IDX 30 35
REMARK H PARENT 14 9 3 25 30 36
ROOT
ATOM      1  O   UNL     1     -14.298 -43.945  27.411  1.00  0.00    -0.492 OA
ENDROOT
BRANCH   1   2
ATOM      2  C   UNL     1     -14.156 -42.960  26.388  1.00  0.00     0.233 C 
BRANCH   2   3
ATOM      3  C   UNL     1     -15.528 -42.482  25.879  1.00  0.00     0.038 C 
ATOM      4  C   UNL     1     -18.006 -42.341  26.380  1.00  0.00     0.262 C 
ATOM      5  N   UNL     1     -18.282 -43.002  25.049  1.00  0.00    -0.331 N 
ATOM      6  C   UNL     1     -16.641 -42.780  26.894  1.00  0.00     0.069 C 
ATOM      7  C   UNL     1     -17.229 -42.680  24.020  1.00  0.00     0.262 C 
ATOM      8  C   UNL     1     -15.862 -43.120  24.527  1.00  0.00     0.069 C 
ATOM      9  H   UNL     1     -18.271 -44.018  25.208  1.00  0.00     0.348 HD
BRANCH   5  10
ATOM     10  C   UNL     1     -19.671 -42.687  24.525  1.00  0.00     0.299 C 
BRANCH  10  11
ATOM     11  C   UNL     1     -20.767 -43.310  25.346  1.00  0.00     0.006 A 
ATOM     12  C   UNL     1     -21.679 -42.505  26.045  1.00  0.00     0.009 A 
ATOM     13  C   UNL     1     -20.880 -44.706  25.439  1.00  0.00     0.009 A 
ATOM     14  C   UNL     1     -22.677 -43.087  26.828  1.00  0.00     0.001 A 
ATOM     15  C   UNL     1     -21.880 -45.283  26.223  1.00  0.00     0.001 A 
ATOM     16  C   UNL     1     -22.776 -44.473  26.919  1.00  0.00     0.000 A 
ENDBRANCH  10  11
ENDBRANCH   5  10
ENDBRANCH   2   3
ENDBRANCH   1   2
BRANCH   1  17
ATOM     17  C   UNL     1     -13.268 -44.812  27.632  1.00  0.00     0.139 A 
ATOM     18  C   UNL     1     -13.059 -46.042  27.024  1.00  0.00     0.157 A 
ATOM     19  C   UNL     1     -12.318 -44.388  28.564  1.00  0.00     0.075 A 
ATOM     20  N   UNL     1     -11.986 -46.827  27.257  1.00  0.00    -0.259 NA
ATOM     21  C   UNL     1     -11.201 -45.178  28.854  1.00  0.00     0.063 A 
ATOM     22  C   UNL     1     -11.083 -46.383  28.169  1.00  0.00     0.137 A 
BRANCH  21  23
ATOM     23  N   UNL     1     -10.283 -44.693  29.811  1.00  0.00    -0.320 N 
ATOM     24  C   UNL     1     -10.274 -44.987  31.161  1.00  0.00     0.256 C 
ATOM     25  H   UNL     1      -9.606 -44.016  29.484  1.00  0.00     0.170 HD
ATOM     26  O   UNL     1     -11.085 -45.685  31.756  1.00  0.00    -0.269 OA
BRANCH  24  27
ATOM     27  C   UNL     1      -9.202 -44.333  31.943  1.00  0.00     0.052 A 
ATOM     28  C   UNL     1      -7.874 -44.698  31.696  1.00  0.00     0.035 A 
ATOM     29  C   UNL     1      -9.457 -43.344  32.913  1.00  0.00     0.031 A 
ATOM     30  C   UNL     1      -6.871 -44.105  32.445  1.00  0.00     0.114 A 
ATOM     31  C   UNL     1     -10.586 -42.637  33.424  1.00  0.00     0.030 A 
ATOM     32  C   UNL     1      -8.348 -42.841  33.586  1.00  0.00     0.138 A 
ATOM     33  N   UNL     1      -7.058 -43.181  33.412  1.00  0.00    -0.239 NA
ATOM     34  C   UNL     1     -10.137 -41.767  34.396  1.00  0.00     0.085 A 
ATOM     35  N   UNL     1      -8.776 -41.904  34.484  1.00  0.00    -0.346 N 
ATOM     36  H   UNL     1      -8.154 -41.388  35.092  1.00  0.00     0.167 HD
ENDBRANCH  24  27
ENDBRANCH  21  23
ENDBRANCH   1  17
TORSDOF 7
ENDMDL
MODEL 3
REMARK VINA RESULT:   -11.506      2.943     11.711
REMARK INTER + INTRA:         -16.970
REMARK INTER:                 -16.372
REMARK INTRA:                  -0.598
REMARK UNBOUND:                -0.755
REMARK SMILES O=C(Nc1cncc(OC[C@H]2CC[N@H+](Cc3ccccc3)CC2)c1)c1ccnc2[nH]ccc12
REMARK SMILES IDX 9 1 10 2 11 3 13 4 14 5 12 6 22 7 23 8 15 10 16 11 17 12
REMARK SMILES IDX 21 13 18 14 20 15 19 16 8 17 7 18 24 19 6 20 4 21 5 22 3 23
REMARK SMILES IDX 2 24 1 26 25 27 26 28 33 29 27 30 32 31 29 32 28 33 31 34
REMARK SMILES IDX 30 35
REMARK H PARENT 14 9 3 25 30 36
ROOT
ATOM      1  O   UNL     1     -13.957 -43.869  26.626  1.00  0.00    -0.492 OA
ENDROOT
BRANCH   1   2
ATOM      2  C   UNL     1     -13.790 -45.282  26.520  1.00  0.00     0.233 C 
BRANCH   2   3
ATOM      3  C   UNL     1     -13.195 -45.872  27.812  1.00  0.00     0.038 C 
ATOM      4  C   UNL     1     -12.992 -45.614  30.322  1.00  0.00     0.262 C 
ATOM      5  N   UNL     1     -11.488 -45.673  30.176  1.00  0.00    -0.331 N 
ATOM      6  C   UNL     1     -13.607 -45.056  29.046  1.00  0.00     0.069 C 
ATOM      7  C   UNL     1     -11.060 -46.514  29.001  1.00  0.00     0.262 C 
ATOM      8  C   UNL     1     -11.669 -45.958  27.721  1.00  0.00     0.069 C 
ATOM      9  H   UNL     1     -11.163 -44.711  30.016  1.00  0.00     0.348 HD
BRANCH   5  10
ATOM     10  C   UNL     1     -10.802 -46.128  31.452  1.00  0.00     0.299 C 
BRANCH  10  11
ATOM     11  C   UNL     1      -9.538 -45.367  31.745  1.00  0.00     0.006 A 
ATOM     12  C   UNL     1      -8.283 -45.945  31.494  1.00  0.00     0.009 A 
ATOM     13  C   UNL     1      -9.595 -44.075  32.291  1.00  0.00     0.009 A 
ATOM     14  C   UNL     1      -7.113 -45.246  31.793  1.00  0.00     0.001 A 
ATOM     15  C   UNL     1      -8.421 -43.381  32.587  1.00  0.00     0.001 A 
ATOM     16  C   UNL     1      -7.182 -43.968  32.340  1.00  0.00     0.000 A 
ENDBRANCH  10  11
ENDBRANCH   5  10
ENDBRANCH   2   3
ENDBRANCH   1   2
BRANCH   1  17
ATOM     17  C   UNL     1     -14.678 -43.222  25.664  1.00  0.00     0.139 A 
ATOM     18  C   UNL     1     -14.204 -42.696  24.471  1.00  0.00     0.157 A 
ATOM     19  C   UNL     1     -16.045 -43.101  25.920  1.00  0.00     0.075 A 
ATOM     20  N   UNL     1     -14.987 -42.110  23.540  1.00  0.00    -0.259 NA
ATOM     21  C   UNL     1     -16.892 -42.482  24.995  1.00  0.00     0.063 A 
ATOM     22  C   UNL     1     -16.312 -42.010  23.823  1.00  0.00     0.137 A 
BRANCH  21  23
ATOM     23  N   UNL     1     -18.263 -42.387  25.320  1.00  0.00    -0.320 N 
ATOM     24  C   UNL     1     -18.795 -42.153  26.574  1.00  0.00     0.256 C 
ATOM     25  H   UNL     1     -18.918 -42.571  24.570  1.00  0.00     0.170 HD
ATOM     26  O   UNL     1     -18.165 -42.030  27.616  1.00  0.00    -0.269 OA
BRANCH  24  27
ATOM     27  C   UNL     1     -20.272 -42.111  26.636  1.00  0.00     0.052 A 
ATOM     28  C   UNL     1     -20.939 -41.043  26.025  1.00  0.00     0.035 A 
ATOM     29  C   UNL     1     -21.040 -43.110  27.266  1.00  0.00     0.031 A 
ATOM     30  C   UNL     1     -22.321 -40.989  26.105  1.00  0.00     0.114 A 
ATOM     31  C   UNL     1     -20.813 -44.357  27.921  1.00  0.00     0.030 A 
ATOM     32  C   UNL     1     -22.419 -42.918  27.266  1.00  0.00     0.138 A 
ATOM     33  N   UNL     1     -23.105 -41.896  26.727  1.00  0.00    -0.239 NA
ATOM     34  C   UNL     1     -22.035 -44.856  28.320  1.00  0.00     0.085 A 
ATOM     35  N   UNL     1     -23.000 -43.970  27.916  1.00  0.00    -0.346 N 
ATOM     36  H   UNL     1     -23.999 -44.065  28.044  1.00  0.00     0.167 HD
ENDBRANCH  24  27
ENDBRANCH  21  23
ENDBRANCH   1  17
TORSDOF 7
ENDMDL
MODEL 4
REMARK VINA RESULT:   -11.144      3.207     11.490
REMARK INTER + INTRA:         -16.459
REMARK INTER:                 -15.805
REMARK INTRA:                  -0.653
REMARK UNBOUND:                -0.755
REMARK SMILES O=C(Nc1cncc(OC[C@H]2CC[N@H+](Cc3ccccc3)CC2)c1)c1ccnc2[nH]ccc12
REMARK SMILES IDX 9 1 10 2 11 3 13 4 14 5 12 6 22 7 23 8 15 10 16 11 17 12
REMARK SMILES IDX 21 13 18 14 20 15 19 16 8 17 7 18 24 19 6 20 4 21 5 22 3 23
REMARK SMILES IDX 2 24 1 26 25 27 26 28 33 29 27 30 32 31 29 32 28 33 31 34
REMARK SMILES IDX 30 35
REMARK H PARENT 14 9 3 25 30 36
ROOT
ATOM      1  O   UNL     1     -14.307 -42.998  25.418  1.00  0.00    -0.492 OA
ENDROOT
BRANCH   1   2
ATOM      2  C   UNL     1     -14.199 -44.383  25.746  1.00  0.00     0.233 C 
BRANCH   2   3
ATOM      3  C   UNL     1     -13.594 -44.579  27.148  1.00  0.00     0.038 C 
ATOM      4  C   UNL     1     -12.400 -46.184  28.701  1.00  0.00     0.262 C 
ATOM      5  N   UNL     1     -13.484 -45.949  29.728  1.00  0.00    -0.331 N 
ATOM      6  C   UNL     1     -12.967 -45.972  27.303  1.00  0.00     0.069 C 
ATOM      7  C   UNL     1     -14.077 -44.567  29.629  1.00  0.00     0.262 C 
ATOM      8  C   UNL     1     -14.650 -44.352  28.235  1.00  0.00     0.069 C 
ATOM      9  H   UNL     1     -14.230 -46.631  29.540  1.00  0.00     0.348 HD
BRANCH   5  10
ATOM     10  C   UNL     1     -13.012 -46.240  31.141  1.00  0.00     0.299 C 
BRANCH  10  11
ATOM     11  C   UNL     1     -11.636 -45.703  31.426  1.00  0.00     0.006 A 
ATOM     12  C   UNL     1     -11.465 -44.385  31.878  1.00  0.00     0.009 A 
ATOM     13  C   UNL     1     -10.503 -46.506  31.224  1.00  0.00     0.009 A 
ATOM     14  C   UNL     1     -10.186 -43.881  32.115  1.00  0.00     0.001 A 
ATOM     15  C   UNL     1      -9.226 -45.996  31.463  1.00  0.00     0.001 A 
ATOM     16  C   UNL     1      -9.068 -44.685  31.905  1.00  0.00     0.000 A 
ENDBRANCH  10  11
ENDBRANCH   5  10
ENDBRANCH   2   3
ENDBRANCH   1   2
BRANCH   1  17
ATOM     17  C   UNL     1     -15.376 -42.584  24.677  1.00  0.00     0.139 A 
ATOM     18  C   UNL     1     -15.348 -41.891  23.476  1.00  0.00     0.157 A 
ATOM     19  C   UNL     1     -16.629 -42.919  25.194  1.00  0.00     0.075 A 
ATOM     20  N   UNL     1     -16.449 -41.555  22.771  1.00  0.00    -0.259 NA
ATOM     21  C   UNL     1     -17.799 -42.573  24.510  1.00  0.00     0.063 A 
ATOM     22  C   UNL     1     -17.650 -41.897  23.304  1.00  0.00     0.137 A 
BRANCH  21  23
ATOM     23  N   UNL     1     -19.033 -42.937  25.092  1.00  0.00    -0.320 N 
ATOM     24  C   UNL     1     -19.547 -42.468  26.287  1.00  0.00     0.256 C 
ATOM     25  H   UNL     1     -19.560 -43.658  24.618  1.00  0.00     0.170 HD
ATOM     26  O   UNL     1     -18.998 -41.689  27.055  1.00  0.00    -0.269 OA
BRANCH  24  27
ATOM     27  C   UNL     1     -20.863 -43.023  26.670  1.00  0.00     0.052 A 
ATOM     28  C   UNL     1     -20.983 -44.407  26.841  1.00  0.00     0.035 A 
ATOM     29  C   UNL     1     -21.998 -42.219  26.891  1.00  0.00     0.031 A 
ATOM     30  C   UNL     1     -22.221 -44.931  27.175  1.00  0.00     0.114 A 
ATOM     31  C   UNL     1     -22.316 -40.827  26.908  1.00  0.00     0.030 A 
ATOM     32  C   UNL     1     -23.173 -42.888  27.220  1.00  0.00     0.138 A 
ATOM     33  N   UNL     1     -23.350 -44.213  27.361  1.00  0.00    -0.239 NA
ATOM     34  C   UNL     1     -23.655 -40.702  27.208  1.00  0.00     0.085 A 
ATOM     35  N   UNL     1     -24.163 -41.962  27.393  1.00  0.00    -0.346 N 
ATOM     36  H   UNL     1     -25.113 -42.201  27.645  1.00  0.00     0.167 HD
ENDBRANCH  24  27
ENDBRANCH  21  23
ENDBRANCH   1  17
TORSDOF 7
ENDMDL
MODEL 5
REMARK VINA RESULT:   -11.086      2.331     12.422
REMARK INTER + INTRA:         -16.378
REMARK INTER:                 -15.845
REMARK INTRA:                  -0.533
REMARK UNBOUND:                -0.755
REMARK SMILES O=C(Nc1cncc(OC[C@H]2CC[N@H+](Cc3ccccc3)CC2)c1)c1ccnc2[nH]ccc12
REMARK SMILES IDX 9 1 10 2 11 3 13 4 14 5 12 6 22 7 23 8 15 10 16 11 17 12
REMARK SMILES IDX 21 13 18 14 20 15 19 16 8 17 7 18 24 19 6 20 4 21 5 22 3 23
REMARK SMILES IDX 2 24 1 26 25 27 26 28 33 29 27 30 32 31 29 32 28 33 31 34
REMARK SMILES IDX 30 35
REMARK H PARENT 14 9 3 25 30 36
ROOT
ATOM      1  O   UNL     1     -14.827 -44.220  26.552  1.00  0.00    -0.492 OA
ENDROOT
BRANCH   1   2
ATOM      2  C   UNL     1     -13.808 -45.204  26.374  1.00  0.00     0.233 C 
BRANCH   2   3
ATOM      3  C   UNL     1     -13.311 -45.744  27.727  1.00  0.00     0.038 C 
ATOM      4  C   UNL     1     -13.105 -45.284  30.208  1.00  0.00     0.262 C 
ATOM      5  N   UNL     1     -11.621 -45.551  30.104  1.00  0.00    -0.331 N 
ATOM      6  C   UNL     1     -13.627 -44.771  28.872  1.00  0.00     0.069 C 
ATOM      7  C   UNL     1     -11.293 -46.545  29.019  1.00  0.00     0.262 C 
ATOM      8  C   UNL     1     -11.808 -46.034  27.680  1.00  0.00     0.069 C 
ATOM      9  H   UNL     1     -11.170 -44.658  29.865  1.00  0.00     0.348 HD
BRANCH   5  10
ATOM     10  C   UNL     1     -11.015 -45.971  31.431  1.00  0.00     0.299 C 
BRANCH  10  11
ATOM     11  C   UNL     1      -9.761 -45.213  31.773  1.00  0.00     0.006 A 
ATOM     12  C   UNL     1      -8.499 -45.760  31.493  1.00  0.00     0.009 A 
ATOM     13  C   UNL     1      -9.837 -43.957  32.395  1.00  0.00     0.009 A 
ATOM     14  C   UNL     1      -7.338 -45.066  31.837  1.00  0.00     0.001 A 
ATOM     15  C   UNL     1      -8.673 -43.268  32.736  1.00  0.00     0.001 A 
ATOM     16  C   UNL     1      -7.425 -43.823  32.460  1.00  0.00     0.000 A 
ENDBRANCH  10  11
ENDBRANCH   5  10
ENDBRANCH   2   3
ENDBRANCH   1   2
BRANCH   1  17
ATOM     17  C   UNL     1     -15.111 -43.378  25.517  1.00  0.00     0.139 A 
ATOM     18  C   UNL     1     -14.207 -42.764  24.661  1.00  0.00     0.157 A 
ATOM     19  C   UNL     1     -16.468 -43.130  25.299  1.00  0.00     0.075 A 
ATOM     20  N   UNL     1     -14.564 -41.978  23.623  1.00  0.00    -0.259 NA
ATOM     21  C   UNL     1     -16.884 -42.305  24.250  1.00  0.00     0.063 A 
ATOM     22  C   UNL     1     -15.892 -41.760  23.442  1.00  0.00     0.137 A 
BRANCH  21  23
ATOM     23  N   UNL     1     -18.271 -42.092  24.091  1.00  0.00    -0.320 N 
ATOM     24  C   UNL     1     -19.170 -41.761  25.087  1.00  0.00     0.256 C 
ATOM     25  H   UNL     1     -18.650 -42.261  23.168  1.00  0.00     0.170 HD
ATOM     26  O   UNL     1     -18.917 -41.637  26.279  1.00  0.00    -0.269 OA
BRANCH  24  27
ATOM     27  C   UNL     1     -20.573 -41.605  24.647  1.00  0.00     0.052 A 
ATOM     28  C   UNL     1     -21.571 -42.318  25.320  1.00  0.00     0.035 A 
ATOM     29  C   UNL     1     -20.953 -40.754  23.590  1.00  0.00     0.031 A 
ATOM     30  C   UNL     1     -22.882 -42.193  24.892  1.00  0.00     0.114 A 
ATOM     31  C   UNL     1     -20.324 -39.823  22.710  1.00  0.00     0.030 A 
ATOM     32  C   UNL     1     -22.307 -40.733  23.273  1.00  0.00     0.138 A 
ATOM     33  N   UNL     1     -23.299 -41.423  23.863  1.00  0.00    -0.239 NA
ATOM     34  C   UNL     1     -21.295 -39.302  21.881  1.00  0.00     0.085 A 
ATOM     35  N   UNL     1     -22.494 -39.866  22.234  1.00  0.00    -0.346 N 
ATOM     36  H   UNL     1     -23.398 -39.671  21.824  1.00  0.00     0.167 HD
ENDBRANCH  24  27
ENDBRANCH  21  23
ENDBRANCH   1  17
TORSDOF 7
ENDMDL
MODEL 6
REMARK VINA RESULT:   -10.801      1.215      2.354
REMARK INTER + INTRA:         -15.976
REMARK INTER:                 -15.315
REMARK INTRA:                  -0.660
REMARK UNBOUND:                -0.755
REMARK SMILES O=C(Nc1cncc(OC[C@H]2CC[N@H+](Cc3ccccc3)CC2)c1)c1ccnc2[nH]ccc12
REMARK SMILES IDX 9 1 10 2 11 3 13 4 14 5 12 6 22 7 23 8 15 10 16 11 17 12
REMARK SMILES IDX 21 13 18 14 20 15 19 16 8 17 7 18 24 19 6 20 4 21 5 22 3 23
REMARK SMILES IDX 2 24 1 26 25 27 26 28 33 29 27 30 32 31 29 32 28 33 31 34
REMARK SMILES IDX 30 35
REMARK H PARENT 14 9 3 25 30 36
ROOT
ATOM      1  O   UNL     1     -14.573 -44.206  26.727  1.00  0.00    -0.492 OA
ENDROOT
BRANCH   1   2
ATOM      2  C   UNL     1     -14.303 -43.210  25.739  1.00  0.00     0.233 C 
BRANCH   2   3
ATOM      3  C   UNL     1     -15.466 -43.088  24.739  1.00  0.00     0.038 C 
ATOM      4  C   UNL     1     -16.444 -41.739  22.832  1.00  0.00     0.262 C 
ATOM      5  N   UNL     1     -17.737 -41.636  23.609  1.00  0.00    -0.331 N 
ATOM      6  C   UNL     1     -15.278 -41.886  23.801  1.00  0.00     0.069 C 
ATOM      7  C   UNL     1     -17.968 -42.831  24.497  1.00  0.00     0.262 C 
ATOM      8  C   UNL     1     -16.807 -42.980  25.471  1.00  0.00     0.069 C 
ATOM      9  H   UNL     1     -17.665 -40.803  24.207  1.00  0.00     0.348 HD
BRANCH   5  10
ATOM     10  C   UNL     1     -18.933 -41.387  22.707  1.00  0.00     0.299 C 
BRANCH  10  11
ATOM     11  C   UNL     1     -20.250 -41.563  23.414  1.00  0.00     0.006 A 
ATOM     12  C   UNL     1     -21.228 -42.426  22.895  1.00  0.00     0.009 A 
ATOM     13  C   UNL     1     -20.527 -40.852  24.592  1.00  0.00     0.009 A 
ATOM     14  C   UNL     1     -22.458 -42.566  23.538  1.00  0.00     0.001 A 
ATOM     15  C   UNL     1     -21.759 -40.996  25.230  1.00  0.00     0.001 A 
ATOM     16  C   UNL     1     -22.724 -41.851  24.702  1.00  0.00     0.000 A 
ENDBRANCH  10  11
ENDBRANCH   5  10
ENDBRANCH   2   3
ENDBRANCH   1   2
BRANCH   1  17
ATOM     17  C   UNL     1     -13.525 -44.899  27.260  1.00  0.00     0.139 A 
ATOM     18  C   UNL     1     -13.006 -46.108  26.820  1.00  0.00     0.157 A 
ATOM     19  C   UNL     1     -12.907 -44.299  28.360  1.00  0.00     0.075 A 
ATOM     20  N   UNL     1     -11.932 -46.714  27.369  1.00  0.00    -0.259 NA
ATOM     21  C   UNL     1     -11.805 -44.900  28.975  1.00  0.00     0.063 A 
ATOM     22  C   UNL     1     -11.357 -46.102  28.437  1.00  0.00     0.137 A 
BRANCH  21  23
ATOM     23  N   UNL     1     -11.233 -44.244  30.086  1.00  0.00    -0.320 N 
ATOM     24  C   UNL     1     -11.469 -44.527  31.418  1.00  0.00     0.256 C 
ATOM     25  H   UNL     1     -10.641 -43.448  29.885  1.00  0.00     0.170 HD
ATOM     26  O   UNL     1     -12.246 -45.368  31.852  1.00  0.00    -0.269 OA
BRANCH  24  27
ATOM     27  C   UNL     1     -10.743 -43.675  32.385  1.00  0.00     0.052 A 
ATOM     28  C   UNL     1     -11.479 -42.816  33.207  1.00  0.00     0.035 A 
ATOM     29  C   UNL     1      -9.342 -43.705  32.528  1.00  0.00     0.031 A 
ATOM     30  C   UNL     1     -10.798 -41.998  34.095  1.00  0.00     0.114 A 
ATOM     31  C   UNL     1      -8.243 -44.439  31.988  1.00  0.00     0.030 A 
ATOM     32  C   UNL     1      -8.799 -42.826  33.461  1.00  0.00     0.138 A 
ATOM     33  N   UNL     1      -9.457 -41.957  34.249  1.00  0.00    -0.239 NA
ATOM     34  C   UNL     1      -7.088 -43.966  32.574  1.00  0.00     0.085 A 
ATOM     35  N   UNL     1      -7.442 -42.986  33.465  1.00  0.00    -0.346 N 
ATOM     36  H   UNL     1      -6.820 -42.461  34.066  1.00  0.00     0.167 HD
ENDBRANCH  24  27
ENDBRANCH  21  23
ENDBRANCH   1  17
TORSDOF 7
ENDMDL
MODEL 7
REMARK VINA RESULT:   -10.690      2.594     12.363
REMARK INTER + INTRA:         -15.819
REMARK INTER:                 -14.790
REMARK INTRA:                  -1.029
REMARK UNBOUND:                -0.755
REMARK SMILES O=C(Nc1cncc(OC[C@H]2CC[N@H+](Cc3ccccc3)CC2)c1)c1ccnc2[nH]ccc12
REMARK SMILES IDX 9 1 10 2 11 3 13 4 14 5 12 6 22 7 23 8 15 10 16 11 17 12
REMARK SMILES IDX 21 13 18 14 20 15 19 16 8 17 7 18 24 19 6 20 4 21 5 22 3 23
REMARK SMILES IDX 2 24 1 26 25 27 26 28 33 29 27 30 32 31 29 32 28 33 31 34
REMARK SMILES IDX 30 35
REMARK H PARENT 14 9 3 25 30 36
ROOT
ATOM      1  O   UNL     1     -14.205 -42.805  26.576  1.00  0.00    -0.492 OA
ENDROOT
BRANCH   1   2
ATOM      2  C   UNL     1     -14.801 -43.713  27.503  1.00  0.00     0.233 C 
BRANCH   2   3
ATOM      3  C   UNL     1     -13.763 -44.703  28.060  1.00  0.00     0.038 C 
ATOM      4  C   UNL     1     -12.992 -45.991  30.099  1.00  0.00     0.262 C 
ATOM      5  N   UNL     1     -11.615 -45.395  29.917  1.00  0.00    -0.331 N 
ATOM      6  C   UNL     1     -14.038 -45.039  29.532  1.00  0.00     0.069 C 
ATOM      7  C   UNL     1     -11.303 -45.106  28.472  1.00  0.00     0.262 C 
ATOM      8  C   UNL     1     -12.343 -44.151  27.901  1.00  0.00     0.069 C 
ATOM      9  H   UNL     1     -11.601 -44.505  30.431  1.00  0.00     0.348 HD
BRANCH   5  10
ATOM     10  C   UNL     1     -10.530 -46.248  30.550  1.00  0.00     0.299 C 
BRANCH  10  11
ATOM     11  C   UNL     1      -9.469 -45.435  31.242  1.00  0.00     0.006 A 
ATOM     12  C   UNL     1      -9.808 -44.259  31.929  1.00  0.00     0.009 A 
ATOM     13  C   UNL     1      -8.124 -45.831  31.193  1.00  0.00     0.009 A 
ATOM     14  C   UNL     1      -8.818 -43.492  32.546  1.00  0.00     0.001 A 
ATOM     15  C   UNL     1      -7.138 -45.061  31.811  1.00  0.00     0.001 A 
ATOM     16  C   UNL     1      -7.485 -43.892  32.485  1.00  0.00     0.000 A 
ENDBRANCH  10  11
ENDBRANCH   5  10
ENDBRANCH   2   3
ENDBRANCH   1   2
BRANCH   1  17
ATOM     17  C   UNL     1     -14.876 -42.512  25.424  1.00  0.00     0.139 A 
ATOM     18  C   UNL     1     -14.378 -41.866  24.302  1.00  0.00     0.157 A 
ATOM     19  C   UNL     1     -16.207 -42.932  25.383  1.00  0.00     0.075 A 
ATOM     20  N   UNL     1     -15.089 -41.653  23.174  1.00  0.00    -0.259 NA
ATOM     21  C   UNL     1     -16.990 -42.714  24.244  1.00  0.00     0.063 A 
ATOM     22  C   UNL     1     -16.380 -42.075  23.170  1.00  0.00     0.137 A 
BRANCH  21  23
ATOM     23  N   UNL     1     -18.329 -43.159  24.272  1.00  0.00    -0.320 N 
ATOM     24  C   UNL     1     -19.364 -42.602  25.000  1.00  0.00     0.256 C 
ATOM     25  H   UNL     1     -18.535 -44.006  23.757  1.00  0.00     0.170 HD
ATOM     26  O   UNL     1     -19.279 -41.655  25.771  1.00  0.00    -0.269 OA
BRANCH  24  27
ATOM     27  C   UNL     1     -20.674 -43.274  24.853  1.00  0.00     0.052 A 
ATOM     28  C   UNL     1     -21.031 -44.257  25.782  1.00  0.00     0.035 A 
ATOM     29  C   UNL     1     -21.587 -42.954  23.830  1.00  0.00     0.031 A 
ATOM     30  C   UNL     1     -22.246 -44.905  25.631  1.00  0.00     0.114 A 
ATOM     31  C   UNL     1     -21.682 -42.017  22.757  1.00  0.00     0.030 A 
ATOM     32  C   UNL     1     -22.767 -43.691  23.805  1.00  0.00     0.138 A 
ATOM     33  N   UNL     1     -23.143 -44.667  24.650  1.00  0.00    -0.239 NA
ATOM     34  C   UNL     1     -22.879 -42.234  22.109  1.00  0.00     0.085 A 
ATOM     35  N   UNL     1     -23.526 -43.256  22.756  1.00  0.00    -0.346 N 
ATOM     36  H   UNL     1     -24.437 -43.633  22.530  1.00  0.00     0.167 HD
ENDBRANCH  24  27
ENDBRANCH  21  23
ENDBRANCH   1  17
TORSDOF 7
ENDMDL
MODEL 8
REMARK VINA RESULT:   -10.406      2.488     12.959
REMARK INTER + INTRA:         -15.419
REMARK INTER:                 -14.729
REMARK INTRA:                  -0.690
REMARK UNBOUND:                -0.755
REMARK SMILES O=C(Nc1cncc(OC[C@H]2CC[N@H+](Cc3ccccc3)CC2)c1)c1ccnc2[nH]ccc12
REMARK SMILES IDX 9 1 10 2 11 3 13 4 14 5 12 6 22 7 23 8 15 10 16 11 17 12
REMARK SMILES IDX 21 13 18 14 20 15 19 16 8 17 7 18 24 19 6 20 4 21 5 22 3 23
REMARK SMILES IDX 2 24 1 26 25 27 26 28 33 29 27 30 32 31 29 32 28 33 31 34
REMARK SMILES IDX 30 35
REMARK H PARENT 14 9 3 25 30 36
ROOT
ATOM      1  O   UNL     1     -15.246 -43.432  25.699  1.00  0.00    -0.492 OA
ENDROOT
BRANCH   1   2
ATOM      2  C   UNL     1     -14.142 -42.879  26.415  1.00  0.00     0.233 C 
BRANCH   2   3
ATOM      3  C   UNL     1     -13.364 -43.971  27.171  1.00  0.00     0.038 C 
ATOM      4  C   UNL     1     -13.393 -45.581  29.124  1.00  0.00     0.262 C 
ATOM      5  N   UNL     1     -12.075 -45.001  29.583  1.00  0.00    -0.331 N 
ATOM      6  C   UNL     1     -14.174 -44.526  28.351  1.00  0.00     0.069 C 
ATOM      7  C   UNL     1     -11.240 -44.498  28.434  1.00  0.00     0.262 C 
ATOM      8  C   UNL     1     -12.013 -43.439  27.661  1.00  0.00     0.069 C 
ATOM      9  H   UNL     1     -12.293 -44.203  30.193  1.00  0.00     0.348 HD
BRANCH   5  10
ATOM     10  C   UNL     1     -11.287 -45.970  30.447  1.00  0.00     0.299 C 
BRANCH  10  11
ATOM     11  C   UNL     1     -10.159 -45.312  31.193  1.00  0.00     0.006 A 
ATOM     12  C   UNL     1     -10.387 -44.154  31.954  1.00  0.00     0.009 A 
ATOM     13  C   UNL     1      -8.859 -45.836  31.124  1.00  0.00     0.009 A 
ATOM     14  C   UNL     1      -9.333 -43.531  32.622  1.00  0.00     0.001 A 
ATOM     15  C   UNL     1      -7.809 -45.208  31.795  1.00  0.00     0.001 A 
ATOM     16  C   UNL     1      -8.046 -44.055  32.541  1.00  0.00     0.000 A 
ENDBRANCH  10  11
ENDBRANCH   5  10
ENDBRANCH   2   3
ENDBRANCH   1   2
BRANCH   1  17
ATOM     17  C   UNL     1     -16.496 -42.942  25.945  1.00  0.00     0.139 A 
ATOM     18  C   UNL     1     -17.023 -42.557  27.170  1.00  0.00     0.157 A 
ATOM     19  C   UNL     1     -17.317 -42.804  24.823  1.00  0.00     0.075 A 
ATOM     20  N   UNL     1     -18.256 -42.033  27.331  1.00  0.00    -0.259 NA
ATOM     21  C   UNL     1     -18.610 -42.286  24.944  1.00  0.00     0.063 A 
ATOM     22  C   UNL     1     -19.026 -41.913  26.218  1.00  0.00     0.137 A 
BRANCH  21  23
ATOM     23  N   UNL     1     -19.388 -42.179  23.771  1.00  0.00    -0.320 N 
ATOM     24  C   UNL     1     -19.033 -41.523  22.607  1.00  0.00     0.256 C 
ATOM     25  H   UNL     1     -20.321 -42.569  23.811  1.00  0.00     0.170 HD
ATOM     26  O   UNL     1     -18.001 -40.892  22.418  1.00  0.00    -0.269 OA
BRANCH  24  27
ATOM     27  C   UNL     1     -20.044 -41.558  21.528  1.00  0.00     0.052 A 
ATOM     28  C   UNL     1     -20.643 -42.781  21.210  1.00  0.00     0.035 A 
ATOM     29  C   UNL     1     -20.446 -40.409  20.819  1.00  0.00     0.031 A 
ATOM     30  C   UNL     1     -21.571 -42.820  20.182  1.00  0.00     0.114 A 
ATOM     31  C   UNL     1     -20.179 -39.007  20.847  1.00  0.00     0.030 A 
ATOM     32  C   UNL     1     -21.387 -40.604  19.813  1.00  0.00     0.138 A 
ATOM     33  N   UNL     1     -21.966 -41.760  19.444  1.00  0.00    -0.239 NA
ATOM     34  C   UNL     1     -20.928 -38.413  19.853  1.00  0.00     0.085 A 
ATOM     35  N   UNL     1     -21.655 -39.396  19.233  1.00  0.00    -0.346 N 
ATOM     36  H   UNL     1     -22.315 -39.274  18.477  1.00  0.00     0.167 HD
ENDBRANCH  24  27
ENDBRANCH  21  23
ENDBRANCH   1  17
TORSDOF 7
ENDMDL
MODEL 9
REMARK VINA RESULT:   -10.148      3.667      5.538
REMARK INTER + INTRA:         -15.056
REMARK INTER:                 -14.181
REMARK INTRA:                  -0.875
REMARK UNBOUND:                -0.755
REMARK SMILES O=C(Nc1cncc(OC[C@H]2CC[N@H+](Cc3ccccc3)CC2)c1)c1ccnc2[nH]ccc12
REMARK SMILES IDX 9 1 10 2 11 3 13 4 14 5 12 6 22 7 23 8 15 10 16 11 17 12
REMARK SMILES IDX 21 13 18 14 20 15 19 16 8 17 7 18 24 19 6 20 4 21 5 22 3 23
REMARK SMILES IDX 2 24 1 26 25 27 26 28 33 29 27 30 32 31 29 32 28 33 31 34
REMARK SMILES IDX 30 35
REMARK H PARENT 14 9 3 25 30 36
ROOT
ATOM      1  O   UNL     1     -17.803 -42.405  25.594  1.00  0.00    -0.492 OA
ENDROOT
BRANCH   1   2
ATOM      2  C   UNL     1     -18.652 -41.985  24.525  1.00  0.00     0.233 C 
BRANCH   2   3
ATOM      3  C   UNL     1     -20.134 -42.031  24.938  1.00  0.00     0.038 C 
ATOM      4  C   UNL     1     -22.391 -40.902  24.738  1.00  0.00     0.262 C 
ATOM      5  N   UNL     1     -22.471 -40.861  26.247  1.00  0.00    -0.331 N 
ATOM      6  C   UNL     1     -20.932 -40.883  24.303  1.00  0.00     0.069 C 
ATOM      7  C   UNL     1     -21.739 -42.010  26.890  1.00  0.00     0.262 C 
ATOM      8  C   UNL     1     -20.277 -41.992  26.463  1.00  0.00     0.069 C 
ATOM      9  H   UNL     1     -22.022 -39.987  26.549  1.00  0.00     0.348 HD
BRANCH   5  10
ATOM     10  C   UNL     1     -23.902 -40.777  26.747  1.00  0.00     0.299 C 
BRANCH  10  11
ATOM     11  C   UNL     1     -24.157 -39.568  27.605  1.00  0.00     0.006 A 
ATOM     12  C   UNL     1     -24.630 -39.713  28.918  1.00  0.00     0.009 A 
ATOM     13  C   UNL     1     -23.942 -38.277  27.097  1.00  0.00     0.009 A 
ATOM     14  C   UNL     1     -24.892 -38.588  29.702  1.00  0.00     0.001 A 
ATOM     15  C   UNL     1     -24.206 -37.156  27.885  1.00  0.00     0.001 A 
ATOM     16  C   UNL     1     -24.682 -37.312  29.185  1.00  0.00     0.000 A 
ENDBRANCH  10  11
ENDBRANCH   5  10
ENDBRANCH   2   3
ENDBRANCH   1   2
BRANCH   1  17
ATOM     17  C   UNL     1     -16.491 -42.663  25.324  1.00  0.00     0.139 A 
ATOM     18  C   UNL     1     -15.854 -42.583  24.094  1.00  0.00     0.157 A 
ATOM     19  C   UNL     1     -15.714 -43.031  26.425  1.00  0.00     0.075 A 
ATOM     20  N   UNL     1     -14.535 -42.807  23.910  1.00  0.00    -0.259 NA
ATOM     21  C   UNL     1     -14.349 -43.294  26.279  1.00  0.00     0.063 A 
ATOM     22  C   UNL     1     -13.812 -43.163  25.003  1.00  0.00     0.137 A 
BRANCH  21  23
ATOM     23  N   UNL     1     -13.624 -43.668  27.432  1.00  0.00    -0.320 N 
ATOM     24  C   UNL     1     -13.088 -44.914  27.697  1.00  0.00     0.256 C 
ATOM     25  H   UNL     1     -13.545 -42.970  28.161  1.00  0.00     0.170 HD
ATOM     26  O   UNL     1     -13.189 -45.910  26.992  1.00  0.00    -0.269 OA
BRANCH  24  27
ATOM     27  C   UNL     1     -12.381 -45.036  28.990  1.00  0.00     0.052 A 
ATOM     28  C   UNL     1     -12.931 -45.857  29.980  1.00  0.00     0.035 A 
ATOM     29  C   UNL     1     -11.165 -44.379  29.262  1.00  0.00     0.031 A 
ATOM     30  C   UNL     1     -12.283 -45.952  31.201  1.00  0.00     0.114 A 
ATOM     31  C   UNL     1     -10.241 -43.544  28.566  1.00  0.00     0.030 A 
ATOM     32  C   UNL     1     -10.633 -44.569  30.533  1.00  0.00     0.138 A 
ATOM     33  N   UNL     1     -11.138 -45.316  31.531  1.00  0.00    -0.239 NA
ATOM     34  C   UNL     1      -9.214 -43.233  29.432  1.00  0.00     0.085 A 
ATOM     35  N   UNL     1      -9.467 -43.862  30.624  1.00  0.00    -0.346 N 
ATOM     36  H   UNL     1      -8.887 -43.845  31.452  1.00  0.00     0.167 HD
ENDBRANCH  24  27
ENDBRANCH  21  23
ENDBRANCH   1  17
TORSDOF 7
ENDMDL
