MODEL 1
REMARK VINA RESULT:   -12.882      0.000      0.000
REMARK INTER + INTRA:         -17.592
REMARK INTER:                 -17.023
REMARK INTRA:                  -0.569
REMARK UNBOUND:                -0.569
REMARK SMILES OC1=CNc2cc3onc(CC[C@H]4CC[N@H+](Cc5ccccc5)CC4)c3cc2C1
REMARK SMILES IDX 11 1 10 2 2 3 3 4 29 5 4 6 28 7 5 8 27 9 6 10 26 11 7 12
REMARK SMILES IDX 8 13 9 14 1 16 12 18 13 19 25 20 14 21 24 22 15 23 16 24
REMARK SMILES IDX 17 26 18 27 19 28 23 29 20 30 22 31 21 32
REMARK H PARENT 4 15 1 17 16 25
ROOT
ATOM      1  C   UNL     1     -14.196 -43.699  26.349  1.00  0.00     0.061 C 
ENDROOT
BRANCH   1   2
ATOM      2  C   UNL     1     -15.094 -43.292  25.227  1.00  0.00     0.091 A 
ATOM      3  C   UNL     1     -20.956 -41.162  26.501  1.00  0.00     0.113 C 
ATOM      4  C   UNL     1     -21.139 -40.972  25.189  1.00  0.00     0.125 C 
ATOM      5  C   UNL     1     -19.643 -41.686  27.026  1.00  0.00     0.113 C 
ATOM      6  N   UNL     1     -20.178 -41.214  24.245  1.00  0.00    -0.358 N 
ATOM      7  C   UNL     1     -18.617 -42.000  25.946  1.00  0.00    -0.016 A 
ATOM      8  C   UNL     1     -18.937 -41.785  24.584  1.00  0.00     0.046 A 
ATOM      9  C   UNL     1     -17.358 -42.515  26.321  1.00  0.00     0.020 A 
ATOM     10  C   UNL     1     -18.000 -42.058  23.579  1.00  0.00     0.077 A 
ATOM     11  C   UNL     1     -16.422 -42.798  25.311  1.00  0.00     0.045 A 
ATOM     12  C   UNL     1     -16.773 -42.566  23.994  1.00  0.00     0.169 A 
ATOM     13  O   UNL     1     -15.734 -42.902  23.187  1.00  0.00    -0.356 OA
ATOM     14  N   UNL     1     -14.679 -43.365  23.955  1.00  0.00    -0.084 NA
ATOM     15  H   UNL     1     -20.477 -41.248  23.277  1.00  0.00     0.166 HD
BRANCH   3  16
ATOM     16  O   UNL     1     -21.969 -40.897  27.399  1.00  0.00    -0.510 OA
ATOM     17  H   UNL     1     -22.498 -40.151  27.068  1.00  0.00     0.293 HD
ENDBRANCH   3  16
ENDBRANCH   1   2
BRANCH   1  18
ATOM     18  C   UNL     1     -13.777 -45.178  26.348  1.00  0.00     0.010 C 
BRANCH  18  19
ATOM     19  C   UNL     1     -13.251 -45.729  27.689  1.00  0.00     0.000 C 
ATOM     20  C   UNL     1     -11.757 -46.073  27.651  1.00  0.00     0.065 C 
ATOM     21  C   UNL     1     -13.521 -44.717  28.813  1.00  0.00     0.065 C 
ATOM     22  C   UNL     1     -11.259 -46.572  29.004  1.00  0.00     0.262 C 
ATOM     23  C   UNL     1     -13.027 -45.228  30.158  1.00  0.00     0.262 C 
ATOM     24  N   UNL     1     -11.556 -45.544  30.070  1.00  0.00    -0.331 N 
ATOM     25  H   UNL     1     -11.065 -44.682  29.805  1.00  0.00     0.348 HD
BRANCH  24  26
ATOM     26  C   UNL     1     -11.000 -45.937  31.425  1.00  0.00     0.299 C 
BRANCH  26  27
ATOM     27  C   UNL     1      -9.702 -45.249  31.751  1.00  0.00     0.006 A 
ATOM     28  C   UNL     1      -8.476 -45.851  31.433  1.00  0.00     0.009 A 
ATOM     29  C   UNL     1      -9.701 -43.985  32.362  1.00  0.00     0.009 A 
ATOM     30  C   UNL     1      -7.274 -45.198  31.713  1.00  0.00     0.001 A 
ATOM     31  C   UNL     1      -8.497 -43.336  32.641  1.00  0.00     0.001 A 
ATOM     32  C   UNL     1      -7.286 -43.942  32.314  1.00  0.00     0.000 A 
ENDBRANCH  26  27
ENDBRANCH  24  26
ENDBRANCH  18  19
ENDBRANCH   1  18
TORSDOF 6
ENDMDL
MODEL 2
REMARK VINA RESULT:   -12.360      3.937     10.062
REMARK INTER + INTRA:         -16.902
REMARK INTER:                 -16.320
REMARK INTRA:                  -0.582
REMARK UNBOUND:                -0.569
REMARK SMILES OC1=CNc2cc3onc(CC[C@H]4CC[N@H+](Cc5ccccc5)CC4)c3cc2C1
REMARK SMILES IDX 11 1 10 2 2 3 3 4 29 5 4 6 28 7 5 8 27 9 6 10 26 11 7 12
REMARK SMILES IDX 8 13 9 14 1 16 12 18 13 19 25 20 14 21 24 22 15 23 16 24
REMARK SMILES IDX 17 26 18 27 19 28 23 29 20 30 22 31 21 32
REMARK H PARENT 4 15 1 17 16 25
ROOT
ATOM      1  C   UNL     1      -9.516 -46.584  29.599  1.00  0.00     0.061 C 
ENDROOT
BRANCH   1   2
ATOM      2  C   UNL     1      -8.593 -45.845  30.511  1.00  0.00     0.091 A 
ATOM      3  C   UNL     1     -10.960 -41.597  34.619  1.00  0.00     0.113 C 
ATOM      4  C   UNL     1      -9.719 -41.391  35.074  1.00  0.00     0.125 C 
ATOM      5  C   UNL     1     -11.221 -42.603  33.527  1.00  0.00     0.113 C 
ATOM      6  N   UNL     1      -8.619 -42.066  34.614  1.00  0.00    -0.358 N 
ATOM      7  C   UNL     1      -9.971 -43.293  32.998  1.00  0.00    -0.016 A 
ATOM      8  C   UNL     1      -8.703 -42.970  33.539  1.00  0.00     0.046 A 
ATOM      9  C   UNL     1     -10.093 -44.241  31.960  1.00  0.00     0.020 A 
ATOM     10  C   UNL     1      -7.545 -43.603  33.072  1.00  0.00     0.077 A 
ATOM     11  C   UNL     1      -8.929 -44.869  31.485  1.00  0.00     0.045 A 
ATOM     12  C   UNL     1      -7.712 -44.529  32.048  1.00  0.00     0.169 A 
ATOM     13  O   UNL     1      -6.726 -45.247  31.450  1.00  0.00    -0.356 OA
ATOM     14  N   UNL     1      -7.272 -46.070  30.480  1.00  0.00    -0.084 NA
ATOM     15  H   UNL     1      -7.710 -41.692  34.861  1.00  0.00     0.166 HD
BRANCH   3  16
ATOM     16  O   UNL     1     -12.024 -40.882  35.127  1.00  0.00    -0.510 OA
ATOM     17  H   UNL     1     -12.240 -41.222  36.012  1.00  0.00     0.293 HD
ENDBRANCH   3  16
ENDBRANCH   1   2
BRANCH   1  18
ATOM     18  C   UNL     1     -10.995 -46.177  29.695  1.00  0.00     0.010 C 
BRANCH  18  19
ATOM     19  C   UNL     1     -11.581 -45.472  28.455  1.00  0.00     0.000 C 
ATOM     20  C   UNL     1     -13.025 -45.892  28.153  1.00  0.00     0.065 C 
ATOM     21  C   UNL     1     -11.511 -43.949  28.635  1.00  0.00     0.065 C 
ATOM     22  C   UNL     1     -13.590 -45.145  26.948  1.00  0.00     0.262 C 
ATOM     23  C   UNL     1     -12.069 -43.214  27.426  1.00  0.00     0.262 C 
ATOM     24  N   UNL     1     -13.489 -43.655  27.177  1.00  0.00    -0.331 N 
ATOM     25  H   UNL     1     -14.037 -43.440  28.019  1.00  0.00     0.348 HD
BRANCH  24  26
ATOM     26  C   UNL     1     -14.121 -42.853  26.056  1.00  0.00     0.299 C 
BRANCH  26  27
ATOM     27  C   UNL     1     -15.608 -42.689  26.215  1.00  0.00     0.006 A 
ATOM     28  C   UNL     1     -16.445 -42.639  25.090  1.00  0.00     0.009 A 
ATOM     29  C   UNL     1     -16.182 -42.602  27.494  1.00  0.00     0.009 A 
ATOM     30  C   UNL     1     -17.827 -42.514  25.242  1.00  0.00     0.001 A 
ATOM     31  C   UNL     1     -17.564 -42.476  27.641  1.00  0.00     0.001 A 
ATOM     32  C   UNL     1     -18.384 -42.435  26.516  1.00  0.00     0.000 A 
ENDBRANCH  26  27
ENDBRANCH  24  26
ENDBRANCH  18  19
ENDBRANCH   1  18
TORSDOF 6
ENDMDL
MODEL 3
REMARK VINA RESULT:   -12.210      1.762      2.665
REMARK INTER + INTRA:         -16.704
REMARK INTER:                 -16.156
REMARK INTRA:                  -0.548
REMARK UNBOUND:                -0.569
REMARK SMILES OC1=CNc2cc3onc(CC[C@H]4CC[N@H+](Cc5ccccc5)CC4)c3cc2C1
REMARK SMILES IDX 11 1 10 2 2 3 3 4 29 5 4 6 28 7 5 8 27 9 6 10 26 11 7 12
REMARK SMILES IDX 8 13 9 14 1 16 12 18 13 19 25 20 14 21 24 22 15 23 16 24
REMARK SMILES IDX 17 26 18 27 19 28 23 29 20 30 22 31 21 32
REMARK H PARENT 4 15 1 17 16 25
ROOT
ATOM      1  C   UNL     1     -14.459 -43.203  26.972  1.00  0.00     0.061 C 
ENDROOT
BRANCH   1   2
ATOM      2  C   UNL     1     -15.891 -42.850  27.205  1.00  0.00     0.091 A 
ATOM      3  C   UNL     1     -19.718 -41.774  22.233  1.00  0.00     0.113 C 
ATOM      4  C   UNL     1     -20.727 -41.581  23.090  1.00  0.00     0.125 C 
ATOM      5  C   UNL     1     -18.342 -42.134  22.734  1.00  0.00     0.113 C 
ATOM      6  N   UNL     1     -20.604 -41.703  24.449  1.00  0.00    -0.358 N 
ATOM      7  C   UNL     1     -18.225 -42.204  24.250  1.00  0.00    -0.016 A 
ATOM      8  C   UNL     1     -19.359 -41.950  25.059  1.00  0.00     0.046 A 
ATOM      9  C   UNL     1     -16.978 -42.513  24.833  1.00  0.00     0.020 A 
ATOM     10  C   UNL     1     -19.273 -42.022  26.454  1.00  0.00     0.077 A 
ATOM     11  C   UNL     1     -16.889 -42.576  26.234  1.00  0.00     0.045 A 
ATOM     12  C   UNL     1     -18.023 -42.327  26.985  1.00  0.00     0.169 A 
ATOM     13  O   UNL     1     -17.721 -42.440  28.304  1.00  0.00    -0.356 OA
ATOM     14  N   UNL     1     -16.383 -42.761  28.449  1.00  0.00    -0.084 NA
ATOM     15  H   UNL     1     -21.355 -41.330  25.017  1.00  0.00     0.166 HD
BRANCH   3  16
ATOM     16  O   UNL     1     -19.911 -41.635  20.875  1.00  0.00    -0.510 OA
ATOM     17  H   UNL     1     -20.188 -40.722  20.687  1.00  0.00     0.293 HD
ENDBRANCH   3  16
ENDBRANCH   1   2
BRANCH   1  18
ATOM     18  C   UNL     1     -14.191 -44.689  26.679  1.00  0.00     0.010 C 
BRANCH  18  19
ATOM     19  C   UNL     1     -13.428 -45.463  27.774  1.00  0.00     0.000 C 
ATOM     20  C   UNL     1     -11.906 -45.308  27.666  1.00  0.00     0.065 C 
ATOM     21  C   UNL     1     -13.898 -45.007  29.163  1.00  0.00     0.065 C 
ATOM     22  C   UNL     1     -11.183 -46.049  28.787  1.00  0.00     0.262 C 
ATOM     23  C   UNL     1     -13.177 -45.757  30.273  1.00  0.00     0.262 C 
ATOM     24  N   UNL     1     -11.689 -45.567  30.127  1.00  0.00    -0.331 N 
ATOM     25  H   UNL     1     -11.493 -44.560  30.181  1.00  0.00     0.348 HD
BRANCH  24  26
ATOM     26  C   UNL     1     -10.942 -46.196  31.289  1.00  0.00     0.299 C 
BRANCH  26  27
ATOM     27  C   UNL     1      -9.654 -45.490  31.611  1.00  0.00     0.006 A 
ATOM     28  C   UNL     1      -9.665 -44.194  32.148  1.00  0.00     0.009 A 
ATOM     29  C   UNL     1      -8.421 -46.127  31.396  1.00  0.00     0.009 A 
ATOM     30  C   UNL     1      -8.467 -43.553  32.471  1.00  0.00     0.001 A 
ATOM     31  C   UNL     1      -7.227 -45.481  31.720  1.00  0.00     0.001 A 
ATOM     32  C   UNL     1      -7.251 -44.197  32.259  1.00  0.00     0.000 A 
ENDBRANCH  26  27
ENDBRANCH  24  26
ENDBRANCH  18  19
ENDBRANCH   1  18
TORSDOF 6
ENDMDL
MODEL 4
REMARK VINA RESULT:   -12.095      1.822      2.332
REMARK INTER + INTRA:         -16.553
REMARK INTER:                 -16.364
REMARK INTRA:                  -0.189
REMARK UNBOUND:                -0.569
REMARK SMILES OC1=CNc2cc3onc(CC[C@H]4CC[N@H+](Cc5ccccc5)CC4)c3cc2C1
REMARK SMILES IDX 11 1 10 2 2 3 3 4 29 5 4 6 28 7 5 8 27 9 6 10 26 11 7 12
REMARK SMILES IDX 8 13 9 14 1 16 12 18 13 19 25 20 14 21 24 22 15 23 16 24
REMARK SMILES IDX 17 26 18 27 19 28 23 29 20 30 22 31 21 32
REMARK H PARENT 4 15 1 17 16 25
ROOT
ATOM      1  C   UNL     1     -15.108 -43.517  26.246  1.00  0.00     0.061 C 
ENDROOT
BRANCH   1   2
ATOM      2  C   UNL     1     -15.235 -42.738  24.979  1.00  0.00     0.091 A 
ATOM      3  C   UNL     1     -21.006 -41.599  22.546  1.00  0.00     0.113 C 
ATOM      4  C   UNL     1     -20.421 -40.906  21.563  1.00  0.00     0.125 C 
ATOM      5  C   UNL     1     -20.180 -42.224  23.642  1.00  0.00     0.113 C 
ATOM      6  N   UNL     1     -19.070 -40.698  21.479  1.00  0.00    -0.358 N 
ATOM      7  C   UNL     1     -18.679 -42.024  23.488  1.00  0.00    -0.016 A 
ATOM      8  C   UNL     1     -18.173 -41.294  22.385  1.00  0.00     0.046 A 
ATOM      9  C   UNL     1     -17.807 -42.583  24.445  1.00  0.00     0.020 A 
ATOM     10  C   UNL     1     -16.796 -41.091  22.234  1.00  0.00     0.077 A 
ATOM     11  C   UNL     1     -16.424 -42.387  24.288  1.00  0.00     0.045 A 
ATOM     12  C   UNL     1     -15.974 -41.661  23.200  1.00  0.00     0.169 A 
ATOM     13  O   UNL     1     -14.618 -41.590  23.239  1.00  0.00    -0.356 OA
ATOM     14  N   UNL     1     -14.148 -42.270  24.349  1.00  0.00    -0.084 NA
ATOM     15  H   UNL     1     -18.708 -40.353  20.597  1.00  0.00     0.166 HD
BRANCH   3  16
ATOM     16  O   UNL     1     -22.374 -41.770  22.570  1.00  0.00    -0.510 OA
ATOM     17  H   UNL     1     -22.766 -41.298  21.816  1.00  0.00     0.293 HD
ENDBRANCH   3  16
ENDBRANCH   1   2
BRANCH   1  18
ATOM     18  C   UNL     1     -14.044 -44.626  26.228  1.00  0.00     0.010 C 
BRANCH  18  19
ATOM     19  C   UNL     1     -13.293 -44.859  27.556  1.00  0.00     0.000 C 
ATOM     20  C   UNL     1     -12.192 -43.823  27.812  1.00  0.00     0.065 C 
ATOM     21  C   UNL     1     -14.287 -44.860  28.727  1.00  0.00     0.065 C 
ATOM     22  C   UNL     1     -11.500 -44.054  29.152  1.00  0.00     0.262 C 
ATOM     23  C   UNL     1     -13.588 -45.099  30.056  1.00  0.00     0.262 C 
ATOM     24  N   UNL     1     -12.523 -44.052  30.263  1.00  0.00    -0.331 N 
ATOM     25  H   UNL     1     -12.980 -43.133  30.252  1.00  0.00     0.348 HD
BRANCH  24  26
ATOM     26  C   UNL     1     -11.889 -44.183  31.635  1.00  0.00     0.299 C 
BRANCH  26  27
ATOM     27  C   UNL     1     -10.541 -44.849  31.600  1.00  0.00     0.006 A 
ATOM     28  C   UNL     1      -9.390 -44.150  31.993  1.00  0.00     0.009 A 
ATOM     29  C   UNL     1     -10.419 -46.186  31.192  1.00  0.00     0.009 A 
ATOM     30  C   UNL     1      -8.144 -44.780  31.984  1.00  0.00     0.001 A 
ATOM     31  C   UNL     1      -9.171 -46.812  31.185  1.00  0.00     0.001 A 
ATOM     32  C   UNL     1      -8.036 -46.109  31.583  1.00  0.00     0.000 A 
ENDBRANCH  26  27
ENDBRANCH  24  26
ENDBRANCH  18  19
ENDBRANCH   1  18
TORSDOF 6
ENDMDL
MODEL 5
REMARK VINA RESULT:   -12.024      3.838      9.059
REMARK INTER + INTRA:         -16.459
REMARK INTER:                 -15.942
REMARK INTRA:                  -0.517
REMARK UNBOUND:                -0.569
REMARK SMILES OC1=CNc2cc3onc(CC[C@H]4CC[N@H+](Cc5ccccc5)CC4)c3cc2C1
REMARK SMILES IDX 11 1 10 2 2 3 3 4 29 5 4 6 28 7 5 8 27 9 6 10 26 11 7 12
REMARK SMILES IDX 8 13 9 14 1 16 12 18 13 19 25 20 14 21 24 22 15 23 16 24
REMARK SMILES IDX 17 26 18 27 19 28 23 29 20 30 22 31 21 32
REMARK H PARENT 4 15 1 17 16 25
ROOT
ATOM      1  C   UNL     1      -9.592 -45.624  30.449  1.00  0.00     0.061 C 
ENDROOT
BRANCH   1   2
ATOM      2  C   UNL     1      -9.470 -44.615  31.543  1.00  0.00     0.091 A 
ATOM      3  C   UNL     1     -14.703 -41.801  33.828  1.00  0.00     0.113 C 
ATOM      4  C   UNL     1     -13.931 -41.140  34.697  1.00  0.00     0.125 C 
ATOM      5  C   UNL     1     -14.100 -42.788  32.861  1.00  0.00     0.113 C 
ATOM      6  N   UNL     1     -12.575 -41.307  34.790  1.00  0.00    -0.358 N 
ATOM      7  C   UNL     1     -12.585 -42.908  32.950  1.00  0.00    -0.016 A 
ATOM      8  C   UNL     1     -11.869 -42.132  33.893  1.00  0.00     0.046 A 
ATOM      9  C   UNL     1     -11.910 -43.788  32.078  1.00  0.00     0.020 A 
ATOM     10  C   UNL     1     -10.477 -42.238  33.997  1.00  0.00     0.077 A 
ATOM     11  C   UNL     1     -10.512 -43.887  32.176  1.00  0.00     0.045 A 
ATOM     12  C   UNL     1      -9.853 -43.116  33.116  1.00  0.00     0.169 A 
ATOM     13  O   UNL     1      -8.519 -43.363  33.045  1.00  0.00    -0.356 OA
ATOM     14  N   UNL     1      -8.272 -44.298  32.055  1.00  0.00    -0.084 NA
ATOM     15  H   UNL     1     -12.057 -40.615  35.319  1.00  0.00     0.166 HD
BRANCH   3  16
ATOM     16  O   UNL     1     -16.065 -41.584  33.788  1.00  0.00    -0.510 OA
ATOM     17  H   UNL     1     -16.243 -40.655  34.009  1.00  0.00     0.293 HD
ENDBRANCH   3  16
ENDBRANCH   1   2
BRANCH   1  18
ATOM     18  C   UNL     1     -11.031 -46.006  30.069  1.00  0.00     0.010 C 
BRANCH  18  19
ATOM     19  C   UNL     1     -11.546 -45.442  28.729  1.00  0.00     0.000 C 
ATOM     20  C   UNL     1     -12.931 -45.976  28.345  1.00  0.00     0.065 C 
ATOM     21  C   UNL     1     -11.579 -43.907  28.785  1.00  0.00     0.065 C 
ATOM     22  C   UNL     1     -13.429 -45.365  27.039  1.00  0.00     0.262 C 
ATOM     23  C   UNL     1     -12.070 -43.309  27.476  1.00  0.00     0.262 C 
ATOM     24  N   UNL     1     -13.435 -43.859  27.149  1.00  0.00    -0.331 N 
ATOM     25  H   UNL     1     -14.066 -43.613  27.921  1.00  0.00     0.348 HD
BRANCH  24  26
ATOM     26  C   UNL     1     -14.011 -43.190  25.915  1.00  0.00     0.299 C 
BRANCH  26  27
ATOM     27  C   UNL     1     -15.479 -42.884  26.042  1.00  0.00     0.006 A 
ATOM     28  C   UNL     1     -16.292 -42.800  24.902  1.00  0.00     0.009 A 
ATOM     29  C   UNL     1     -16.059 -42.695  27.307  1.00  0.00     0.009 A 
ATOM     30  C   UNL     1     -17.658 -42.542  25.026  1.00  0.00     0.001 A 
ATOM     31  C   UNL     1     -17.425 -42.437  27.426  1.00  0.00     0.001 A 
ATOM     32  C   UNL     1     -18.223 -42.363  26.287  1.00  0.00     0.000 A 
ENDBRANCH  26  27
ENDBRANCH  24  26
ENDBRANCH  18  19
ENDBRANCH   1  18
TORSDOF 6
ENDMDL
MODEL 6
REMARK VINA RESULT:   -11.897      4.073      8.957
REMARK INTER + INTRA:         -16.291
REMARK INTER:                 -15.550
REMARK INTRA:                  -0.741
REMARK UNBOUND:                -0.569
REMARK SMILES OC1=CNc2cc3onc(CC[C@H]4CC[N@H+](Cc5ccccc5)CC4)c3cc2C1
REMARK SMILES IDX 11 1 10 2 2 3 3 4 29 5 4 6 28 7 5 8 27 9 6 10 26 11 7 12
REMARK SMILES IDX 8 13 9 14 1 16 12 18 13 19 25 20 14 21 24 22 15 23 16 24
REMARK SMILES IDX 17 26 18 27 19 28 23 29 20 30 22 31 21 32
REMARK H PARENT 4 15 1 17 16 25
ROOT
ATOM      1  C   UNL     1      -8.564 -44.518  31.362  1.00  0.00     0.061 C 
ENDROOT
BRANCH   1   2
ATOM      2  C   UNL     1      -8.806 -43.592  32.508  1.00  0.00     0.091 A 
ATOM      3  C   UNL     1     -14.737 -41.689  33.822  1.00  0.00     0.113 C 
ATOM      4  C   UNL     1     -14.253 -41.002  34.862  1.00  0.00     0.125 C 
ATOM      5  C   UNL     1     -13.820 -42.508  32.948  1.00  0.00     0.113 C 
ATOM      6  N   UNL     1     -12.931 -40.994  35.220  1.00  0.00    -0.358 N 
ATOM      7  C   UNL     1     -12.350 -42.431  33.337  1.00  0.00    -0.016 A 
ATOM      8  C   UNL     1     -11.952 -41.644  34.444  1.00  0.00     0.046 A 
ATOM      9  C   UNL     1     -11.398 -43.142  32.577  1.00  0.00     0.020 A 
ATOM     10  C   UNL     1     -10.606 -41.571  34.823  1.00  0.00     0.077 A 
ATOM     11  C   UNL     1     -10.045 -43.062  32.952  1.00  0.00     0.045 A 
ATOM     12  C   UNL     1      -9.702 -42.286  34.044  1.00  0.00     0.169 A 
ATOM     13  O   UNL     1      -8.358 -42.347  34.233  1.00  0.00    -0.356 OA
ATOM     14  N   UNL     1      -7.789 -43.160  33.267  1.00  0.00    -0.084 NA
ATOM     15  H   UNL     1     -12.633 -40.283  35.877  1.00  0.00     0.166 HD
BRANCH   3  16
ATOM     16  O   UNL     1     -16.082 -41.653  33.517  1.00  0.00    -0.510 OA
ATOM     17  H   UNL     1     -16.594 -41.825  34.326  1.00  0.00     0.293 HD
ENDBRANCH   3  16
ENDBRANCH   1   2
BRANCH   1  18
ATOM     18  C   UNL     1      -9.094 -45.948  31.554  1.00  0.00     0.010 C 
BRANCH  18  19
ATOM     19  C   UNL     1     -10.154 -46.415  30.534  1.00  0.00     0.000 C 
ATOM     20  C   UNL     1     -11.530 -45.779  30.765  1.00  0.00     0.065 C 
ATOM     21  C   UNL     1      -9.676 -46.113  29.106  1.00  0.00     0.065 C 
ATOM     22  C   UNL     1     -12.542 -46.226  29.715  1.00  0.00     0.262 C 
ATOM     23  C   UNL     1     -10.689 -46.570  28.067  1.00  0.00     0.262 C 
ATOM     24  N   UNL     1     -12.018 -45.912  28.334  1.00  0.00    -0.331 N 
ATOM     25  H   UNL     1     -11.881 -44.895  28.286  1.00  0.00     0.348 HD
BRANCH  24  26
ATOM     26  C   UNL     1     -13.020 -46.245  27.244  1.00  0.00     0.299 C 
BRANCH  26  27
ATOM     27  C   UNL     1     -13.854 -45.063  26.829  1.00  0.00     0.006 A 
ATOM     28  C   UNL     1     -14.034 -44.759  25.472  1.00  0.00     0.009 A 
ATOM     29  C   UNL     1     -14.479 -44.260  27.796  1.00  0.00     0.009 A 
ATOM     30  C   UNL     1     -14.830 -43.677  25.090  1.00  0.00     0.001 A 
ATOM     31  C   UNL     1     -15.274 -43.179  27.409  1.00  0.00     0.001 A 
ATOM     32  C   UNL     1     -15.450 -42.891  26.058  1.00  0.00     0.000 A 
ENDBRANCH  26  27
ENDBRANCH  24  26
ENDBRANCH  18  19
ENDBRANCH   1  18
TORSDOF 6
ENDMDL
MODEL 7
REMARK VINA RESULT:   -10.972      3.545     10.381
REMARK INTER + INTRA:         -15.068
REMARK INTER:                 -14.565
REMARK INTRA:                  -0.503
REMARK UNBOUND:                -0.569
REMARK SMILES OC1=CNc2cc3onc(CC[C@H]4CC[N@H+](Cc5ccccc5)CC4)c3cc2C1
REMARK SMILES IDX 11 1 10 2 2 3 3 4 29 5 4 6 28 7 5 8 27 9 6 10 26 11 7 12
REMARK SMILES IDX 8 13 9 14 1 16 12 18 13 19 25 20 14 21 24 22 15 23 16 24
REMARK SMILES IDX 17 26 18 27 19 28 23 29 20 30 22 31 21 32
REMARK H PARENT 4 15 1 17 16 25
ROOT
ATOM      1  C   UNL     1     -13.426 -45.263  29.307  1.00  0.00     0.061 C 
ENDROOT
BRANCH   1   2
ATOM      2  C   UNL     1     -13.371 -44.410  30.531  1.00  0.00     0.091 A 
ATOM      3  C   UNL     1      -7.750 -43.153  33.243  1.00  0.00     0.113 C 
ATOM      4  C   UNL     1      -8.388 -42.399  34.145  1.00  0.00     0.125 C 
ATOM      5  C   UNL     1      -8.513 -43.839  32.137  1.00  0.00     0.113 C 
ATOM      6  N   UNL     1      -9.740 -42.181  34.133  1.00  0.00    -0.358 N 
ATOM      7  C   UNL     1     -10.018 -43.623  32.186  1.00  0.00    -0.016 A 
ATOM      8  C   UNL     1     -10.585 -42.827  33.210  1.00  0.00     0.046 A 
ATOM      9  C   UNL     1     -10.835 -44.234  31.211  1.00  0.00     0.020 A 
ATOM     10  C   UNL     1     -11.967 -42.609  33.264  1.00  0.00     0.077 A 
ATOM     11  C   UNL     1     -12.223 -44.023  31.272  1.00  0.00     0.045 A 
ATOM     12  C   UNL     1     -12.733 -43.232  32.284  1.00  0.00     0.169 A 
ATOM     13  O   UNL     1     -14.084 -43.158  32.159  1.00  0.00    -0.356 OA
ATOM     14  N   UNL     1     -14.491 -43.900  31.064  1.00  0.00    -0.084 NA
ATOM     15  H   UNL     1     -10.153 -41.783  34.969  1.00  0.00     0.166 HD
BRANCH   3  16
ATOM     16  O   UNL     1      -6.384 -43.331  33.313  1.00  0.00    -0.510 OA
ATOM     17  H   UNL     1      -5.961 -42.471  33.475  1.00  0.00     0.293 HD
ENDBRANCH   3  16
ENDBRANCH   1   2
BRANCH   1  18
ATOM     18  C   UNL     1     -12.442 -44.872  28.192  1.00  0.00     0.010 C 
BRANCH  18  19
ATOM     19  C   UNL     1     -13.072 -44.265  26.922  1.00  0.00     0.000 C 
ATOM     20  C   UNL     1     -13.882 -45.283  26.110  1.00  0.00     0.065 C 
ATOM     21  C   UNL     1     -13.965 -43.073  27.297  1.00  0.00     0.065 C 
ATOM     22  C   UNL     1     -14.528 -44.642  24.885  1.00  0.00     0.262 C 
ATOM     23  C   UNL     1     -14.597 -42.437  26.069  1.00  0.00     0.262 C 
ATOM     24  N   UNL     1     -15.386 -43.474  25.311  1.00  0.00    -0.331 N 
ATOM     25  H   UNL     1     -16.107 -43.843  25.943  1.00  0.00     0.348 HD
BRANCH  24  26
ATOM     26  C   UNL     1     -16.134 -42.849  24.149  1.00  0.00     0.299 C 
BRANCH  26  27
ATOM     27  C   UNL     1     -17.521 -42.397  24.516  1.00  0.00     0.006 A 
ATOM     28  C   UNL     1     -17.944 -42.406  25.854  1.00  0.00     0.009 A 
ATOM     29  C   UNL     1     -18.406 -41.940  23.527  1.00  0.00     0.009 A 
ATOM     30  C   UNL     1     -19.222 -41.961  26.194  1.00  0.00     0.001 A 
ATOM     31  C   UNL     1     -19.683 -41.496  23.871  1.00  0.00     0.001 A 
ATOM     32  C   UNL     1     -20.089 -41.504  25.204  1.00  0.00     0.000 A 
ENDBRANCH  26  27
ENDBRANCH  24  26
ENDBRANCH  18  19
ENDBRANCH   1  18
TORSDOF 6
ENDMDL
MODEL 8
REMARK VINA RESULT:   -10.869      3.432      5.330
REMARK INTER + INTRA:         -14.932
REMARK INTER:                 -14.385
REMARK INTRA:                  -0.546
REMARK UNBOUND:                -0.569
REMARK SMILES OC1=CNc2cc3onc(CC[C@H]4CC[N@H+](Cc5ccccc5)CC4)c3cc2C1
REMARK SMILES IDX 11 1 10 2 2 3 3 4 29 5 4 6 28 7 5 8 27 9 6 10 26 11 7 12
REMARK SMILES IDX 8 13 9 14 1 16 12 18 13 19 25 20 14 21 24 22 15 23 16 24
REMARK SMILES IDX 17 26 18 27 19 28 23 29 20 30 22 31 21 32
REMARK H PARENT 4 15 1 17 16 25
ROOT
ATOM      1  C   UNL     1     -17.436 -42.578  22.918  1.00  0.00     0.061 C 
ENDROOT
BRANCH   1   2
ATOM      2  C   UNL     1     -18.683 -41.858  23.309  1.00  0.00     0.091 A 
ATOM      3  C   UNL     1     -21.457 -37.891  19.174  1.00  0.00     0.113 C 
ATOM      4  C   UNL     1     -22.419 -37.671  20.077  1.00  0.00     0.125 C 
ATOM      5  C   UNL     1     -20.331 -38.850  19.468  1.00  0.00     0.113 C 
ATOM      6  N   UNL     1     -22.470 -38.288  21.298  1.00  0.00    -0.358 N 
ATOM      7  C   UNL     1     -20.386 -39.474  20.855  1.00  0.00    -0.016 A 
ATOM      8  C   UNL     1     -21.441 -39.140  21.739  1.00  0.00     0.046 A 
ATOM      9  C   UNL     1     -19.372 -40.373  21.248  1.00  0.00     0.020 A 
ATOM     10  C   UNL     1     -21.513 -39.714  23.015  1.00  0.00     0.077 A 
ATOM     11  C   UNL     1     -19.439 -40.941  22.532  1.00  0.00     0.045 A 
ATOM     12  C   UNL     1     -20.491 -40.593  23.360  1.00  0.00     0.169 A 
ATOM     13  O   UNL     1     -20.367 -41.249  24.542  1.00  0.00    -0.356 OA
ATOM     14  N   UNL     1     -19.231 -42.040  24.519  1.00  0.00    -0.084 NA
ATOM     15  H   UNL     1     -23.104 -37.899  21.987  1.00  0.00     0.166 HD
BRANCH   3  16
ATOM     16  O   UNL     1     -21.466 -37.235  17.960  1.00  0.00    -0.510 OA
ATOM     17  H   UNL     1     -22.380 -36.985  17.743  1.00  0.00     0.293 HD
ENDBRANCH   3  16
ENDBRANCH   1   2
BRANCH   1  18
ATOM     18  C   UNL     1     -16.188 -42.221  23.742  1.00  0.00     0.010 C 
BRANCH  18  19
ATOM     19  C   UNL     1     -15.874 -43.159  24.926  1.00  0.00     0.000 C 
ATOM     20  C   UNL     1     -14.488 -43.808  24.824  1.00  0.00     0.065 C 
ATOM     21  C   UNL     1     -15.990 -42.390  26.250  1.00  0.00     0.065 C 
ATOM     22  C   UNL     1     -14.190 -44.694  26.030  1.00  0.00     0.262 C 
ATOM     23  C   UNL     1     -15.699 -43.285  27.445  1.00  0.00     0.262 C 
ATOM     24  N   UNL     1     -14.326 -43.890  27.301  1.00  0.00    -0.331 N 
ATOM     25  H   UNL     1     -13.648 -43.121  27.248  1.00  0.00     0.348 HD
BRANCH  24  26
ATOM     26  C   UNL     1     -13.950 -44.688  28.535  1.00  0.00     0.299 C 
BRANCH  26  27
ATOM     27  C   UNL     1     -12.480 -44.999  28.610  1.00  0.00     0.006 A 
ATOM     28  C   UNL     1     -11.557 -44.003  28.962  1.00  0.00     0.009 A 
ATOM     29  C   UNL     1     -12.013 -46.296  28.345  1.00  0.00     0.009 A 
ATOM     30  C   UNL     1     -10.196 -44.302  29.056  1.00  0.00     0.001 A 
ATOM     31  C   UNL     1     -10.652 -46.590  28.439  1.00  0.00     0.001 A 
ATOM     32  C   UNL     1      -9.746 -45.595  28.797  1.00  0.00     0.000 A 
ENDBRANCH  26  27
ENDBRANCH  24  26
ENDBRANCH  18  19
ENDBRANCH   1  18
TORSDOF 6
ENDMDL
MODEL 9
REMARK VINA RESULT:   -10.862      3.481     11.211
REMARK INTER + INTRA:         -14.923
REMARK INTER:                 -14.358
REMARK INTRA:                  -0.565
REMARK UNBOUND:                -0.569
REMARK SMILES OC1=CNc2cc3onc(CC[C@H]4CC[N@H+](Cc5ccccc5)CC4)c3cc2C1
REMARK SMILES IDX 11 1 10 2 2 3 3 4 29 5 4 6 28 7 5 8 27 9 6 10 26 11 7 12
REMARK SMILES IDX 8 13 9 14 1 16 12 18 13 19 25 20 14 21 24 22 15 23 16 24
REMARK SMILES IDX 17 26 18 27 19 28 23 29 20 30 22 31 21 32
REMARK H PARENT 4 15 1 17 16 25
ROOT
ATOM      1  C   UNL     1     -13.407 -43.158  26.155  1.00  0.00     0.061 C 
ENDROOT
BRANCH   1   2
ATOM      2  C   UNL     1     -13.230 -44.116  27.287  1.00  0.00     0.091 A 
ATOM      3  C   UNL     1      -8.076 -43.689  30.998  1.00  0.00     0.113 C 
ATOM      4  C   UNL     1      -8.553 -44.705  31.726  1.00  0.00     0.125 C 
ATOM      5  C   UNL     1      -8.854 -43.153  29.823  1.00  0.00     0.113 C 
ATOM      6  N   UNL     1      -9.755 -45.315  31.483  1.00  0.00    -0.358 N 
ATOM      7  C   UNL     1     -10.156 -43.891  29.545  1.00  0.00    -0.016 A 
ATOM      8  C   UNL     1     -10.544 -44.975  30.368  1.00  0.00     0.046 A 
ATOM      9  C   UNL     1     -10.957 -43.488  28.455  1.00  0.00     0.020 A 
ATOM     10  C   UNL     1     -11.744 -45.657  30.133  1.00  0.00     0.077 A 
ATOM     11  C   UNL     1     -12.157 -44.179  28.214  1.00  0.00     0.045 A 
ATOM     12  C   UNL     1     -12.501 -45.227  29.048  1.00  0.00     0.169 A 
ATOM     13  O   UNL     1     -13.687 -45.751  28.643  1.00  0.00    -0.356 OA
ATOM     14  N   UNL     1     -14.146 -45.062  27.534  1.00  0.00    -0.084 NA
ATOM     15  H   UNL     1      -9.926 -46.202  31.943  1.00  0.00     0.166 HD
BRANCH   3  16
ATOM     16  O   UNL     1      -6.856 -43.119  31.298  1.00  0.00    -0.510 OA
ATOM     17  H   UNL     1      -6.967 -42.157  31.375  1.00  0.00     0.293 HD
ENDBRANCH   3  16
ENDBRANCH   1   2
BRANCH   1  18
ATOM     18  C   UNL     1     -14.690 -42.313  26.208  1.00  0.00     0.010 C 
BRANCH  18  19
ATOM     19  C   UNL     1     -15.817 -42.742  25.246  1.00  0.00     0.000 C 
ATOM     20  C   UNL     1     -17.219 -42.474  25.808  1.00  0.00     0.065 C 
ATOM     21  C   UNL     1     -15.655 -42.028  23.896  1.00  0.00     0.065 C 
ATOM     22  C   UNL     1     -18.309 -42.868  24.816  1.00  0.00     0.262 C 
ATOM     23  C   UNL     1     -16.742 -42.434  22.913  1.00  0.00     0.262 C 
ATOM     24  N   UNL     1     -18.096 -42.144  23.508  1.00  0.00    -0.331 N 
ATOM     25  H   UNL     1     -18.143 -41.138  23.707  1.00  0.00     0.348 HD
BRANCH  24  26
ATOM     26  C   UNL     1     -19.202 -42.418  22.507  1.00  0.00     0.299 C 
BRANCH  26  27
ATOM     27  C   UNL     1     -19.751 -41.167  21.877  1.00  0.00     0.006 A 
ATOM     28  C   UNL     1     -20.093 -41.143  20.517  1.00  0.00     0.009 A 
ATOM     29  C   UNL     1     -19.945 -40.009  22.648  1.00  0.00     0.009 A 
ATOM     30  C   UNL     1     -20.627 -39.988  19.943  1.00  0.00     0.001 A 
ATOM     31  C   UNL     1     -20.478 -38.857  22.069  1.00  0.00     0.001 A 
ATOM     32  C   UNL     1     -20.821 -38.848  20.720  1.00  0.00     0.000 A 
ENDBRANCH  26  27
ENDBRANCH  24  26
ENDBRANCH  18  19
ENDBRANCH   1  18
TORSDOF 6
ENDMDL
