MODEL 1
REMARK VINA RESULT:   -11.371      0.000      0.000
REMARK INTER + INTRA:         -15.994
REMARK INTER:                 -15.691
REMARK INTRA:                  -0.303
REMARK UNBOUND:                -0.303
REMARK SMILES COc1cc2c(cc1OC)C(O)=C(C[C@H]1CC[N@@H+](Cc3ccccc3)CC1)C2
REMARK SMILES IDX 14 1 13 2 11 3 6 4 28 5 7 6 5 7 8 8 4 9 3 10 12 11 9 13
REMARK SMILES IDX 10 14 2 15 1 16 15 17 16 18 27 19 17 20 26 21 18 22 19 24
REMARK SMILES IDX 20 25 21 26 25 27 22 28 24 29 23 30
REMARK H PARENT 12 12 18 23
ROOT
ATOM      1  C   UNL     1     -13.427 -43.429  26.907  1.00  0.00     0.039 C 
ENDROOT
BRANCH   1   2
ATOM      2  C   UNL     1     -14.728 -43.071  26.269  1.00  0.00    -0.023 C 
ATOM      3  C   UNL     1     -15.033 -43.112  24.962  1.00  0.00     0.122 C 
ATOM      4  C   UNL     1     -16.431 -42.763  24.771  1.00  0.00     0.024 A 
ATOM      5  C   UNL     1     -15.960 -42.770  27.105  1.00  0.00     0.071 C 
ATOM      6  C   UNL     1     -17.186 -42.594  23.619  1.00  0.00     0.062 A 
ATOM      7  C   UNL     1     -16.988 -42.543  26.037  1.00  0.00    -0.029 A 
ATOM      8  C   UNL     1     -18.530 -42.206  23.740  1.00  0.00     0.161 A 
ATOM      9  C   UNL     1     -18.307 -42.161  26.181  1.00  0.00     0.055 A 
ATOM     10  C   UNL     1     -19.088 -42.006  25.027  1.00  0.00     0.161 A 
BRANCH   3  11
ATOM     11  O   UNL     1     -14.197 -43.427  23.939  1.00  0.00    -0.507 OA
ATOM     12  H   UNL     1     -13.389 -42.892  24.045  1.00  0.00     0.293 HD
ENDBRANCH   3  11
BRANCH   8  13
ATOM     13  O   UNL     1     -19.341 -41.947  22.666  1.00  0.00    -0.493 OA
ATOM     14  C   UNL     1     -19.243 -40.671  22.047  1.00  0.00     0.278 C 
ENDBRANCH   8  13
BRANCH  10  15
ATOM     15  O   UNL     1     -20.371 -41.591  25.283  1.00  0.00    -0.493 OA
ATOM     16  C   UNL     1     -20.633 -41.249  26.642  1.00  0.00     0.278 C 
ENDBRANCH  10  15
ENDBRANCH   1   2
BRANCH   1  17
ATOM     17  C   UNL     1     -13.291 -44.822  27.567  1.00  0.00     0.004 C 
ATOM     18  C   UNL     1     -14.161 -45.031  28.813  1.00  0.00     0.065 C 
ATOM     19  C   UNL     1     -11.838 -45.259  27.809  1.00  0.00     0.065 C 
ATOM     20  C   UNL     1     -13.516 -44.600  30.123  1.00  0.00     0.262 C 
ATOM     21  C   UNL     1     -11.243 -44.839  29.145  1.00  0.00     0.262 C 
ATOM     22  N   UNL     1     -12.167 -45.245  30.266  1.00  0.00    -0.331 N 
ATOM     23  H   UNL     1     -12.286 -46.263  30.209  1.00  0.00     0.348 HD
BRANCH  22  24
ATOM     24  C   UNL     1     -11.571 -44.965  31.632  1.00  0.00     0.299 C 
BRANCH  24  25
ATOM     25  C   UNL     1     -10.077 -45.135  31.669  1.00  0.00     0.006 A 
ATOM     26  C   UNL     1      -9.249 -44.076  32.075  1.00  0.00     0.009 A 
ATOM     27  C   UNL     1      -9.488 -46.349  31.283  1.00  0.00     0.009 A 
ATOM     28  C   UNL     1      -7.862 -44.228  32.084  1.00  0.00     0.001 A 
ATOM     29  C   UNL     1      -8.101 -46.496  31.296  1.00  0.00     0.001 A 
ATOM     30  C   UNL     1      -7.289 -45.436  31.693  1.00  0.00     0.000 A 
ENDBRANCH  24  25
ENDBRANCH  22  24
ENDBRANCH   1  17
TORSDOF 7
ENDMDL
MODEL 2
REMARK VINA RESULT:   -11.275      0.928      2.071
REMARK INTER + INTRA:         -15.862
REMARK INTER:                 -15.702
REMARK INTRA:                  -0.161
REMARK UNBOUND:                -0.303
REMARK SMILES COc1cc2c(cc1OC)C(O)=C(C[C@H]1CC[N@@H+](Cc3ccccc3)CC1)C2
REMARK SMILES IDX 14 1 13 2 11 3 6 4 28 5 7 6 5 7 8 8 4 9 3 10 12 11 9 13
REMARK SMILES IDX 10 14 2 15 1 16 15 17 16 18 27 19 17 20 26 21 18 22 19 24
REMARK SMILES IDX 20 25 21 26 25 27 22 28 24 29 23 30
REMARK H PARENT 12 12 18 23
ROOT
ATOM      1  C   UNL     1     -13.453 -43.587  26.982  1.00  0.00     0.039 C 
ENDROOT
BRANCH   1   2
ATOM      2  C   UNL     1     -14.768 -43.263  26.354  1.00  0.00    -0.023 C 
ATOM      3  C   UNL     1     -15.890 -42.863  26.972  1.00  0.00     0.122 C 
ATOM      4  C   UNL     1     -16.920 -42.574  25.988  1.00  0.00     0.024 A 
ATOM      5  C   UNL     1     -14.924 -43.187  24.845  1.00  0.00     0.071 C 
ATOM      6  C   UNL     1     -18.251 -42.209  26.132  1.00  0.00     0.062 A 
ATOM      7  C   UNL     1     -16.361 -42.778  24.721  1.00  0.00    -0.029 A 
ATOM      8  C   UNL     1     -19.034 -42.033  24.979  1.00  0.00     0.161 A 
ATOM      9  C   UNL     1     -17.111 -42.611  23.573  1.00  0.00     0.055 A 
ATOM     10  C   UNL     1     -18.451 -42.222  23.702  1.00  0.00     0.161 A 
BRANCH   3  11
ATOM     11  O   UNL     1     -16.081 -42.733  28.310  1.00  0.00    -0.507 OA
ATOM     12  H   UNL     1     -16.043 -43.625  28.701  1.00  0.00     0.293 HD
ENDBRANCH   3  11
BRANCH   8  13
ATOM     13  O   UNL     1     -20.373 -41.740  25.014  1.00  0.00    -0.493 OA
ATOM     14  C   UNL     1     -20.904 -41.181  26.208  1.00  0.00     0.278 C 
ENDBRANCH   8  13
BRANCH  10  15
ATOM     15  O   UNL     1     -19.112 -42.120  22.503  1.00  0.00    -0.493 OA
ATOM     16  C   UNL     1     -19.094 -40.821  21.916  1.00  0.00     0.278 C 
ENDBRANCH  10  15
ENDBRANCH   1   2
BRANCH   1  17
ATOM     17  C   UNL     1     -13.299 -44.944  27.707  1.00  0.00     0.004 C 
ATOM     18  C   UNL     1     -14.127 -45.085  28.990  1.00  0.00     0.065 C 
ATOM     19  C   UNL     1     -11.840 -45.376  27.922  1.00  0.00     0.065 C 
ATOM     20  C   UNL     1     -13.437 -44.591  30.254  1.00  0.00     0.262 C 
ATOM     21  C   UNL     1     -11.199 -44.890  29.214  1.00  0.00     0.262 C 
ATOM     22  N   UNL     1     -12.086 -45.234  30.385  1.00  0.00    -0.331 N 
ATOM     23  H   UNL     1     -12.210 -46.253  30.384  1.00  0.00     0.348 HD
BRANCH  22  24
ATOM     24  C   UNL     1     -11.443 -44.887  31.714  1.00  0.00     0.299 C 
BRANCH  24  25
ATOM     25  C   UNL     1      -9.952 -45.086  31.717  1.00  0.00     0.006 A 
ATOM     26  C   UNL     1      -9.095 -44.046  32.110  1.00  0.00     0.009 A 
ATOM     27  C   UNL     1      -9.395 -46.308  31.311  1.00  0.00     0.009 A 
ATOM     28  C   UNL     1      -7.711 -44.225  32.088  1.00  0.00     0.001 A 
ATOM     29  C   UNL     1      -8.011 -46.483  31.292  1.00  0.00     0.001 A 
ATOM     30  C   UNL     1      -7.171 -45.441  31.678  1.00  0.00     0.000 A 
ENDBRANCH  24  25
ENDBRANCH  22  24
ENDBRANCH   1  17
TORSDOF 7
ENDMDL
MODEL 3
REMARK VINA RESULT:   -11.204      3.838      8.931
REMARK INTER + INTRA:         -15.764
REMARK INTER:                 -14.811
REMARK INTRA:                  -0.952
REMARK UNBOUND:                -0.303
REMARK SMILES COc1cc2c(cc1OC)C(O)=C(C[C@H]1CC[N@@H+](Cc3ccccc3)CC1)C2
REMARK SMILES IDX 14 1 13 2 11 3 6 4 28 5 7 6 5 7 8 8 4 9 3 10 12 11 9 13
REMARK SMILES IDX 10 14 2 15 1 16 15 17 16 18 27 19 17 20 26 21 18 22 19 24
REMARK SMILES IDX 20 25 21 26 25 27 22 28 24 29 23 30
REMARK H PARENT 12 12 18 23
ROOT
ATOM      1  C   UNL     1     -11.511 -46.516  29.500  1.00  0.00     0.039 C 
ENDROOT
BRANCH   1   2
ATOM      2  C   UNL     1     -11.777 -45.449  30.509  1.00  0.00    -0.023 C 
ATOM      3  C   UNL     1     -12.967 -45.073  31.003  1.00  0.00     0.122 C 
ATOM      4  C   UNL     1     -12.778 -44.054  32.024  1.00  0.00     0.024 A 
ATOM      5  C   UNL     1     -10.641 -44.759  31.245  1.00  0.00     0.071 C 
ATOM      6  C   UNL     1     -13.690 -43.311  32.760  1.00  0.00     0.062 A 
ATOM      7  C   UNL     1     -11.400 -43.850  32.165  1.00  0.00    -0.029 A 
ATOM      8  C   UNL     1     -13.209 -42.350  33.663  1.00  0.00     0.161 A 
ATOM      9  C   UNL     1     -10.904 -42.910  33.047  1.00  0.00     0.055 A 
ATOM     10  C   UNL     1     -11.812 -42.166  33.812  1.00  0.00     0.161 A 
BRANCH   3  11
ATOM     11  O   UNL     1     -14.187 -45.543  30.638  1.00  0.00    -0.507 OA
ATOM     12  H   UNL     1     -14.044 -46.270  30.004  1.00  0.00     0.293 HD
ENDBRANCH   3  11
BRANCH   8  13
ATOM     13  O   UNL     1     -14.025 -41.519  34.385  1.00  0.00    -0.493 OA
ATOM     14  C   UNL     1     -15.292 -41.182  33.836  1.00  0.00     0.278 C 
ENDBRANCH   8  13
BRANCH  10  15
ATOM     15  O   UNL     1     -11.214 -41.238  34.628  1.00  0.00    -0.493 OA
ATOM     16  C   UNL     1      -9.955 -41.635  35.166  1.00  0.00     0.278 C 
ENDBRANCH  10  15
ENDBRANCH   1   2
BRANCH   1  17
ATOM     17  C   UNL     1     -11.471 -46.121  28.005  1.00  0.00     0.004 C 
ATOM     18  C   UNL     1     -10.851 -44.748  27.720  1.00  0.00     0.065 C 
ATOM     19  C   UNL     1     -12.811 -46.303  27.275  1.00  0.00     0.065 C 
ATOM     20  C   UNL     1     -11.831 -43.582  27.767  1.00  0.00     0.262 C 
ATOM     21  C   UNL     1     -13.746 -45.103  27.315  1.00  0.00     0.262 C 
ATOM     22  N   UNL     1     -13.006 -43.864  26.874  1.00  0.00    -0.331 N 
ATOM     23  H   UNL     1     -12.657 -44.040  25.924  1.00  0.00     0.348 HD
BRANCH  22  24
ATOM     24  C   UNL     1     -13.916 -42.656  26.773  1.00  0.00     0.299 C 
BRANCH  24  25
ATOM     25  C   UNL     1     -15.015 -42.829  25.760  1.00  0.00     0.006 A 
ATOM     26  C   UNL     1     -14.717 -43.215  24.444  1.00  0.00     0.009 A 
ATOM     27  C   UNL     1     -16.352 -42.591  26.113  1.00  0.00     0.009 A 
ATOM     28  C   UNL     1     -15.736 -43.350  23.500  1.00  0.00     0.001 A 
ATOM     29  C   UNL     1     -17.367 -42.728  25.166  1.00  0.00     0.001 A 
ATOM     30  C   UNL     1     -17.059 -43.105  23.861  1.00  0.00     0.000 A 
ENDBRANCH  24  25
ENDBRANCH  22  24
ENDBRANCH   1  17
TORSDOF 7
ENDMDL
MODEL 4
REMARK VINA RESULT:   -10.431      4.130      9.105
REMARK INTER + INTRA:         -14.697
REMARK INTER:                 -13.962
REMARK INTRA:                  -0.735
REMARK UNBOUND:                -0.303
REMARK SMILES COc1cc2c(cc1OC)C(O)=C(C[C@H]1CC[N@@H+](Cc3ccccc3)CC1)C2
REMARK SMILES IDX 14 1 13 2 11 3 6 4 28 5 7 6 5 7 8 8 4 9 3 10 12 11 9 13
REMARK SMILES IDX 10 14 2 15 1 16 15 17 16 18 27 19 17 20 26 21 18 22 19 24
REMARK SMILES IDX 20 25 21 26 25 27 22 28 24 29 23 30
REMARK H PARENT 12 12 18 23
ROOT
ATOM      1  C   UNL     1     -12.126 -46.495  29.242  1.00  0.00     0.039 C 
ENDROOT
BRANCH   1   2
ATOM      2  C   UNL     1     -12.081 -45.509  30.362  1.00  0.00    -0.023 C 
ATOM      3  C   UNL     1     -10.993 -45.040  30.991  1.00  0.00     0.122 C 
ATOM      4  C   UNL     1     -11.382 -44.034  31.966  1.00  0.00     0.024 A 
ATOM      5  C   UNL     1     -13.329 -44.768  30.810  1.00  0.00     0.071 C 
ATOM      6  C   UNL     1     -10.640 -43.325  32.901  1.00  0.00     0.062 A 
ATOM      7  C   UNL     1     -12.770 -43.876  31.877  1.00  0.00    -0.029 A 
ATOM      8  C   UNL     1     -11.304 -42.431  33.756  1.00  0.00     0.161 A 
ATOM      9  C   UNL     1     -13.444 -43.003  32.708  1.00  0.00     0.055 A 
ATOM     10  C   UNL     1     -12.706 -42.265  33.643  1.00  0.00     0.161 A 
BRANCH   3  11
ATOM     11  O   UNL     1      -9.704 -45.415  30.783  1.00  0.00    -0.507 OA
ATOM     12  H   UNL     1      -9.291 -44.742  30.211  1.00  0.00     0.293 HD
ENDBRANCH   3  11
BRANCH   8  13
ATOM     13  O   UNL     1     -10.675 -41.736  34.756  1.00  0.00    -0.493 OA
ATOM     14  C   UNL     1      -9.309 -42.029  35.017  1.00  0.00     0.278 C 
ENDBRANCH   8  13
BRANCH  10  15
ATOM     15  O   UNL     1     -13.478 -41.456  34.439  1.00  0.00    -0.493 OA
ATOM     16  C   UNL     1     -14.873 -41.479  34.147  1.00  0.00     0.278 C 
ENDBRANCH  10  15
ENDBRANCH   1   2
BRANCH   1  17
ATOM     17  C   UNL     1     -11.916 -45.979  27.799  1.00  0.00     0.004 C 
ATOM     18  C   UNL     1     -11.260 -44.595  27.700  1.00  0.00     0.065 C 
ATOM     19  C   UNL     1     -13.166 -46.080  26.911  1.00  0.00     0.065 C 
ATOM     20  C   UNL     1     -12.232 -43.424  27.735  1.00  0.00     0.262 C 
ATOM     21  C   UNL     1     -14.092 -44.873  26.947  1.00  0.00     0.262 C 
ATOM     22  N   UNL     1     -13.301 -43.613  26.696  1.00  0.00    -0.331 N 
ATOM     23  H   UNL     1     -12.848 -43.716  25.780  1.00  0.00     0.348 HD
BRANCH  22  24
ATOM     24  C   UNL     1     -14.187 -42.388  26.595  1.00  0.00     0.299 C 
BRANCH  24  25
ATOM     25  C   UNL     1     -15.344 -42.573  25.652  1.00  0.00     0.006 A 
ATOM     26  C   UNL     1     -15.128 -42.661  24.268  1.00  0.00     0.009 A 
ATOM     27  C   UNL     1     -16.657 -42.643  26.140  1.00  0.00     0.009 A 
ATOM     28  C   UNL     1     -16.205 -42.807  23.393  1.00  0.00     0.001 A 
ATOM     29  C   UNL     1     -17.731 -42.790  25.261  1.00  0.00     0.001 A 
ATOM     30  C   UNL     1     -17.505 -42.870  23.889  1.00  0.00     0.000 A 
ENDBRANCH  24  25
ENDBRANCH  22  24
ENDBRANCH   1  17
TORSDOF 7
ENDMDL
MODEL 5
REMARK VINA RESULT:   -10.326      2.377      4.454
REMARK INTER + INTRA:         -14.553
REMARK INTER:                 -13.856
REMARK INTRA:                  -0.696
REMARK UNBOUND:                -0.303
REMARK SMILES COc1cc2c(cc1OC)C(O)=C(C[C@H]1CC[N@@H+](Cc3ccccc3)CC1)C2
REMARK SMILES IDX 14 1 13 2 11 3 6 4 28 5 7 6 5 7 8 8 4 9 3 10 12 11 9 13
REMARK SMILES IDX 10 14 2 15 1 16 15 17 16 18 27 19 17 20 26 21 18 22 19 24
REMARK SMILES IDX 20 25 21 26 25 27 22 28 24 29 23 30
REMARK H PARENT 12 12 18 23
ROOT
ATOM      1  C   UNL     1     -17.404 -43.005  24.743  1.00  0.00     0.039 C 
ENDROOT
BRANCH   1   2
ATOM      2  C   UNL     1     -18.266 -42.046  23.991  1.00  0.00    -0.023 C 
ATOM      3  C   UNL     1     -18.027 -41.509  22.784  1.00  0.00     0.122 C 
ATOM      4  C   UNL     1     -19.156 -40.689  22.377  1.00  0.00     0.024 A 
ATOM      5  C   UNL     1     -19.663 -41.696  24.473  1.00  0.00     0.071 C 
ATOM      6  C   UNL     1     -19.351 -39.882  21.265  1.00  0.00     0.062 A 
ATOM      7  C   UNL     1     -20.128 -40.781  23.380  1.00  0.00    -0.029 A 
ATOM      8  C   UNL     1     -20.550 -39.160  21.153  1.00  0.00     0.161 A 
ATOM      9  C   UNL     1     -21.315 -40.081  23.292  1.00  0.00     0.055 A 
ATOM     10  C   UNL     1     -21.534 -39.277  22.166  1.00  0.00     0.161 A 
BRANCH   3  11
ATOM     11  O   UNL     1     -16.915 -41.677  22.023  1.00  0.00    -0.507 OA
ATOM     12  H   UNL     1     -16.183 -41.915  22.621  1.00  0.00     0.293 HD
ENDBRANCH   3  11
BRANCH   8  13
ATOM     13  O   UNL     1     -20.811 -38.284  20.132  1.00  0.00    -0.493 OA
ATOM     14  C   UNL     1     -21.510 -38.772  18.994  1.00  0.00     0.278 C 
ENDBRANCH   8  13
BRANCH  10  15
ATOM     15  O   UNL     1     -22.728 -38.600  22.197  1.00  0.00    -0.493 OA
ATOM     16  C   UNL     1     -23.887 -39.418  22.053  1.00  0.00     0.278 C 
ENDBRANCH  10  15
ENDBRANCH   1   2
BRANCH   1  17
ATOM     17  C   UNL     1     -15.960 -42.576  25.095  1.00  0.00     0.004 C 
ATOM     18  C   UNL     1     -14.861 -43.375  24.383  1.00  0.00     0.065 C 
ATOM     19  C   UNL     1     -15.693 -42.462  26.604  1.00  0.00     0.065 C 
ATOM     20  C   UNL     1     -14.419 -44.639  25.106  1.00  0.00     0.262 C 
ATOM     21  C   UNL     1     -15.218 -43.740  27.282  1.00  0.00     0.262 C 
ATOM     22  N   UNL     1     -14.046 -44.314  26.525  1.00  0.00    -0.331 N 
ATOM     23  H   UNL     1     -13.311 -43.597  26.511  1.00  0.00     0.348 HD
BRANCH  22  24
ATOM     24  C   UNL     1     -13.448 -45.521  27.221  1.00  0.00     0.299 C 
BRANCH  24  25
ATOM     25  C   UNL     1     -12.161 -45.211  27.936  1.00  0.00     0.006 A 
ATOM     26  C   UNL     1     -11.716 -43.885  28.061  1.00  0.00     0.009 A 
ATOM     27  C   UNL     1     -11.377 -46.244  28.473  1.00  0.00     0.009 A 
ATOM     28  C   UNL     1     -10.509 -43.603  28.702  1.00  0.00     0.001 A 
ATOM     29  C   UNL     1     -10.172 -45.956  29.114  1.00  0.00     0.001 A 
ATOM     30  C   UNL     1      -9.738 -44.637  29.226  1.00  0.00     0.000 A 
ENDBRANCH  24  25
ENDBRANCH  22  24
ENDBRANCH   1  17
TORSDOF 7
ENDMDL
MODEL 6
REMARK VINA RESULT:   -10.284      1.734      3.132
REMARK INTER + INTRA:         -14.495
REMARK INTER:                 -13.764
REMARK INTRA:                  -0.731
REMARK UNBOUND:                -0.303
REMARK SMILES COc1cc2c(cc1OC)C(O)=C(C[C@H]1CC[N@@H+](Cc3ccccc3)CC1)C2
REMARK SMILES IDX 14 1 13 2 11 3 6 4 28 5 7 6 5 7 8 8 4 9 3 10 12 11 9 13
REMARK SMILES IDX 10 14 2 15 1 16 15 17 16 18 27 19 17 20 26 21 18 22 19 24
REMARK SMILES IDX 20 25 21 26 25 27 22 28 24 29 23 30
REMARK H PARENT 12 12 18 23
ROOT
ATOM      1  C   UNL     1     -15.200 -43.270  24.826  1.00  0.00     0.039 C 
ENDROOT
BRANCH   1   2
ATOM      2  C   UNL     1     -16.379 -42.585  24.219  1.00  0.00    -0.023 C 
ATOM      3  C   UNL     1     -16.378 -41.706  23.205  1.00  0.00     0.122 C 
ATOM      4  C   UNL     1     -17.745 -41.343  22.866  1.00  0.00     0.024 A 
ATOM      5  C   UNL     1     -17.798 -42.971  24.601  1.00  0.00     0.071 C 
ATOM      6  C   UNL     1     -18.252 -40.427  21.954  1.00  0.00     0.062 A 
ATOM      7  C   UNL     1     -18.595 -42.077  23.701  1.00  0.00    -0.029 A 
ATOM      8  C   UNL     1     -19.643 -40.254  21.871  1.00  0.00     0.161 A 
ATOM      9  C   UNL     1     -19.966 -41.923  23.637  1.00  0.00     0.055 A 
ATOM     10  C   UNL     1     -20.495 -41.018  22.707  1.00  0.00     0.161 A 
BRANCH   3  11
ATOM     11  O   UNL     1     -15.293 -41.205  22.561  1.00  0.00    -0.507 OA
ATOM     12  H   UNL     1     -15.612 -40.549  21.914  1.00  0.00     0.293 HD
ENDBRANCH   3  11
BRANCH   8  13
ATOM     13  O   UNL     1     -20.240 -39.329  21.055  1.00  0.00    -0.493 OA
ATOM     14  C   UNL     1     -19.936 -39.366  19.667  1.00  0.00     0.278 C 
ENDBRANCH   8  13
BRANCH  10  15
ATOM     15  O   UNL     1     -21.863 -40.917  22.753  1.00  0.00    -0.493 OA
ATOM     16  C   UNL     1     -22.556 -41.711  21.792  1.00  0.00     0.278 C 
ENDBRANCH  10  15
ENDBRANCH   1   2
BRANCH   1  17
ATOM     17  C   UNL     1     -14.547 -42.637  26.077  1.00  0.00     0.004 C 
ATOM     18  C   UNL     1     -13.143 -43.162  26.405  1.00  0.00     0.065 C 
ATOM     19  C   UNL     1     -15.453 -42.627  27.318  1.00  0.00     0.065 C 
ATOM     20  C   UNL     1     -13.114 -44.397  27.295  1.00  0.00     0.262 C 
ATOM     21  C   UNL     1     -15.367 -43.864  28.200  1.00  0.00     0.262 C 
ATOM     22  N   UNL     1     -13.925 -44.153  28.536  1.00  0.00    -0.331 N 
ATOM     23  H   UNL     1     -13.551 -43.323  29.011  1.00  0.00     0.348 HD
BRANCH  22  24
ATOM     24  C   UNL     1     -13.782 -45.302  29.515  1.00  0.00     0.299 C 
BRANCH  24  25
ATOM     25  C   UNL     1     -12.519 -45.228  30.329  1.00  0.00     0.006 A 
ATOM     26  C   UNL     1     -12.287 -44.144  31.188  1.00  0.00     0.009 A 
ATOM     27  C   UNL     1     -11.547 -46.235  30.227  1.00  0.00     0.009 A 
ATOM     28  C   UNL     1     -11.103 -44.065  31.923  1.00  0.00     0.001 A 
ATOM     29  C   UNL     1     -10.365 -46.153  30.965  1.00  0.00     0.001 A 
ATOM     30  C   UNL     1     -10.143 -45.068  31.810  1.00  0.00     0.000 A 
ENDBRANCH  24  25
ENDBRANCH  22  24
ENDBRANCH   1  17
TORSDOF 7
ENDMDL
MODEL 7
REMARK VINA RESULT:   -10.269      3.315     10.420
REMARK INTER + INTRA:         -14.474
REMARK INTER:                 -13.947
REMARK INTRA:                  -0.526
REMARK UNBOUND:                -0.303
REMARK SMILES COc1cc2c(cc1OC)C(O)=C(C[C@H]1CC[N@@H+](Cc3ccccc3)CC1)C2
REMARK SMILES IDX 14 1 13 2 11 3 6 4 28 5 7 6 5 7 8 8 4 9 3 10 12 11 9 13
REMARK SMILES IDX 10 14 2 15 1 16 15 17 16 18 27 19 17 20 26 21 18 22 19 24
REMARK SMILES IDX 20 25 21 26 25 27 22 28 24 29 23 30
REMARK H PARENT 12 12 18 23
ROOT
ATOM      1  C   UNL     1     -14.175 -44.281  25.786  1.00  0.00     0.039 C 
ENDROOT
BRANCH   1   2
ATOM      2  C   UNL     1     -13.252 -44.482  26.942  1.00  0.00    -0.023 C 
ATOM      3  C   UNL     1     -12.744 -45.642  27.388  1.00  0.00     0.122 C 
ATOM      4  C   UNL     1     -11.824 -45.388  28.485  1.00  0.00     0.024 A 
ATOM      5  C   UNL     1     -12.625 -43.302  27.665  1.00  0.00     0.071 C 
ATOM      6  C   UNL     1     -11.119 -46.254  29.310  1.00  0.00     0.062 A 
ATOM      7  C   UNL     1     -11.757 -44.002  28.667  1.00  0.00    -0.029 A 
ATOM      8  C   UNL     1     -10.322 -45.715  30.333  1.00  0.00     0.161 A 
ATOM      9  C   UNL     1     -10.980 -43.450  29.666  1.00  0.00     0.055 A 
ATOM     10  C   UNL     1     -10.246 -44.309  30.495  1.00  0.00     0.161 A 
BRANCH   3  11
ATOM     11  O   UNL     1     -13.018 -46.886  26.918  1.00  0.00    -0.507 OA
ATOM     12  H   UNL     1     -13.432 -47.389  27.644  1.00  0.00     0.293 HD
ENDBRANCH   3  11
BRANCH   8  13
ATOM     13  O   UNL     1      -9.642 -46.482  31.242  1.00  0.00    -0.493 OA
ATOM     14  C   UNL     1      -8.233 -46.603  31.095  1.00  0.00     0.278 C 
ENDBRANCH   8  13
BRANCH  10  15
ATOM     15  O   UNL     1      -9.538 -43.658  31.474  1.00  0.00    -0.493 OA
ATOM     16  C   UNL     1     -10.282 -43.351  32.651  1.00  0.00     0.278 C 
ENDBRANCH  10  15
ENDBRANCH   1   2
BRANCH   1  17
ATOM     17  C   UNL     1     -14.738 -42.863  25.534  1.00  0.00     0.004 C 
ATOM     18  C   UNL     1     -15.928 -42.477  26.421  1.00  0.00     0.065 C 
ATOM     19  C   UNL     1     -15.009 -42.553  24.053  1.00  0.00     0.065 C 
ATOM     20  C   UNL     1     -17.292 -42.869  25.869  1.00  0.00     0.262 C 
ATOM     21  C   UNL     1     -16.396 -42.928  23.550  1.00  0.00     0.262 C 
ATOM     22  N   UNL     1     -17.445 -42.350  24.467  1.00  0.00    -0.331 N 
ATOM     23  H   UNL     1     -17.311 -41.332  24.481  1.00  0.00     0.348 HD
BRANCH  22  24
ATOM     24  C   UNL     1     -18.851 -42.584  23.951  1.00  0.00     0.299 C 
BRANCH  24  25
ATOM     25  C   UNL     1     -19.431 -41.382  23.256  1.00  0.00     0.006 A 
ATOM     26  C   UNL     1     -20.636 -40.815  23.698  1.00  0.00     0.009 A 
ATOM     27  C   UNL     1     -18.784 -40.821  22.144  1.00  0.00     0.009 A 
ATOM     28  C   UNL     1     -21.185 -39.716  23.036  1.00  0.00     0.001 A 
ATOM     29  C   UNL     1     -19.336 -39.722  21.486  1.00  0.00     0.001 A 
ATOM     30  C   UNL     1     -20.536 -39.172  21.931  1.00  0.00     0.000 A 
ENDBRANCH  24  25
ENDBRANCH  22  24
ENDBRANCH   1  17
TORSDOF 7
ENDMDL
MODEL 8
REMARK VINA RESULT:   -10.138      3.325     10.895
REMARK INTER + INTRA:         -14.293
REMARK INTER:                 -13.535
REMARK INTRA:                  -0.758
REMARK UNBOUND:                -0.303
REMARK SMILES COc1cc2c(cc1OC)C(O)=C(C[C@H]1CC[N@@H+](Cc3ccccc3)CC1)C2
REMARK SMILES IDX 14 1 13 2 11 3 6 4 28 5 7 6 5 7 8 8 4 9 3 10 12 11 9 13
REMARK SMILES IDX 10 14 2 15 1 16 15 17 16 18 27 19 17 20 26 21 18 22 19 24
REMARK SMILES IDX 20 25 21 26 25 27 22 28 24 29 23 30
REMARK H PARENT 12 12 18 23
ROOT
ATOM      1  C   UNL     1     -16.018 -42.367  24.918  1.00  0.00     0.039 C 
ENDROOT
BRANCH   1   2
ATOM      2  C   UNL     1     -15.279 -43.142  25.957  1.00  0.00    -0.023 C 
ATOM      3  C   UNL     1     -15.524 -43.176  27.276  1.00  0.00     0.122 C 
ATOM      4  C   UNL     1     -14.625 -44.120  27.921  1.00  0.00     0.024 A 
ATOM      5  C   UNL     1     -14.221 -44.163  25.575  1.00  0.00     0.071 C 
ATOM      6  C   UNL     1     -14.441 -44.446  29.257  1.00  0.00     0.062 A 
ATOM      7  C   UNL     1     -13.836 -44.701  26.921  1.00  0.00    -0.029 A 
ATOM      8  C   UNL     1     -13.452 -45.383  29.596  1.00  0.00     0.161 A 
ATOM      9  C   UNL     1     -12.857 -45.624  27.230  1.00  0.00     0.055 A 
ATOM     10  C   UNL     1     -12.673 -45.979  28.573  1.00  0.00     0.161 A 
BRANCH   3  11
ATOM     11  O   UNL     1     -16.458 -42.457  27.951  1.00  0.00    -0.507 OA
ATOM     12  H   UNL     1     -17.302 -42.548  27.470  1.00  0.00     0.293 HD
ENDBRANCH   3  11
BRANCH   8  13
ATOM     13  O   UNL     1     -13.144 -45.722  30.888  1.00  0.00    -0.493 OA
ATOM     14  C   UNL     1     -12.617 -44.712  31.737  1.00  0.00     0.278 C 
ENDBRANCH   8  13
BRANCH  10  15
ATOM     15  O   UNL     1     -11.653 -46.876  28.770  1.00  0.00    -0.493 OA
ATOM     16  C   UNL     1     -10.344 -46.312  28.746  1.00  0.00     0.278 C 
ENDBRANCH  10  15
ENDBRANCH   1   2
BRANCH   1  17
ATOM     17  C   UNL     1     -17.275 -43.004  24.280  1.00  0.00     0.004 C 
ATOM     18  C   UNL     1     -17.566 -42.551  22.844  1.00  0.00     0.065 C 
ATOM     19  C   UNL     1     -18.530 -42.931  25.165  1.00  0.00     0.065 C 
ATOM     20  C   UNL     1     -18.423 -41.298  22.729  1.00  0.00     0.262 C 
ATOM     21  C   UNL     1     -19.377 -41.678  24.994  1.00  0.00     0.262 C 
ATOM     22  N   UNL     1     -19.683 -41.463  23.532  1.00  0.00    -0.331 N 
ATOM     23  H   UNL     1     -20.173 -42.301  23.197  1.00  0.00     0.348 HD
BRANCH  22  24
ATOM     24  C   UNL     1     -20.628 -40.300  23.307  1.00  0.00     0.299 C 
BRANCH  24  25
ATOM     25  C   UNL     1     -20.880 -40.018  21.851  1.00  0.00     0.006 A 
ATOM     26  C   UNL     1     -20.490 -38.795  21.284  1.00  0.00     0.009 A 
ATOM     27  C   UNL     1     -21.524 -40.967  21.042  1.00  0.00     0.009 A 
ATOM     28  C   UNL     1     -20.747 -38.526  19.939  1.00  0.00     0.001 A 
ATOM     29  C   UNL     1     -21.778 -40.694  19.698  1.00  0.00     0.001 A 
ATOM     30  C   UNL     1     -21.392 -39.474  19.148  1.00  0.00     0.000 A 
ENDBRANCH  24  25
ENDBRANCH  22  24
ENDBRANCH   1  17
TORSDOF 7
ENDMDL
MODEL 9
REMARK VINA RESULT:   -10.001      3.820     10.113
REMARK INTER + INTRA:         -14.103
REMARK INTER:                 -13.402
REMARK INTRA:                  -0.701
REMARK UNBOUND:                -0.303
REMARK SMILES COc1cc2c(cc1OC)C(O)=C(C[C@H]1CC[N@@H+](Cc3ccccc3)CC1)C2
REMARK SMILES IDX 14 1 13 2 11 3 6 4 28 5 7 6 5 7 8 8 4 9 3 10 12 11 9 13
REMARK SMILES IDX 10 14 2 15 1 16 15 17 16 18 27 19 17 20 26 21 18 22 19 24
REMARK SMILES IDX 20 25 21 26 25 27 22 28 24 29 23 30
REMARK H PARENT 12 12 18 23
ROOT
ATOM      1  C   UNL     1     -12.185 -46.117  29.270  1.00  0.00     0.039 C 
ENDROOT
BRANCH   1   2
ATOM      2  C   UNL     1     -11.466 -45.261  30.258  1.00  0.00    -0.023 C 
ATOM      3  C   UNL     1     -12.003 -44.382  31.119  1.00  0.00     0.122 C 
ATOM      4  C   UNL     1     -10.961 -43.819  31.963  1.00  0.00     0.024 A 
ATOM      5  C   UNL     1      -9.979 -45.438  30.519  1.00  0.00     0.071 C 
ATOM      6  C   UNL     1     -11.003 -42.830  32.936  1.00  0.00     0.062 A 
ATOM      7  C   UNL     1      -9.753 -44.428  31.604  1.00  0.00    -0.029 A 
ATOM      8  C   UNL     1      -9.808 -42.454  33.571  1.00  0.00     0.161 A 
ATOM      9  C   UNL     1      -8.565 -44.073  32.214  1.00  0.00     0.055 A 
ATOM     10  C   UNL     1      -8.594 -43.091  33.213  1.00  0.00     0.161 A 
BRANCH   3  11
ATOM     11  O   UNL     1     -13.313 -44.040  31.224  1.00  0.00    -0.507 OA
ATOM     12  H   UNL     1     -13.647 -43.878  30.323  1.00  0.00     0.293 HD
ENDBRANCH   3  11
BRANCH   8  13
ATOM     13  O   UNL     1      -9.730 -41.443  34.494  1.00  0.00    -0.493 OA
ATOM     14  C   UNL     1      -9.547 -41.797  35.858  1.00  0.00     0.278 C 
ENDBRANCH   8  13
BRANCH  10  15
ATOM     15  O   UNL     1      -7.357 -42.792  33.726  1.00  0.00    -0.493 OA
ATOM     16  C   UNL     1      -6.296 -43.621  33.259  1.00  0.00     0.278 C 
ENDBRANCH  10  15
ENDBRANCH   1   2
BRANCH   1  17
ATOM     17  C   UNL     1     -12.099 -45.741  27.771  1.00  0.00     0.004 C 
ATOM     18  C   UNL     1     -11.460 -44.375  27.488  1.00  0.00     0.065 C 
ATOM     19  C   UNL     1     -13.418 -45.922  27.004  1.00  0.00     0.065 C 
ATOM     20  C   UNL     1     -12.431 -43.202  27.491  1.00  0.00     0.262 C 
ATOM     21  C   UNL     1     -14.344 -44.714  27.002  1.00  0.00     0.262 C 
ATOM     22  N   UNL     1     -13.581 -43.486  26.567  1.00  0.00    -0.331 N 
ATOM     23  H   UNL     1     -13.206 -43.677  25.631  1.00  0.00     0.348 HD
BRANCH  22  24
ATOM     24  C   UNL     1     -14.478 -42.273  26.425  1.00  0.00     0.299 C 
BRANCH  24  25
ATOM     25  C   UNL     1     -15.637 -42.503  25.494  1.00  0.00     0.006 A 
ATOM     26  C   UNL     1     -15.425 -42.653  24.115  1.00  0.00     0.009 A 
ATOM     27  C   UNL     1     -16.949 -42.553  25.988  1.00  0.00     0.009 A 
ATOM     28  C   UNL     1     -16.504 -42.841  23.250  1.00  0.00     0.001 A 
ATOM     29  C   UNL     1     -18.025 -42.743  25.120  1.00  0.00     0.001 A 
ATOM     30  C   UNL     1     -17.802 -42.884  23.752  1.00  0.00     0.000 A 
ENDBRANCH  24  25
ENDBRANCH  22  24
ENDBRANCH   1  17
TORSDOF 7
ENDMDL
