MODEL 1
REMARK VINA RESULT:   -11.525      0.000      0.000
REMARK INTER + INTRA:         -16.067
REMARK INTER:                 -15.567
REMARK INTRA:                  -0.500
REMARK UNBOUND:                -0.500
REMARK SMILES COc1cc2c(cc1OC)C(=O)[C@H](C[C@H]1CC[N@@H+](Cc3ccccc3)CC1)C2
REMARK SMILES IDX 14 1 15 2 17 3 18 4 16 5 26 6 27 7 19 9 20 10 21 11 25 12
REMARK SMILES IDX 22 13 24 14 23 15 13 16 11 17 28 18 6 19 5 20 7 21 4 22 8 23
REMARK SMILES IDX 3 24 12 25 9 26 10 27 2 28 1 29
REMARK H PARENT 18 8
ROOT
ATOM      1  C   UNL     1     -14.554 -44.443  27.458  1.00  0.00     0.016 C 
ENDROOT
BRANCH   1   2
ATOM      2  C   UNL     1     -13.109 -44.785  27.036  1.00  0.00     0.001 C 
ATOM      3  C   UNL     1     -11.954 -44.085  29.206  1.00  0.00     0.262 C 
ATOM      4  N   UNL     1     -11.572 -45.523  29.447  1.00  0.00    -0.331 N 
ATOM      5  C   UNL     1     -12.105 -43.834  27.710  1.00  0.00     0.065 C 
ATOM      6  C   UNL     1     -12.559 -46.500  28.851  1.00  0.00     0.262 C 
ATOM      7  C   UNL     1     -12.704 -46.233  27.356  1.00  0.00     0.065 C 
ATOM      8  H   UNL     1     -10.670 -45.689  28.983  1.00  0.00     0.348 HD
BRANCH   4   9
ATOM      9  C   UNL     1     -11.329 -45.779  30.924  1.00  0.00     0.299 C 
BRANCH   9  10
ATOM     10  C   UNL     1      -9.940 -45.408  31.366  1.00  0.00     0.006 A 
ATOM     11  C   UNL     1      -9.713 -44.223  32.086  1.00  0.00     0.009 A 
ATOM     12  C   UNL     1      -8.847 -46.229  31.047  1.00  0.00     0.009 A 
ATOM     13  C   UNL     1      -8.420 -43.868  32.470  1.00  0.00     0.001 A 
ATOM     14  C   UNL     1      -7.555 -45.867  31.433  1.00  0.00     0.001 A 
ATOM     15  C   UNL     1      -7.343 -44.688  32.143  1.00  0.00     0.000 A 
ENDBRANCH   9  10
ENDBRANCH   4   9
ENDBRANCH   1   2
BRANCH   1  16
ATOM     16  C   UNL     1     -15.084 -43.111  26.910  1.00  0.00     0.066 C 
ATOM     17  C   UNL     1     -15.356 -43.236  25.422  1.00  0.00     0.166 C 
ATOM     18  C   UNL     1     -16.435 -42.673  27.519  1.00  0.00     0.048 C 
ATOM     19  C   UNL     1     -16.704 -42.769  25.132  1.00  0.00     0.025 A 
ATOM     20  C   UNL     1     -17.313 -42.435  26.331  1.00  0.00    -0.033 A 
ATOM     21  C   UNL     1     -17.334 -42.666  23.904  1.00  0.00     0.062 A 
ATOM     22  C   UNL     1     -18.612 -41.966  26.321  1.00  0.00     0.055 A 
ATOM     23  C   UNL     1     -18.653 -42.196  23.875  1.00  0.00     0.161 A 
ATOM     24  C   UNL     1     -19.281 -41.823  25.091  1.00  0.00     0.161 A 
ATOM     25  O   UNL     1     -14.571 -43.655  24.589  1.00  0.00    -0.294 OA
BRANCH  23  26
ATOM     26  O   UNL     1     -19.393 -42.099  22.727  1.00  0.00    -0.493 OA
ATOM     27  C   UNL     1     -19.325 -40.889  21.983  1.00  0.00     0.278 C 
ENDBRANCH  23  26
BRANCH  24  28
ATOM     28  O   UNL     1     -20.566 -41.360  25.237  1.00  0.00    -0.493 OA
ATOM     29  C   UNL     1     -20.988 -41.070  26.567  1.00  0.00     0.278 C 
ENDBRANCH  24  28
ENDBRANCH   1  16
TORSDOF 6
ENDMDL
MODEL 2
REMARK VINA RESULT:   -11.110      1.551      2.694
REMARK INTER + INTRA:         -15.507
REMARK INTER:                 -14.827
REMARK INTRA:                  -0.680
REMARK UNBOUND:                -0.500
REMARK SMILES COc1cc2c(cc1OC)C(=O)[C@H](C[C@H]1CC[N@@H+](Cc3ccccc3)CC1)C2
REMARK SMILES IDX 14 1 15 2 17 3 18 4 16 5 26 6 27 7 19 9 20 10 21 11 25 12
REMARK SMILES IDX 22 13 24 14 23 15 13 16 11 17 28 18 6 19 5 20 7 21 4 22 8 23
REMARK SMILES IDX 3 24 12 25 9 26 10 27 2 28 1 29
REMARK H PARENT 18 8
ROOT
ATOM      1  C   UNL     1     -13.096 -43.159  26.966  1.00  0.00     0.016 C 
ENDROOT
BRANCH   1   2
ATOM      2  C   UNL     1     -11.995 -44.134  27.434  1.00  0.00     0.001 C 
ATOM      3  C   UNL     1     -11.230 -42.815  29.485  1.00  0.00     0.262 C 
ATOM      4  N   UNL     1     -11.735 -43.927  30.368  1.00  0.00    -0.331 N 
ATOM      5  C   UNL     1     -10.847 -43.373  28.119  1.00  0.00     0.065 C 
ATOM      6  C   UNL     1     -12.902 -44.672  29.764  1.00  0.00     0.262 C 
ATOM      7  C   UNL     1     -12.507 -45.219  28.395  1.00  0.00     0.065 C 
ATOM      8  H   UNL     1     -10.973 -44.607  30.482  1.00  0.00     0.348 HD
BRANCH   4   9
ATOM      9  C   UNL     1     -12.041 -43.414  31.764  1.00  0.00     0.299 C 
BRANCH   9  10
ATOM     10  C   UNL     1     -10.805 -43.138  32.576  1.00  0.00     0.006 A 
ATOM     11  C   UNL     1     -10.871 -42.332  33.724  1.00  0.00     0.009 A 
ATOM     12  C   UNL     1      -9.564 -43.666  32.185  1.00  0.00     0.009 A 
ATOM     13  C   UNL     1      -9.717 -42.056  34.458  1.00  0.00     0.001 A 
ATOM     14  C   UNL     1      -8.414 -43.385  32.924  1.00  0.00     0.001 A 
ATOM     15  C   UNL     1      -8.491 -42.580  34.057  1.00  0.00     0.000 A 
ENDBRANCH   9  10
ENDBRANCH   4   9
ENDBRANCH   1   2
BRANCH   1  16
ATOM     16  C   UNL     1     -14.357 -43.833  26.410  1.00  0.00     0.066 C 
ATOM     17  C   UNL     1     -15.589 -43.273  27.097  1.00  0.00     0.166 C 
ATOM     18  C   UNL     1     -14.597 -43.575  24.905  1.00  0.00     0.048 C 
ATOM     19  C   UNL     1     -16.557 -42.853  26.094  1.00  0.00     0.025 A 
ATOM     20  C   UNL     1     -15.992 -43.039  24.843  1.00  0.00    -0.033 A 
ATOM     21  C   UNL     1     -17.826 -42.335  26.287  1.00  0.00     0.062 A 
ATOM     22  C   UNL     1     -16.720 -42.706  23.717  1.00  0.00     0.055 A 
ATOM     23  C   UNL     1     -18.577 -41.988  25.156  1.00  0.00     0.161 A 
ATOM     24  C   UNL     1     -18.024 -42.199  23.867  1.00  0.00     0.161 A 
ATOM     25  O   UNL     1     -15.755 -43.191  28.302  1.00  0.00    -0.294 OA
BRANCH  23  26
ATOM     26  O   UNL     1     -19.822 -41.422  25.225  1.00  0.00    -0.493 OA
ATOM     27  C   UNL     1     -20.474 -41.382  26.488  1.00  0.00     0.278 C 
ENDBRANCH  23  26
BRANCH  24  28
ATOM     28  O   UNL     1     -18.619 -41.901  22.666  1.00  0.00    -0.493 OA
ATOM     29  C   UNL     1     -18.195 -40.698  22.031  1.00  0.00     0.278 C 
ENDBRANCH  24  28
ENDBRANCH   1  16
TORSDOF 6
ENDMDL
MODEL 3
REMARK VINA RESULT:   -10.692      1.352      2.366
REMARK INTER + INTRA:         -14.942
REMARK INTER:                 -14.177
REMARK INTRA:                  -0.765
REMARK UNBOUND:                -0.500
REMARK SMILES COc1cc2c(cc1OC)C(=O)[C@H](C[C@H]1CC[N@@H+](Cc3ccccc3)CC1)C2
REMARK SMILES IDX 14 1 15 2 17 3 18 4 16 5 26 6 27 7 19 9 20 10 21 11 25 12
REMARK SMILES IDX 22 13 24 14 23 15 13 16 11 17 28 18 6 19 5 20 7 21 4 22 8 23
REMARK SMILES IDX 3 24 12 25 9 26 10 27 2 28 1 29
REMARK H PARENT 18 8
ROOT
ATOM      1  C   UNL     1     -14.268 -42.761  26.922  1.00  0.00     0.016 C 
ENDROOT
BRANCH   1   2
ATOM      2  C   UNL     1     -13.056 -43.671  26.629  1.00  0.00     0.001 C 
ATOM      3  C   UNL     1     -11.647 -43.011  28.657  1.00  0.00     0.262 C 
ATOM      4  N   UNL     1     -11.792 -44.412  29.194  1.00  0.00    -0.331 N 
ATOM      5  C   UNL     1     -11.755 -43.026  27.136  1.00  0.00     0.065 C 
ATOM      6  C   UNL     1     -13.084 -45.072  28.769  1.00  0.00     0.262 C 
ATOM      7  C   UNL     1     -13.181 -45.074  27.246  1.00  0.00     0.065 C 
ATOM      8  H   UNL     1     -11.027 -44.978  28.805  1.00  0.00     0.348 HD
BRANCH   4   9
ATOM      9  C   UNL     1     -11.601 -44.439  30.700  1.00  0.00     0.299 C 
BRANCH   9  10
ATOM     10  C   UNL     1     -10.220 -44.869  31.111  1.00  0.00     0.006 A 
ATOM     11  C   UNL     1      -9.372 -43.985  31.799  1.00  0.00     0.009 A 
ATOM     12  C   UNL     1      -9.749 -46.153  30.794  1.00  0.00     0.009 A 
ATOM     13  C   UNL     1      -8.082 -44.378  32.154  1.00  0.00     0.001 A 
ATOM     14  C   UNL     1      -8.457 -46.540  31.152  1.00  0.00     0.001 A 
ATOM     15  C   UNL     1      -7.625 -45.652  31.830  1.00  0.00     0.000 A 
ENDBRANCH   9  10
ENDBRANCH   4   9
ENDBRANCH   1   2
BRANCH   1  16
ATOM     16  C   UNL     1     -15.633 -43.395  26.623  1.00  0.00     0.066 C 
ATOM     17  C   UNL     1     -16.684 -42.824  27.557  1.00  0.00     0.166 C 
ATOM     18  C   UNL     1     -16.168 -43.098  25.203  1.00  0.00     0.048 C 
ATOM     19  C   UNL     1     -17.825 -42.359  26.780  1.00  0.00     0.025 A 
ATOM     20  C   UNL     1     -17.532 -42.530  25.436  1.00  0.00    -0.033 A 
ATOM     21  C   UNL     1     -19.014 -41.818  27.237  1.00  0.00     0.062 A 
ATOM     22  C   UNL     1     -18.465 -42.156  24.489  1.00  0.00     0.055 A 
ATOM     23  C   UNL     1     -19.970 -41.429  26.290  1.00  0.00     0.161 A 
ATOM     24  C   UNL     1     -19.697 -41.624  24.911  1.00  0.00     0.161 A 
ATOM     25  O   UNL     1     -16.599 -42.764  28.771  1.00  0.00    -0.294 OA
BRANCH  23  26
ATOM     26  O   UNL     1     -21.160 -40.837  26.621  1.00  0.00    -0.493 OA
ATOM     27  C   UNL     1     -22.297 -41.671  26.804  1.00  0.00     0.278 C 
ENDBRANCH  23  26
BRANCH  24  28
ATOM     28  O   UNL     1     -20.516 -41.285  23.862  1.00  0.00    -0.493 OA
ATOM     29  C   UNL     1     -20.217 -41.887  22.606  1.00  0.00     0.278 C 
ENDBRANCH  24  28
ENDBRANCH   1  16
TORSDOF 6
ENDMDL
MODEL 4
REMARK VINA RESULT:   -10.616      1.446      2.327
REMARK INTER + INTRA:         -14.840
REMARK INTER:                 -14.459
REMARK INTRA:                  -0.381
REMARK UNBOUND:                -0.500
REMARK SMILES COc1cc2c(cc1OC)C(=O)[C@H](C[C@H]1CC[N@@H+](Cc3ccccc3)CC1)C2
REMARK SMILES IDX 14 1 15 2 17 3 18 4 16 5 26 6 27 7 19 9 20 10 21 11 25 12
REMARK SMILES IDX 22 13 24 14 23 15 13 16 11 17 28 18 6 19 5 20 7 21 4 22 8 23
REMARK SMILES IDX 3 24 12 25 9 26 10 27 2 28 1 29
REMARK H PARENT 18 8
ROOT
ATOM      1  C   UNL     1     -14.511 -44.478  27.513  1.00  0.00     0.016 C 
ENDROOT
BRANCH   1   2
ATOM      2  C   UNL     1     -13.078 -44.814  27.049  1.00  0.00     0.001 C 
ATOM      3  C   UNL     1     -11.839 -43.821  29.053  1.00  0.00     0.262 C 
ATOM      4  N   UNL     1     -11.382 -45.206  29.435  1.00  0.00    -0.331 N 
ATOM      5  C   UNL     1     -12.081 -43.753  27.548  1.00  0.00     0.065 C 
ATOM      6  C   UNL     1     -12.356 -46.282  29.014  1.00  0.00     0.262 C 
ATOM      7  C   UNL     1     -12.593 -46.198  27.510  1.00  0.00     0.065 C 
ATOM      8  H   UNL     1     -10.500 -45.392  28.941  1.00  0.00     0.348 HD
BRANCH   4   9
ATOM      9  C   UNL     1     -11.048 -45.278  30.914  1.00  0.00     0.299 C 
BRANCH   9  10
ATOM     10  C   UNL     1     -11.952 -44.427  31.764  1.00  0.00     0.006 A 
ATOM     11  C   UNL     1     -13.319 -44.729  31.875  1.00  0.00     0.009 A 
ATOM     12  C   UNL     1     -11.446 -43.306  32.442  1.00  0.00     0.009 A 
ATOM     13  C   UNL     1     -14.160 -43.922  32.642  1.00  0.00     0.001 A 
ATOM     14  C   UNL     1     -12.293 -42.502  33.206  1.00  0.00     0.001 A 
ATOM     15  C   UNL     1     -13.647 -42.809  33.305  1.00  0.00     0.000 A 
ENDBRANCH   9  10
ENDBRANCH   4   9
ENDBRANCH   1   2
BRANCH   1  16
ATOM     16  C   UNL     1     -15.050 -43.133  27.008  1.00  0.00     0.066 C 
ATOM     17  C   UNL     1     -15.370 -43.227  25.527  1.00  0.00     0.166 C 
ATOM     18  C   UNL     1     -16.379 -42.700  27.669  1.00  0.00     0.048 C 
ATOM     19  C   UNL     1     -16.725 -42.747  25.290  1.00  0.00     0.025 A 
ATOM     20  C   UNL     1     -17.293 -42.434  26.515  1.00  0.00    -0.033 A 
ATOM     21  C   UNL     1     -17.392 -42.617  24.085  1.00  0.00     0.062 A 
ATOM     22  C   UNL     1     -18.589 -41.958  26.555  1.00  0.00     0.055 A 
ATOM     23  C   UNL     1     -18.709 -42.139  24.108  1.00  0.00     0.161 A 
ATOM     24  C   UNL     1     -19.296 -41.787  25.351  1.00  0.00     0.161 A 
ATOM     25  O   UNL     1     -14.615 -43.633  24.662  1.00  0.00    -0.294 OA
BRANCH  23  26
ATOM     26  O   UNL     1     -19.484 -42.015  22.986  1.00  0.00    -0.493 OA
ATOM     27  C   UNL     1     -19.191 -40.960  22.078  1.00  0.00     0.278 C 
ENDBRANCH  23  26
BRANCH  24  28
ATOM     28  O   UNL     1     -20.573 -41.321  25.547  1.00  0.00    -0.493 OA
ATOM     29  C   UNL     1     -20.978 -41.134  26.899  1.00  0.00     0.278 C 
ENDBRANCH  24  28
ENDBRANCH   1  16
TORSDOF 6
ENDMDL
MODEL 5
REMARK VINA RESULT:   -10.534      2.000      3.735
REMARK INTER + INTRA:         -14.730
REMARK INTER:                 -14.821
REMARK INTRA:                   0.092
REMARK UNBOUND:                -0.500
REMARK SMILES COc1cc2c(cc1OC)C(=O)[C@H](C[C@H]1CC[N@@H+](Cc3ccccc3)CC1)C2
REMARK SMILES IDX 14 1 15 2 17 3 18 4 16 5 26 6 27 7 19 9 20 10 21 11 25 12
REMARK SMILES IDX 22 13 24 14 23 15 13 16 11 17 28 18 6 19 5 20 7 21 4 22 8 23
REMARK SMILES IDX 3 24 12 25 9 26 10 27 2 28 1 29
REMARK H PARENT 18 8
ROOT
ATOM      1  C   UNL     1     -12.097 -44.597  29.013  1.00  0.00     0.016 C 
ENDROOT
BRANCH   1   2
ATOM      2  C   UNL     1     -10.739 -45.061  28.443  1.00  0.00     0.001 C 
ATOM      3  C   UNL     1      -9.247 -43.550  29.865  1.00  0.00     0.262 C 
ATOM      4  N   UNL     1      -8.685 -44.772  30.545  1.00  0.00    -0.331 N 
ATOM      5  C   UNL     1      -9.719 -43.910  28.460  1.00  0.00     0.065 C 
ATOM      6  C   UNL     1      -9.671 -45.916  30.604  1.00  0.00     0.262 C 
ATOM      7  C   UNL     1     -10.138 -46.261  29.193  1.00  0.00     0.065 C 
ATOM      8  H   UNL     1      -7.883 -45.097  29.992  1.00  0.00     0.348 HD
BRANCH   4   9
ATOM      9  C   UNL     1      -8.127 -44.423  31.914  1.00  0.00     0.299 C 
BRANCH   9  10
ATOM     10  C   UNL     1      -9.042 -43.537  32.715  1.00  0.00     0.006 A 
ATOM     11  C   UNL     1      -8.532 -42.733  33.747  1.00  0.00     0.009 A 
ATOM     12  C   UNL     1     -10.422 -43.519  32.458  1.00  0.00     0.009 A 
ATOM     13  C   UNL     1      -9.386 -41.934  34.507  1.00  0.00     0.001 A 
ATOM     14  C   UNL     1     -11.272 -42.718  33.222  1.00  0.00     0.001 A 
ATOM     15  C   UNL     1     -10.754 -41.928  34.245  1.00  0.00     0.000 A 
ENDBRANCH   9  10
ENDBRANCH   4   9
ENDBRANCH   1   2
BRANCH   1  16
ATOM     16  C   UNL     1     -13.322 -45.102  28.240  1.00  0.00     0.066 C 
ATOM     17  C   UNL     1     -14.531 -44.246  28.572  1.00  0.00     0.166 C 
ATOM     18  C   UNL     1     -13.182 -45.002  26.703  1.00  0.00     0.048 C 
ATOM     19  C   UNL     1     -15.160 -43.793  27.339  1.00  0.00     0.025 A 
ATOM     20  C   UNL     1     -14.395 -44.238  26.274  1.00  0.00    -0.033 A 
ATOM     21  C   UNL     1     -16.309 -43.036  27.188  1.00  0.00     0.062 A 
ATOM     22  C   UNL     1     -14.786 -43.928  24.985  1.00  0.00     0.055 A 
ATOM     23  C   UNL     1     -16.719 -42.709  25.888  1.00  0.00     0.161 A 
ATOM     24  C   UNL     1     -15.961 -43.181  24.785  1.00  0.00     0.161 A 
ATOM     25  O   UNL     1     -14.927 -43.980  29.693  1.00  0.00    -0.294 OA
BRANCH  23  26
ATOM     26  O   UNL     1     -17.808 -41.925  25.617  1.00  0.00    -0.493 OA
ATOM     27  C   UNL     1     -19.008 -42.168  26.341  1.00  0.00     0.278 C 
ENDBRANCH  23  26
BRANCH  24  28
ATOM     28  O   UNL     1     -16.216 -42.939  23.458  1.00  0.00    -0.493 OA
ATOM     29  C   UNL     1     -15.936 -41.624  22.989  1.00  0.00     0.278 C 
ENDBRANCH  24  28
ENDBRANCH   1  16
TORSDOF 6
ENDMDL
MODEL 6
REMARK VINA RESULT:   -10.073      3.291     10.198
REMARK INTER + INTRA:         -14.106
REMARK INTER:                 -13.560
REMARK INTRA:                  -0.546
REMARK UNBOUND:                -0.500
REMARK SMILES COc1cc2c(cc1OC)C(=O)[C@H](C[C@H]1CC[N@@H+](Cc3ccccc3)CC1)C2
REMARK SMILES IDX 14 1 15 2 17 3 18 4 16 5 26 6 27 7 19 9 20 10 21 11 25 12
REMARK SMILES IDX 22 13 24 14 23 15 13 16 11 17 28 18 6 19 5 20 7 21 4 22 8 23
REMARK SMILES IDX 3 24 12 25 9 26 10 27 2 28 1 29
REMARK H PARENT 18 8
ROOT
ATOM      1  C   UNL     1     -14.108 -44.369  26.119  1.00  0.00     0.016 C 
ENDROOT
BRANCH   1   2
ATOM      2  C   UNL     1     -14.532 -42.892  26.261  1.00  0.00     0.001 C 
ATOM      3  C   UNL     1     -15.246 -42.515  23.836  1.00  0.00     0.262 C 
ATOM      4  N   UNL     1     -16.668 -42.330  24.300  1.00  0.00    -0.331 N 
ATOM      5  C   UNL     1     -14.282 -42.124  24.952  1.00  0.00     0.065 C 
ATOM      6  C   UNL     1     -16.981 -43.110  25.557  1.00  0.00     0.262 C 
ATOM      7  C   UNL     1     -16.006 -42.714  26.661  1.00  0.00     0.065 C 
ATOM      8  H   UNL     1     -16.797 -41.336  24.527  1.00  0.00     0.348 HD
BRANCH   4   9
ATOM      9  C   UNL     1     -17.648 -42.628  23.180  1.00  0.00     0.299 C 
BRANCH   9  10
ATOM     10  C   UNL     1     -18.727 -41.588  23.048  1.00  0.00     0.006 A 
ATOM     11  C   UNL     1     -19.798 -41.554  23.956  1.00  0.00     0.009 A 
ATOM     12  C   UNL     1     -18.691 -40.652  22.003  1.00  0.00     0.009 A 
ATOM     13  C   UNL     1     -20.811 -40.606  23.815  1.00  0.00     0.001 A 
ATOM     14  C   UNL     1     -19.709 -39.706  21.867  1.00  0.00     0.001 A 
ATOM     15  C   UNL     1     -20.768 -39.685  22.771  1.00  0.00     0.000 A 
ENDBRANCH   9  10
ENDBRANCH   4   9
ENDBRANCH   1   2
BRANCH   1  16
ATOM     16  C   UNL     1     -14.061 -45.153  27.437  1.00  0.00     0.066 C 
ATOM     17  C   UNL     1     -12.856 -46.075  27.448  1.00  0.00     0.166 C 
ATOM     18  C   UNL     1     -13.887 -44.266  28.691  1.00  0.00     0.048 C 
ATOM     19  C   UNL     1     -12.100 -45.872  28.676  1.00  0.00     0.025 A 
ATOM     20  C   UNL     1     -12.700 -44.848  29.390  1.00  0.00    -0.033 A 
ATOM     21  C   UNL     1     -10.966 -46.539  29.108  1.00  0.00     0.062 A 
ATOM     22  C   UNL     1     -12.159 -44.462  30.601  1.00  0.00     0.055 A 
ATOM     23  C   UNL     1     -10.401 -46.157  30.332  1.00  0.00     0.161 A 
ATOM     24  C   UNL     1     -11.020 -45.129  31.089  1.00  0.00     0.161 A 
ATOM     25  O   UNL     1     -12.561 -46.870  26.573  1.00  0.00    -0.294 OA
BRANCH  23  26
ATOM     26  O   UNL     1      -9.254 -46.709  30.836  1.00  0.00    -0.493 OA
ATOM     27  C   UNL     1      -8.043 -45.973  30.713  1.00  0.00     0.278 C 
ENDBRANCH  23  26
BRANCH  24  28
ATOM     28  O   UNL     1     -10.588 -44.630  32.293  1.00  0.00    -0.493 OA
ATOM     29  C   UNL     1     -10.299 -43.236  32.334  1.00  0.00     0.278 C 
ENDBRANCH  24  28
ENDBRANCH   1  16
TORSDOF 6
ENDMDL
MODEL 7
REMARK VINA RESULT:    -9.954      3.045     10.374
REMARK INTER + INTRA:         -13.946
REMARK INTER:                 -14.050
REMARK INTRA:                   0.104
REMARK UNBOUND:                -0.500
REMARK SMILES COc1cc2c(cc1OC)C(=O)[C@H](C[C@H]1CC[N@@H+](Cc3ccccc3)CC1)C2
REMARK SMILES IDX 14 1 15 2 17 3 18 4 16 5 26 6 27 7 19 9 20 10 21 11 25 12
REMARK SMILES IDX 22 13 24 14 23 15 13 16 11 17 28 18 6 19 5 20 7 21 4 22 8 23
REMARK SMILES IDX 3 24 12 25 9 26 10 27 2 28 1 29
REMARK H PARENT 18 8
ROOT
ATOM      1  C   UNL     1     -14.563 -44.292  26.703  1.00  0.00     0.016 C 
ENDROOT
BRANCH   1   2
ATOM      2  C   UNL     1     -14.816 -42.779  26.531  1.00  0.00     0.001 C 
ATOM      3  C   UNL     1     -16.131 -42.908  24.343  1.00  0.00     0.262 C 
ATOM      4  N   UNL     1     -17.354 -42.407  25.068  1.00  0.00    -0.331 N 
ATOM      5  C   UNL     1     -14.873 -42.402  25.040  1.00  0.00     0.065 C 
ATOM      6  C   UNL     1     -17.373 -42.799  26.527  1.00  0.00     0.262 C 
ATOM      7  C   UNL     1     -16.107 -42.292  27.210  1.00  0.00     0.065 C 
ATOM      8  H   UNL     1     -17.339 -41.379  25.035  1.00  0.00     0.348 HD
BRANCH   4   9
ATOM      9  C   UNL     1     -18.623 -42.822  24.344  1.00  0.00     0.299 C 
BRANCH   9  10
ATOM     10  C   UNL     1     -19.282 -41.687  23.610  1.00  0.00     0.006 A 
ATOM     11  C   UNL     1     -20.518 -41.180  24.043  1.00  0.00     0.009 A 
ATOM     12  C   UNL     1     -18.682 -41.132  22.469  1.00  0.00     0.009 A 
ATOM     13  C   UNL     1     -21.140 -40.146  23.344  1.00  0.00     0.001 A 
ATOM     14  C   UNL     1     -19.310 -40.097  21.773  1.00  0.00     0.001 A 
ATOM     15  C   UNL     1     -20.538 -39.607  22.210  1.00  0.00     0.000 A 
ENDBRANCH   9  10
ENDBRANCH   4   9
ENDBRANCH   1   2
BRANCH   1  16
ATOM     16  C   UNL     1     -13.086 -44.684  26.832  1.00  0.00     0.066 C 
ATOM     17  C   UNL     1     -12.320 -43.587  27.549  1.00  0.00     0.166 C 
ATOM     18  C   UNL     1     -12.844 -45.951  27.684  1.00  0.00     0.048 C 
ATOM     19  C   UNL     1     -11.558 -44.164  28.648  1.00  0.00     0.025 A 
ATOM     20  C   UNL     1     -11.849 -45.517  28.714  1.00  0.00    -0.033 A 
ATOM     21  C   UNL     1     -10.691 -43.528  29.521  1.00  0.00     0.062 A 
ATOM     22  C   UNL     1     -11.247 -46.290  29.687  1.00  0.00     0.055 A 
ATOM     23  C   UNL     1     -10.075 -44.296  30.517  1.00  0.00     0.161 A 
ATOM     24  C   UNL     1     -10.341 -45.689  30.580  1.00  0.00     0.161 A 
ATOM     25  O   UNL     1     -12.330 -42.405  27.254  1.00  0.00    -0.294 OA
BRANCH  23  26
ATOM     26  O   UNL     1      -9.240 -43.769  31.465  1.00  0.00    -0.493 OA
ATOM     27  C   UNL     1      -9.819 -43.241  32.652  1.00  0.00     0.278 C 
ENDBRANCH  23  26
BRANCH  24  28
ATOM     28  O   UNL     1      -9.834 -46.575  31.498  1.00  0.00    -0.493 OA
ATOM     29  C   UNL     1      -8.475 -46.964  31.319  1.00  0.00     0.278 C 
ENDBRANCH  24  28
ENDBRANCH   1  16
TORSDOF 6
ENDMDL
MODEL 8
REMARK VINA RESULT:    -9.646      2.378      4.147
REMARK INTER + INTRA:         -13.529
REMARK INTER:                 -12.940
REMARK INTRA:                  -0.590
REMARK UNBOUND:                -0.500
REMARK SMILES COc1cc2c(cc1OC)C(=O)[C@H](C[C@H]1CC[N@@H+](Cc3ccccc3)CC1)C2
REMARK SMILES IDX 14 1 15 2 17 3 18 4 16 5 26 6 27 7 19 9 20 10 21 11 25 12
REMARK SMILES IDX 22 13 24 14 23 15 13 16 11 17 28 18 6 19 5 20 7 21 4 22 8 23
REMARK SMILES IDX 3 24 12 25 9 26 10 27 2 28 1 29
REMARK H PARENT 18 8
ROOT
ATOM      1  C   UNL     1     -16.912 -43.248  24.010  1.00  0.00     0.016 C 
ENDROOT
BRANCH   1   2
ATOM      2  C   UNL     1     -15.393 -43.086  23.788  1.00  0.00     0.001 C 
ATOM      3  C   UNL     1     -14.757 -42.569  26.209  1.00  0.00     0.262 C 
ATOM      4  N   UNL     1     -13.990 -43.865  26.267  1.00  0.00    -0.331 N 
ATOM      5  C   UNL     1     -14.805 -42.060  24.773  1.00  0.00     0.065 C 
ATOM      6  C   UNL     1     -14.562 -44.927  25.356  1.00  0.00     0.262 C 
ATOM      7  C   UNL     1     -14.610 -44.401  23.925  1.00  0.00     0.065 C 
ATOM      8  H   UNL     1     -13.033 -43.677  25.942  1.00  0.00     0.348 HD
BRANCH   4   9
ATOM      9  C   UNL     1     -13.850 -44.349  27.699  1.00  0.00     0.299 C 
BRANCH   9  10
ATOM     10  C   UNL     1     -12.455 -44.799  28.036  1.00  0.00     0.006 A 
ATOM     11  C   UNL     1     -12.123 -46.164  28.025  1.00  0.00     0.009 A 
ATOM     12  C   UNL     1     -11.470 -43.862  28.388  1.00  0.00     0.009 A 
ATOM     13  C   UNL     1     -10.835 -46.579  28.365  1.00  0.00     0.001 A 
ATOM     14  C   UNL     1     -10.184 -44.285  28.728  1.00  0.00     0.001 A 
ATOM     15  C   UNL     1      -9.868 -45.641  28.718  1.00  0.00     0.000 A 
ENDBRANCH   9  10
ENDBRANCH   4   9
ENDBRANCH   1   2
BRANCH   1  16
ATOM     16  C   UNL     1     -17.612 -42.010  24.584  1.00  0.00     0.066 C 
ATOM     17  C   UNL     1     -18.764 -41.602  23.683  1.00  0.00     0.166 C 
ATOM     18  C   UNL     1     -18.261 -42.239  25.968  1.00  0.00     0.048 C 
ATOM     19  C   UNL     1     -19.974 -41.448  24.479  1.00  0.00     0.025 A 
ATOM     20  C   UNL     1     -19.679 -41.800  25.786  1.00  0.00    -0.033 A 
ATOM     21  C   UNL     1     -21.231 -41.043  24.063  1.00  0.00     0.062 A 
ATOM     22  C   UNL     1     -20.675 -41.741  26.742  1.00  0.00     0.055 A 
ATOM     23  C   UNL     1     -22.254 -40.982  25.019  1.00  0.00     0.161 A 
ATOM     24  C   UNL     1     -21.962 -41.311  26.367  1.00  0.00     0.161 A 
ATOM     25  O   UNL     1     -18.695 -41.423  22.480  1.00  0.00    -0.294 OA
BRANCH  23  26
ATOM     26  O   UNL     1     -23.546 -40.644  24.717  1.00  0.00    -0.493 OA
ATOM     27  C   UNL     1     -24.316 -41.555  23.941  1.00  0.00     0.278 C 
ENDBRANCH  23  26
BRANCH  24  28
ATOM     28  O   UNL     1     -22.849 -41.316  27.416  1.00  0.00    -0.493 OA
ATOM     29  C   UNL     1     -23.636 -42.493  27.574  1.00  0.00     0.278 C 
ENDBRANCH  24  28
ENDBRANCH   1  16
TORSDOF 6
ENDMDL
MODEL 9
REMARK VINA RESULT:    -9.452      2.525      4.243
REMARK INTER + INTRA:         -13.267
REMARK INTER:                 -12.693
REMARK INTRA:                  -0.574
REMARK UNBOUND:                -0.500
REMARK SMILES COc1cc2c(cc1OC)C(=O)[C@H](C[C@H]1CC[N@@H+](Cc3ccccc3)CC1)C2
REMARK SMILES IDX 14 1 15 2 17 3 18 4 16 5 26 6 27 7 19 9 20 10 21 11 25 12
REMARK SMILES IDX 22 13 24 14 23 15 13 16 11 17 28 18 6 19 5 20 7 21 4 22 8 23
REMARK SMILES IDX 3 24 12 25 9 26 10 27 2 28 1 29
REMARK H PARENT 18 8
ROOT
ATOM      1  C   UNL     1     -16.831 -43.159  23.893  1.00  0.00     0.016 C 
ENDROOT
BRANCH   1   2
ATOM      2  C   UNL     1     -15.304 -43.007  23.729  1.00  0.00     0.001 C 
ATOM      3  C   UNL     1     -14.753 -42.513  26.176  1.00  0.00     0.262 C 
ATOM      4  N   UNL     1     -13.998 -43.815  26.252  1.00  0.00    -0.331 N 
ATOM      5  C   UNL     1     -14.745 -41.993  24.742  1.00  0.00     0.065 C 
ATOM      6  C   UNL     1     -14.545 -44.866  25.313  1.00  0.00     0.262 C 
ATOM      7  C   UNL     1     -14.536 -44.330  23.885  1.00  0.00     0.065 C 
ATOM      8  H   UNL     1     -13.029 -43.633  25.964  1.00  0.00     0.348 HD
BRANCH   4   9
ATOM      9  C   UNL     1     -13.916 -44.311  27.685  1.00  0.00     0.299 C 
BRANCH   9  10
ATOM     10  C   UNL     1     -12.538 -44.777  28.069  1.00  0.00     0.006 A 
ATOM     11  C   UNL     1     -11.553 -43.851  28.452  1.00  0.00     0.009 A 
ATOM     12  C   UNL     1     -12.210 -46.141  28.029  1.00  0.00     0.009 A 
ATOM     13  C   UNL     1     -10.269 -44.284  28.781  1.00  0.00     0.001 A 
ATOM     14  C   UNL     1     -10.922 -46.567  28.358  1.00  0.00     0.001 A 
ATOM     15  C   UNL     1      -9.954 -45.639  28.732  1.00  0.00     0.000 A 
ENDBRANCH   9  10
ENDBRANCH   4   9
ENDBRANCH   1   2
BRANCH   1  16
ATOM     16  C   UNL     1     -17.599 -41.835  24.000  1.00  0.00     0.066 C 
ATOM     17  C   UNL     1     -17.715 -41.192  22.630  1.00  0.00     0.166 C 
ATOM     18  C   UNL     1     -19.059 -41.992  24.484  1.00  0.00     0.048 C 
ATOM     19  C   UNL     1     -19.106 -40.849  22.370  1.00  0.00     0.025 A 
ATOM     20  C   UNL     1     -19.869 -41.296  23.437  1.00  0.00    -0.033 A 
ATOM     21  C   UNL     1     -19.642 -40.207  21.267  1.00  0.00     0.062 A 
ATOM     22  C   UNL     1     -21.235 -41.090  23.423  1.00  0.00     0.055 A 
ATOM     23  C   UNL     1     -21.026 -39.994  21.234  1.00  0.00     0.161 A 
ATOM     24  C   UNL     1     -21.818 -40.420  22.332  1.00  0.00     0.161 A 
ATOM     25  O   UNL     1     -16.792 -40.985  21.862  1.00  0.00    -0.294 OA
BRANCH  23  26
ATOM     26  O   UNL     1     -21.674 -39.415  20.176  1.00  0.00    -0.493 OA
ATOM     27  C   UNL     1     -21.053 -38.311  19.530  1.00  0.00     0.278 C 
ENDBRANCH  23  26
BRANCH  24  28
ATOM     28  O   UNL     1     -23.181 -40.301  22.449  1.00  0.00    -0.493 OA
ATOM     29  C   UNL     1     -23.693 -40.152  23.770  1.00  0.00     0.278 C 
ENDBRANCH  24  28
ENDBRANCH   1  16
TORSDOF 6
ENDMDL
