MODEL 1
REMARK VINA RESULT:   -12.939      0.000      0.000
REMARK INTER + INTRA:         -17.699
REMARK INTER:                 -17.099
REMARK INTRA:                  -0.601
REMARK UNBOUND:                -0.601
REMARK SMILES O[C@@H]1C=Nc2cc3onc(CC[C@H]4CC[N@H+](Cc5ccccc5)CC4)c3cc2C1
REMARK SMILES IDX 11 1 10 2 2 3 3 4 29 5 4 6 28 7 5 8 27 9 6 10 26 11 7 12
REMARK SMILES IDX 8 13 9 14 1 15 12 17 13 18 14 19 25 20 15 21 24 22 16 23
REMARK SMILES IDX 17 25 18 26 19 27 23 28 20 29 22 30 21 31
REMARK H PARENT 1 16 16 24
ROOT
ATOM      1  C   UNL     1     -13.850 -43.711  26.445  1.00  0.00     0.061 C 
ENDROOT
BRANCH   1   2
ATOM      2  C   UNL     1     -14.719 -43.200  25.346  1.00  0.00     0.091 A 
ATOM      3  C   UNL     1     -20.533 -41.205  26.599  1.00  0.00     0.160 C 
ATOM      4  C   UNL     1     -20.789 -41.205  25.105  1.00  0.00     0.116 C 
ATOM      5  C   UNL     1     -19.520 -42.290  26.946  1.00  0.00     0.075 C 
ATOM      6  N   UNL     1     -19.904 -41.512  24.208  1.00  0.00    -0.258 NA
ATOM      7  C   UNL     1     -18.379 -42.310  25.964  1.00  0.00    -0.018 A 
ATOM      8  C   UNL     1     -18.633 -41.933  24.632  1.00  0.00     0.070 A 
ATOM      9  C   UNL     1     -17.106 -42.768  26.363  1.00  0.00     0.020 A 
ATOM     10  C   UNL     1     -17.616 -41.989  23.672  1.00  0.00     0.079 A 
ATOM     11  C   UNL     1     -16.085 -42.823  25.401  1.00  0.00     0.045 A 
ATOM     12  C   UNL     1     -16.372 -42.436  24.104  1.00  0.00     0.169 A 
ATOM     13  O   UNL     1     -15.257 -42.568  23.337  1.00  0.00    -0.356 OA
ATOM     14  N   UNL     1     -14.214 -43.048  24.112  1.00  0.00    -0.084 NA
BRANCH   3  15
ATOM     15  O   UNL     1     -21.731 -41.439  27.323  1.00  0.00    -0.387 OA
ATOM     16  H   UNL     1     -21.934 -40.641  27.841  1.00  0.00     0.211 HD
ENDBRANCH   3  15
ENDBRANCH   1   2
BRANCH   1  17
ATOM     17  C   UNL     1     -13.811 -45.244  26.539  1.00  0.00     0.010 C 
BRANCH  17  18
ATOM     18  C   UNL     1     -13.178 -45.820  27.825  1.00  0.00     0.000 C 
ATOM     19  C   UNL     1     -13.550 -45.025  29.084  1.00  0.00     0.065 C 
ATOM     20  C   UNL     1     -11.649 -45.876  27.693  1.00  0.00     0.065 C 
ATOM     21  C   UNL     1     -12.907 -45.617  30.331  1.00  0.00     0.262 C 
ATOM     22  C   UNL     1     -11.003 -46.464  28.941  1.00  0.00     0.262 C 
ATOM     23  N   UNL     1     -11.407 -45.664  30.152  1.00  0.00    -0.331 N 
ATOM     24  H   UNL     1     -11.092 -44.697  30.012  1.00  0.00     0.348 HD
BRANCH  23  25
ATOM     25  C   UNL     1     -10.694 -46.157  31.397  1.00  0.00     0.299 C 
BRANCH  25  26
ATOM     26  C   UNL     1      -9.490 -45.327  31.752  1.00  0.00     0.006 A 
ATOM     27  C   UNL     1      -8.195 -45.831  31.560  1.00  0.00     0.009 A 
ATOM     28  C   UNL     1      -9.646 -44.043  32.299  1.00  0.00     0.009 A 
ATOM     29  C   UNL     1      -7.081 -45.069  31.916  1.00  0.00     0.001 A 
ATOM     30  C   UNL     1      -8.530 -43.284  32.651  1.00  0.00     0.001 A 
ATOM     31  C   UNL     1      -7.249 -43.799  32.462  1.00  0.00     0.000 A 
ENDBRANCH  25  26
ENDBRANCH  23  25
ENDBRANCH  17  18
ENDBRANCH   1  17
TORSDOF 6
ENDMDL
MODEL 2
REMARK VINA RESULT:   -12.227      1.769      2.630
REMARK INTER + INTRA:         -16.758
REMARK INTER:                 -16.183
REMARK INTRA:                  -0.575
REMARK UNBOUND:                -0.601
REMARK SMILES O[C@@H]1C=Nc2cc3onc(CC[C@H]4CC[N@H+](Cc5ccccc5)CC4)c3cc2C1
REMARK SMILES IDX 11 1 10 2 2 3 3 4 29 5 4 6 28 7 5 8 27 9 6 10 26 11 7 12
REMARK SMILES IDX 8 13 9 14 1 15 12 17 13 18 14 19 25 20 15 21 24 22 16 23
REMARK SMILES IDX 17 25 18 26 19 27 23 28 20 29 22 30 21 31
REMARK H PARENT 1 16 16 24
ROOT
ATOM      1  C   UNL     1     -14.435 -43.206  26.975  1.00  0.00     0.061 C 
ENDROOT
BRANCH   1   2
ATOM      2  C   UNL     1     -15.871 -42.873  27.198  1.00  0.00     0.091 A 
ATOM      3  C   UNL     1     -19.780 -42.374  22.317  1.00  0.00     0.160 C 
ATOM      4  C   UNL     1     -20.787 -41.754  23.266  1.00  0.00     0.116 C 
ATOM      5  C   UNL     1     -18.367 -42.041  22.781  1.00  0.00     0.075 C 
ATOM      6  N   UNL     1     -20.593 -41.588  24.538  1.00  0.00    -0.258 NA
ATOM      7  C   UNL     1     -18.226 -42.198  24.271  1.00  0.00    -0.018 A 
ATOM      8  C   UNL     1     -19.349 -41.946  25.082  1.00  0.00     0.070 A 
ATOM      9  C   UNL     1     -16.974 -42.517  24.836  1.00  0.00     0.020 A 
ATOM     10  C   UNL     1     -19.250 -42.025  26.475  1.00  0.00     0.079 A 
ATOM     11  C   UNL     1     -16.876 -42.598  26.235  1.00  0.00     0.045 A 
ATOM     12  C   UNL     1     -18.003 -42.353  26.997  1.00  0.00     0.169 A 
ATOM     13  O   UNL     1     -17.694 -42.478  28.315  1.00  0.00    -0.356 OA
ATOM     14  N   UNL     1     -16.353 -42.805  28.448  1.00  0.00    -0.084 NA
BRANCH   3  15
ATOM     15  O   UNL     1     -19.961 -41.893  20.994  1.00  0.00    -0.387 OA
ATOM     16  H   UNL     1     -19.084 -41.806  20.580  1.00  0.00     0.211 HD
ENDBRANCH   3  15
ENDBRANCH   1   2
BRANCH   1  17
ATOM     17  C   UNL     1     -14.180 -44.699  26.713  1.00  0.00     0.010 C 
BRANCH  17  18
ATOM     18  C   UNL     1     -13.445 -45.460  27.838  1.00  0.00     0.000 C 
ATOM     19  C   UNL     1     -13.846 -44.989  29.242  1.00  0.00     0.065 C 
ATOM     20  C   UNL     1     -11.924 -45.326  27.672  1.00  0.00     0.065 C 
ATOM     21  C   UNL     1     -13.100 -45.758  30.325  1.00  0.00     0.262 C 
ATOM     22  C   UNL     1     -11.175 -46.091  28.757  1.00  0.00     0.262 C 
ATOM     23  N   UNL     1     -11.610 -45.608  30.116  1.00  0.00    -0.331 N 
ATOM     24  H   UNL     1     -11.399 -44.605  30.178  1.00  0.00     0.348 HD
BRANCH  23  25
ATOM     25  C   UNL     1     -10.805 -46.272  31.217  1.00  0.00     0.299 C 
BRANCH  25  26
ATOM     26  C   UNL     1      -9.610 -45.462  31.641  1.00  0.00     0.006 A 
ATOM     27  C   UNL     1      -9.775 -44.183  32.194  1.00  0.00     0.009 A 
ATOM     28  C   UNL     1      -8.310 -45.967  31.471  1.00  0.00     0.009 A 
ATOM     29  C   UNL     1      -8.664 -43.424  32.562  1.00  0.00     0.001 A 
ATOM     30  C   UNL     1      -7.202 -45.204  31.841  1.00  0.00     0.001 A 
ATOM     31  C   UNL     1      -7.379 -43.934  32.384  1.00  0.00     0.000 A 
ENDBRANCH  25  26
ENDBRANCH  23  25
ENDBRANCH  17  18
ENDBRANCH   1  17
TORSDOF 6
ENDMDL
MODEL 3
REMARK VINA RESULT:   -12.014      1.442      1.998
REMARK INTER + INTRA:         -16.477
REMARK INTER:                 -16.270
REMARK INTRA:                  -0.207
REMARK UNBOUND:                -0.601
REMARK SMILES O[C@@H]1C=Nc2cc3onc(CC[C@H]4CC[N@H+](Cc5ccccc5)CC4)c3cc2C1
REMARK SMILES IDX 11 1 10 2 2 3 3 4 29 5 4 6 28 7 5 8 27 9 6 10 26 11 7 12
REMARK SMILES IDX 8 13 9 14 1 15 12 17 13 18 14 19 25 20 15 21 24 22 16 23
REMARK SMILES IDX 17 25 18 26 19 27 23 28 20 29 22 30 21 31
REMARK H PARENT 1 16 16 24
ROOT
ATOM      1  C   UNL     1     -15.187 -43.449  26.406  1.00  0.00     0.061 C 
ENDROOT
BRANCH   1   2
ATOM      2  C   UNL     1     -15.398 -42.771  25.095  1.00  0.00     0.091 A 
ATOM      3  C   UNL     1     -21.107 -40.721  23.492  1.00  0.00     0.160 C 
ATOM      4  C   UNL     1     -20.573 -40.524  22.086  1.00  0.00     0.116 C 
ATOM      5  C   UNL     1     -20.375 -41.880  24.160  1.00  0.00     0.075 C 
ATOM      6  N   UNL     1     -19.348 -40.751  21.727  1.00  0.00    -0.258 NA
ATOM      7  C   UNL     1     -18.894 -41.821  23.893  1.00  0.00    -0.018 A 
ATOM      8  C   UNL     1     -18.453 -41.271  22.675  1.00  0.00     0.070 A 
ATOM      9  C   UNL     1     -17.984 -42.376  24.817  1.00  0.00     0.020 A 
ATOM     10  C   UNL     1     -17.090 -41.247  22.360  1.00  0.00     0.079 A 
ATOM     11  C   UNL     1     -16.616 -42.350  24.501  1.00  0.00     0.045 A 
ATOM     12  C   UNL     1     -16.221 -41.793  23.299  1.00  0.00     0.169 A 
ATOM     13  O   UNL     1     -14.868 -41.872  23.188  1.00  0.00    -0.356 OA
ATOM     14  N   UNL     1     -14.344 -42.486  24.315  1.00  0.00    -0.084 NA
BRANCH   3  15
ATOM     15  O   UNL     1     -22.499 -40.997  23.477  1.00  0.00    -0.387 OA
ATOM     16  H   UNL     1     -22.634 -41.849  23.026  1.00  0.00     0.211 HD
ENDBRANCH   3  15
ENDBRANCH   1   2
BRANCH   1  17
ATOM     17  C   UNL     1     -14.112 -44.545  26.368  1.00  0.00     0.010 C 
BRANCH  17  18
ATOM     18  C   UNL     1     -13.297 -44.728  27.667  1.00  0.00     0.000 C 
ATOM     19  C   UNL     1     -12.492 -46.035  27.691  1.00  0.00     0.065 C 
ATOM     20  C   UNL     1     -14.220 -44.678  28.894  1.00  0.00     0.065 C 
ATOM     21  C   UNL     1     -11.704 -46.184  28.986  1.00  0.00     0.262 C 
ATOM     22  C   UNL     1     -13.435 -44.832  30.189  1.00  0.00     0.262 C 
ATOM     23  N   UNL     1     -12.649 -46.118  30.163  1.00  0.00    -0.331 N 
ATOM     24  H   UNL     1     -13.314 -46.893  30.057  1.00  0.00     0.348 HD
BRANCH  23  25
ATOM     25  C   UNL     1     -11.941 -46.354  31.484  1.00  0.00     0.299 C 
BRANCH  25  26
ATOM     26  C   UNL     1     -10.530 -45.832  31.496  1.00  0.00     0.006 A 
ATOM     27  C   UNL     1      -9.459 -46.666  31.145  1.00  0.00     0.009 A 
ATOM     28  C   UNL     1     -10.265 -44.506  31.878  1.00  0.00     0.009 A 
ATOM     29  C   UNL     1      -8.149 -46.186  31.183  1.00  0.00     0.001 A 
ATOM     30  C   UNL     1      -8.954 -44.031  31.913  1.00  0.00     0.001 A 
ATOM     31  C   UNL     1      -7.897 -44.871  31.569  1.00  0.00     0.000 A 
ENDBRANCH  25  26
ENDBRANCH  23  25
ENDBRANCH  17  18
ENDBRANCH   1  17
TORSDOF 6
ENDMDL
MODEL 4
REMARK VINA RESULT:   -11.675      3.711      8.770
REMARK INTER + INTRA:         -16.030
REMARK INTER:                 -14.990
REMARK INTRA:                  -1.039
REMARK UNBOUND:                -0.601
REMARK SMILES O[C@@H]1C=Nc2cc3onc(CC[C@H]4CC[N@H+](Cc5ccccc5)CC4)c3cc2C1
REMARK SMILES IDX 11 1 10 2 2 3 3 4 29 5 4 6 28 7 5 8 27 9 6 10 26 11 7 12
REMARK SMILES IDX 8 13 9 14 1 15 12 17 13 18 14 19 25 20 15 21 24 22 16 23
REMARK SMILES IDX 17 25 18 26 19 27 23 28 20 29 22 30 21 31
REMARK H PARENT 1 16 16 24
ROOT
ATOM      1  C   UNL     1     -11.497 -46.352  30.028  1.00  0.00     0.061 C 
ENDROOT
BRANCH   1   2
ATOM      2  C   UNL     1     -10.960 -45.398  31.041  1.00  0.00     0.091 A 
ATOM      3  C   UNL     1     -14.884 -41.857  34.421  1.00  0.00     0.160 C 
ATOM      4  C   UNL     1     -13.677 -41.054  34.865  1.00  0.00     0.116 C 
ATOM      5  C   UNL     1     -14.645 -42.408  33.019  1.00  0.00     0.075 C 
ATOM      6  N   UNL     1     -12.455 -41.313  34.520  1.00  0.00    -0.258 NA
ATOM      7  C   UNL     1     -13.251 -42.958  32.875  1.00  0.00    -0.018 A 
ATOM      8  C   UNL     1     -12.216 -42.368  33.625  1.00  0.00     0.070 A 
ATOM      9  C   UNL     1     -12.988 -43.990  31.952  1.00  0.00     0.020 A 
ATOM     10  C   UNL     1     -10.897 -42.810  33.482  1.00  0.00     0.079 A 
ATOM     11  C   UNL     1     -11.663 -44.435  31.810  1.00  0.00     0.045 A 
ATOM     12  C   UNL     1     -10.675 -43.837  32.570  1.00  0.00     0.169 A 
ATOM     13  O   UNL     1      -9.475 -44.406  32.280  1.00  0.00    -0.356 OA
ATOM     14  N   UNL     1      -9.648 -45.389  31.318  1.00  0.00    -0.084 NA
BRANCH   3  15
ATOM     15  O   UNL     1     -16.056 -41.057  34.413  1.00  0.00    -0.387 OA
ATOM     16  H   UNL     1     -15.800 -40.145  34.189  1.00  0.00     0.211 HD
ENDBRANCH   3  15
ENDBRANCH   1   2
BRANCH   1  17
ATOM     17  C   UNL     1     -10.877 -46.185  28.633  1.00  0.00     0.010 C 
BRANCH  17  18
ATOM     18  C   UNL     1     -11.659 -45.281  27.655  1.00  0.00     0.000 C 
ATOM     19  C   UNL     1     -11.603 -43.796  28.038  1.00  0.00     0.065 C 
ATOM     20  C   UNL     1     -13.126 -45.727  27.567  1.00  0.00     0.065 C 
ATOM     21  C   UNL     1     -12.386 -42.934  27.056  1.00  0.00     0.262 C 
ATOM     22  C   UNL     1     -13.913 -44.864  26.589  1.00  0.00     0.262 C 
ATOM     23  N   UNL     1     -13.818 -43.415  26.993  1.00  0.00    -0.331 N 
ATOM     24  H   UNL     1     -14.206 -43.324  27.939  1.00  0.00     0.348 HD
BRANCH  23  25
ATOM     25  C   UNL     1     -14.681 -42.540  26.103  1.00  0.00     0.299 C 
BRANCH  25  26
ATOM     26  C   UNL     1     -16.133 -42.555  26.496  1.00  0.00     0.006 A 
ATOM     27  C   UNL     1     -17.136 -42.583  25.515  1.00  0.00     0.009 A 
ATOM     28  C   UNL     1     -16.505 -42.521  27.850  1.00  0.00     0.009 A 
ATOM     29  C   UNL     1     -18.483 -42.570  25.882  1.00  0.00     0.001 A 
ATOM     30  C   UNL     1     -17.853 -42.509  28.211  1.00  0.00     0.001 A 
ATOM     31  C   UNL     1     -18.839 -42.530  27.229  1.00  0.00     0.000 A 
ENDBRANCH  25  26
ENDBRANCH  23  25
ENDBRANCH  17  18
ENDBRANCH   1  17
TORSDOF 6
ENDMDL
MODEL 5
REMARK VINA RESULT:   -10.907      1.287      1.823
REMARK INTER + INTRA:         -15.014
REMARK INTER:                 -14.353
REMARK INTRA:                  -0.661
REMARK UNBOUND:                -0.601
REMARK SMILES O[C@@H]1C=Nc2cc3onc(CC[C@H]4CC[N@H+](Cc5ccccc5)CC4)c3cc2C1
REMARK SMILES IDX 11 1 10 2 2 3 3 4 29 5 4 6 28 7 5 8 27 9 6 10 26 11 7 12
REMARK SMILES IDX 8 13 9 14 1 15 12 17 13 18 14 19 25 20 15 21 24 22 16 23
REMARK SMILES IDX 17 25 18 26 19 27 23 28 20 29 22 30 21 31
REMARK H PARENT 1 16 16 24
ROOT
ATOM      1  C   UNL     1     -15.141 -43.582  24.747  1.00  0.00     0.061 C 
ENDROOT
BRANCH   1   2
ATOM      2  C   UNL     1     -16.146 -42.769  24.004  1.00  0.00     0.091 A 
ATOM      3  C   UNL     1     -21.502 -41.066  26.791  1.00  0.00     0.160 C 
ATOM      4  C   UNL     1     -22.008 -40.649  25.424  1.00  0.00     0.116 C 
ATOM      5  C   UNL     1     -20.525 -42.227  26.643  1.00  0.00     0.075 C 
ATOM      6  N   UNL     1     -21.313 -40.716  24.331  1.00  0.00    -0.258 NA
ATOM      7  C   UNL     1     -19.572 -42.001  25.499  1.00  0.00    -0.018 A 
ATOM      8  C   UNL     1     -20.022 -41.266  24.386  1.00  0.00     0.070 A 
ATOM      9  C   UNL     1     -18.287 -42.580  25.520  1.00  0.00     0.020 A 
ATOM     10  C   UNL     1     -19.192 -41.079  23.277  1.00  0.00     0.079 A 
ATOM     11  C   UNL     1     -17.452 -42.390  24.407  1.00  0.00     0.045 A 
ATOM     12  C   UNL     1     -17.927 -41.655  23.337  1.00  0.00     0.169 A 
ATOM     13  O   UNL     1     -16.972 -41.595  22.371  1.00  0.00    -0.356 OA
ATOM     14  N   UNL     1     -15.849 -42.294  22.784  1.00  0.00    -0.084 NA
BRANCH   3  15
ATOM     15  O   UNL     1     -22.572 -41.464  27.634  1.00  0.00    -0.387 OA
ATOM     16  H   UNL     1     -22.359 -41.193  28.544  1.00  0.00     0.211 HD
ENDBRANCH   3  15
ENDBRANCH   1   2
BRANCH   1  17
ATOM     17  C   UNL     1     -14.746 -42.985  26.106  1.00  0.00     0.010 C 
BRANCH  17  18
ATOM     18  C   UNL     1     -14.341 -44.005  27.193  1.00  0.00     0.000 C 
ATOM     19  C   UNL     1     -14.967 -43.702  28.561  1.00  0.00     0.065 C 
ATOM     20  C   UNL     1     -12.812 -44.061  27.335  1.00  0.00     0.065 C 
ATOM     21  C   UNL     1     -14.544 -44.724  29.609  1.00  0.00     0.262 C 
ATOM     22  C   UNL     1     -12.387 -45.079  28.386  1.00  0.00     0.262 C 
ATOM     23  N   UNL     1     -13.036 -44.754  29.707  1.00  0.00    -0.331 N 
ATOM     24  H   UNL     1     -12.736 -43.811  29.983  1.00  0.00     0.348 HD
BRANCH  23  25
ATOM     25  C   UNL     1     -12.548 -45.684  30.800  1.00  0.00     0.299 C 
BRANCH  25  26
ATOM     26  C   UNL     1     -11.115 -45.434  31.188  1.00  0.00     0.006 A 
ATOM     27  C   UNL     1     -10.146 -46.433  31.016  1.00  0.00     0.009 A 
ATOM     28  C   UNL     1     -10.733 -44.203  31.745  1.00  0.00     0.009 A 
ATOM     29  C   UNL     1      -8.824 -46.207  31.401  1.00  0.00     0.001 A 
ATOM     30  C   UNL     1      -9.409 -43.982  32.128  1.00  0.00     0.001 A 
ATOM     31  C   UNL     1      -8.457 -44.984  31.958  1.00  0.00     0.000 A 
ENDBRANCH  25  26
ENDBRANCH  23  25
ENDBRANCH  17  18
ENDBRANCH   1  17
TORSDOF 6
ENDMDL
MODEL 6
REMARK VINA RESULT:   -10.868      3.338     10.097
REMARK INTER + INTRA:         -14.963
REMARK INTER:                 -14.763
REMARK INTRA:                  -0.201
REMARK UNBOUND:                -0.601
REMARK SMILES O[C@@H]1C=Nc2cc3onc(CC[C@H]4CC[N@H+](Cc5ccccc5)CC4)c3cc2C1
REMARK SMILES IDX 11 1 10 2 2 3 3 4 29 5 4 6 28 7 5 8 27 9 6 10 26 11 7 12
REMARK SMILES IDX 8 13 9 14 1 15 12 17 13 18 14 19 25 20 15 21 24 22 16 23
REMARK SMILES IDX 17 25 18 26 19 27 23 28 20 29 22 30 21 31
REMARK H PARENT 1 16 16 24
ROOT
ATOM      1  C   UNL     1     -12.694 -46.182  28.137  1.00  0.00     0.061 C 
ENDROOT
BRANCH   1   2
ATOM      2  C   UNL     1     -11.407 -46.032  28.875  1.00  0.00     0.091 A 
ATOM      3  C   UNL     1     -11.118 -42.423  33.999  1.00  0.00     0.160 C 
ATOM      4  C   UNL     1      -9.607 -42.530  33.913  1.00  0.00     0.116 C 
ATOM      5  C   UNL     1     -11.717 -42.501  32.599  1.00  0.00     0.075 C 
ATOM      6  N   UNL     1      -8.969 -43.223  33.021  1.00  0.00    -0.258 NA
ATOM      7  C   UNL     1     -11.061 -43.579  31.779  1.00  0.00    -0.018 A 
ATOM      8  C   UNL     1      -9.707 -43.877  32.022  1.00  0.00     0.070 A 
ATOM      9  C   UNL     1     -11.776 -44.218  30.745  1.00  0.00     0.020 A 
ATOM     10  C   UNL     1      -9.041 -44.833  31.247  1.00  0.00     0.079 A 
ATOM     11  C   UNL     1     -11.108 -45.179  29.968  1.00  0.00     0.045 A 
ATOM     12  C   UNL     1      -9.780 -45.450  30.243  1.00  0.00     0.169 A 
ATOM     13  O   UNL     1      -9.325 -46.398  29.381  1.00  0.00    -0.356 OA
ATOM     14  N   UNL     1     -10.344 -46.768  28.518  1.00  0.00    -0.084 NA
BRANCH   3  15
ATOM     15  O   UNL     1     -11.510 -41.202  34.606  1.00  0.00    -0.387 OA
ATOM     16  H   UNL     1     -10.735 -40.825  35.059  1.00  0.00     0.211 HD
ENDBRANCH   3  15
ENDBRANCH   1   2
BRANCH   1  17
ATOM     17  C   UNL     1     -13.655 -44.997  28.324  1.00  0.00     0.010 C 
BRANCH  17  18
ATOM     18  C   UNL     1     -13.934 -44.156  27.059  1.00  0.00     0.000 C 
ATOM     19  C   UNL     1     -15.121 -43.198  27.227  1.00  0.00     0.065 C 
ATOM     20  C   UNL     1     -14.184 -45.068  25.850  1.00  0.00     0.065 C 
ATOM     21  C   UNL     1     -15.369 -42.387  25.962  1.00  0.00     0.262 C 
ATOM     22  C   UNL     1     -14.437 -44.260  24.584  1.00  0.00     0.262 C 
ATOM     23  N   UNL     1     -15.599 -43.324  24.798  1.00  0.00    -0.331 N 
ATOM     24  H   UNL     1     -16.424 -43.891  25.028  1.00  0.00     0.348 HD
BRANCH  23  25
ATOM     25  C   UNL     1     -15.947 -42.582  23.521  1.00  0.00     0.299 C 
BRANCH  25  26
ATOM     26  C   UNL     1     -17.368 -42.088  23.498  1.00  0.00     0.006 A 
ATOM     27  C   UNL     1     -18.288 -42.515  24.467  1.00  0.00     0.009 A 
ATOM     28  C   UNL     1     -17.798 -41.205  22.493  1.00  0.00     0.009 A 
ATOM     29  C   UNL     1     -19.611 -42.075  24.427  1.00  0.00     0.001 A 
ATOM     30  C   UNL     1     -19.123 -40.768  22.458  1.00  0.00     0.001 A 
ATOM     31  C   UNL     1     -20.028 -41.205  23.422  1.00  0.00     0.000 A 
ENDBRANCH  25  26
ENDBRANCH  23  25
ENDBRANCH  17  18
ENDBRANCH   1  17
TORSDOF 6
ENDMDL
MODEL 7
REMARK VINA RESULT:   -10.464      3.192      6.499
REMARK INTER + INTRA:         -14.430
REMARK INTER:                 -13.485
REMARK INTRA:                  -0.945
REMARK UNBOUND:                -0.601
REMARK SMILES O[C@@H]1C=Nc2cc3onc(CC[C@H]4CC[N@H+](Cc5ccccc5)CC4)c3cc2C1
REMARK SMILES IDX 11 1 10 2 2 3 3 4 29 5 4 6 28 7 5 8 27 9 6 10 26 11 7 12
REMARK SMILES IDX 8 13 9 14 1 15 12 17 13 18 14 19 25 20 15 21 24 22 16 23
REMARK SMILES IDX 17 25 18 26 19 27 23 28 20 29 22 30 21 31
REMARK H PARENT 1 16 16 24
ROOT
ATOM      1  C   UNL     1     -20.625 -42.943  26.211  1.00  0.00     0.061 C 
ENDROOT
BRANCH   1   2
ATOM      2  C   UNL     1     -21.563 -41.997  25.541  1.00  0.00     0.091 A 
ATOM      3  C   UNL     1     -20.157 -39.632  19.904  1.00  0.00     0.160 C 
ATOM      4  C   UNL     1     -21.294 -38.648  20.102  1.00  0.00     0.116 C 
ATOM      5  C   UNL     1     -19.551 -39.994  21.255  1.00  0.00     0.075 C 
ATOM      6  N   UNL     1     -22.074 -38.625  21.137  1.00  0.00    -0.258 NA
ATOM      7  C   UNL     1     -20.619 -40.239  22.288  1.00  0.00    -0.018 A 
ATOM      8  C   UNL     1     -21.828 -39.527  22.186  1.00  0.00     0.070 A 
ATOM      9  C   UNL     1     -20.373 -41.111  23.369  1.00  0.00     0.020 A 
ATOM     10  C   UNL     1     -22.826 -39.681  23.153  1.00  0.00     0.079 A 
ATOM     11  C   UNL     1     -21.376 -41.267  24.339  1.00  0.00     0.045 A 
ATOM     12  C   UNL     1     -22.554 -40.556  24.200  1.00  0.00     0.169 A 
ATOM     13  O   UNL     1     -23.382 -40.846  25.238  1.00  0.00    -0.356 OA
ATOM     14  N   UNL     1     -22.764 -41.752  26.086  1.00  0.00    -0.084 NA
BRANCH   3  15
ATOM     15  O   UNL     1     -19.145 -39.084  19.072  1.00  0.00    -0.387 OA
ATOM     16  H   UNL     1     -19.330 -38.135  18.955  1.00  0.00     0.211 HD
ENDBRANCH   3  15
ENDBRANCH   1   2
BRANCH   1  17
ATOM     17  C   UNL     1     -19.736 -42.281  27.275  1.00  0.00     0.010 C 
BRANCH  17  18
ATOM     18  C   UNL     1     -18.251 -42.102  26.890  1.00  0.00     0.000 C 
ATOM     19  C   UNL     1     -17.886 -42.799  25.572  1.00  0.00     0.065 C 
ATOM     20  C   UNL     1     -17.338 -42.624  28.010  1.00  0.00     0.065 C 
ATOM     21  C   UNL     1     -16.415 -42.606  25.225  1.00  0.00     0.262 C 
ATOM     22  C   UNL     1     -15.867 -42.436  27.663  1.00  0.00     0.262 C 
ATOM     23  N   UNL     1     -15.556 -43.121  26.357  1.00  0.00    -0.331 N 
ATOM     24  H   UNL     1     -15.772 -44.120  26.465  1.00  0.00     0.348 HD
BRANCH  23  25
ATOM     25  C   UNL     1     -14.076 -43.046  26.038  1.00  0.00     0.299 C 
BRANCH  25  26
ATOM     26  C   UNL     1     -13.245 -43.979  26.877  1.00  0.00     0.006 A 
ATOM     27  C   UNL     1     -12.163 -43.493  27.625  1.00  0.00     0.009 A 
ATOM     28  C   UNL     1     -13.531 -45.354  26.907  1.00  0.00     0.009 A 
ATOM     29  C   UNL     1     -11.379 -44.365  28.381  1.00  0.00     0.001 A 
ATOM     30  C   UNL     1     -12.745 -46.222  27.665  1.00  0.00     0.001 A 
ATOM     31  C   UNL     1     -11.669 -45.728  28.399  1.00  0.00     0.000 A 
ENDBRANCH  25  26
ENDBRANCH  23  25
ENDBRANCH  17  18
ENDBRANCH   1  17
TORSDOF 6
ENDMDL
MODEL 8
REMARK VINA RESULT:   -10.447      3.182      9.288
REMARK INTER + INTRA:         -14.406
REMARK INTER:                 -13.918
REMARK INTRA:                  -0.488
REMARK UNBOUND:                -0.601
REMARK SMILES O[C@@H]1C=Nc2cc3onc(CC[C@H]4CC[N@H+](Cc5ccccc5)CC4)c3cc2C1
REMARK SMILES IDX 11 1 10 2 2 3 3 4 29 5 4 6 28 7 5 8 27 9 6 10 26 11 7 12
REMARK SMILES IDX 8 13 9 14 1 15 12 17 13 18 14 19 25 20 15 21 24 22 16 23
REMARK SMILES IDX 17 25 18 26 19 27 23 28 20 29 22 30 21 31
REMARK H PARENT 1 16 16 24
ROOT
ATOM      1  C   UNL     1     -11.816 -46.185  28.066  1.00  0.00     0.061 C 
ENDROOT
BRANCH   1   2
ATOM      2  C   UNL     1     -11.136 -45.447  29.169  1.00  0.00     0.091 A 
ATOM      3  C   UNL     1     -14.523 -42.744  33.705  1.00  0.00     0.160 C 
ATOM      4  C   UNL     1     -13.260 -42.024  34.134  1.00  0.00     0.116 C 
ATOM      5  C   UNL     1     -14.485 -42.993  32.201  1.00  0.00     0.075 C 
ATOM      6  N   UNL     1     -12.099 -42.183  33.579  1.00  0.00    -0.258 NA
ATOM      7  C   UNL     1     -13.129 -43.475  31.758  1.00  0.00    -0.018 A 
ATOM      8  C   UNL     1     -11.995 -43.030  32.464  1.00  0.00     0.070 A 
ATOM      9  C   UNL     1     -13.005 -44.293  30.616  1.00  0.00     0.020 A 
ATOM     10  C   UNL     1     -10.712 -43.407  32.054  1.00  0.00     0.079 A 
ATOM     11  C   UNL     1     -11.717 -44.674  30.206  1.00  0.00     0.045 A 
ATOM     12  C   UNL     1     -10.628 -44.224  30.931  1.00  0.00     0.169 A 
ATOM     13  O   UNL     1      -9.485 -44.698  30.368  1.00  0.00    -0.356 OA
ATOM     14  N   UNL     1      -9.797 -45.468  29.259  1.00  0.00    -0.084 NA
BRANCH   3  15
ATOM     15  O   UNL     1     -15.678 -41.982  34.021  1.00  0.00    -0.387 OA
ATOM     16  H   UNL     1     -15.755 -41.935  34.990  1.00  0.00     0.211 HD
ENDBRANCH   3  15
ENDBRANCH   1   2
BRANCH   1  17
ATOM     17  C   UNL     1     -13.299 -45.820  27.900  1.00  0.00     0.010 C 
BRANCH  17  18
ATOM     18  C   UNL     1     -13.608 -44.737  26.843  1.00  0.00     0.000 C 
ATOM     19  C   UNL     1     -14.629 -43.700  27.329  1.00  0.00     0.065 C 
ATOM     20  C   UNL     1     -14.117 -45.382  25.546  1.00  0.00     0.065 C 
ATOM     21  C   UNL     1     -14.913 -42.651  26.262  1.00  0.00     0.262 C 
ATOM     22  C   UNL     1     -14.405 -44.335  24.478  1.00  0.00     0.262 C 
ATOM     23  N   UNL     1     -15.399 -43.330  25.002  1.00  0.00    -0.331 N 
ATOM     24  H   UNL     1     -16.260 -43.834  25.247  1.00  0.00     0.348 HD
BRANCH  23  25
ATOM     25  C   UNL     1     -15.791 -42.335  23.926  1.00  0.00     0.299 C 
BRANCH  25  26
ATOM     26  C   UNL     1     -17.270 -42.060  23.891  1.00  0.00     0.006 A 
ATOM     27  C   UNL     1     -17.860 -41.478  22.759  1.00  0.00     0.009 A 
ATOM     28  C   UNL     1     -18.078 -42.366  24.999  1.00  0.00     0.009 A 
ATOM     29  C   UNL     1     -19.227 -41.200  22.740  1.00  0.00     0.001 A 
ATOM     30  C   UNL     1     -19.444 -42.087  24.975  1.00  0.00     0.001 A 
ATOM     31  C   UNL     1     -20.017 -41.502  23.848  1.00  0.00     0.000 A 
ENDBRANCH  25  26
ENDBRANCH  23  25
ENDBRANCH  17  18
ENDBRANCH   1  17
TORSDOF 6
ENDMDL
MODEL 9
REMARK VINA RESULT:   -10.355      3.210      5.168
REMARK INTER + INTRA:         -14.285
REMARK INTER:                 -14.665
REMARK INTRA:                   0.380
REMARK UNBOUND:                -0.601
REMARK SMILES O[C@@H]1C=Nc2cc3onc(CC[C@H]4CC[N@H+](Cc5ccccc5)CC4)c3cc2C1
REMARK SMILES IDX 11 1 10 2 2 3 3 4 29 5 4 6 28 7 5 8 27 9 6 10 26 11 7 12
REMARK SMILES IDX 8 13 9 14 1 15 12 17 13 18 14 19 25 20 15 21 24 22 16 23
REMARK SMILES IDX 17 25 18 26 19 27 23 28 20 29 22 30 21 31
REMARK H PARENT 1 16 16 24
ROOT
ATOM      1  C   UNL     1     -16.993 -42.749  23.189  1.00  0.00     0.061 C 
ENDROOT
BRANCH   1   2
ATOM      2  C   UNL     1     -18.317 -42.158  23.538  1.00  0.00     0.091 A 
ATOM      3  C   UNL     1     -21.374 -38.607  19.366  1.00  0.00     0.160 C 
ATOM      4  C   UNL     1     -22.300 -38.190  20.492  1.00  0.00     0.116 C 
ATOM      5  C   UNL     1     -19.987 -38.902  19.925  1.00  0.00     0.075 C 
ATOM      6  N   UNL     1     -22.222 -38.632  21.709  1.00  0.00    -0.258 NA
ATOM      7  C   UNL     1     -20.067 -39.700  21.200  1.00  0.00    -0.018 A 
ATOM      8  C   UNL     1     -21.180 -39.512  22.041  1.00  0.00     0.070 A 
ATOM      9  C   UNL     1     -19.010 -40.558  21.567  1.00  0.00     0.020 A 
ATOM     10  C   UNL     1     -21.269 -40.190  23.261  1.00  0.00     0.079 A 
ATOM     11  C   UNL     1     -19.100 -41.241  22.791  1.00  0.00     0.045 A 
ATOM     12  C   UNL     1     -20.214 -41.036  23.586  1.00  0.00     0.169 A 
ATOM     13  O   UNL     1     -20.103 -41.781  24.718  1.00  0.00    -0.356 OA
ATOM     14  N   UNL     1     -18.911 -42.489  24.694  1.00  0.00    -0.084 NA
BRANCH   3  15
ATOM     15  O   UNL     1     -21.272 -37.588  18.384  1.00  0.00    -0.387 OA
ATOM     16  H   UNL     1     -21.207 -36.731  18.841  1.00  0.00     0.211 HD
ENDBRANCH   3  15
ENDBRANCH   1   2
BRANCH   1  17
ATOM     17  C   UNL     1     -15.865 -42.349  24.153  1.00  0.00     0.010 C 
BRANCH  17  18
ATOM     18  C   UNL     1     -15.707 -43.238  25.406  1.00  0.00     0.000 C 
ATOM     19  C   UNL     1     -15.874 -42.460  26.717  1.00  0.00     0.065 C 
ATOM     20  C   UNL     1     -14.339 -43.937  25.400  1.00  0.00     0.065 C 
ATOM     21  C   UNL     1     -15.709 -43.365  27.931  1.00  0.00     0.262 C 
ATOM     22  C   UNL     1     -14.170 -44.839  26.616  1.00  0.00     0.262 C 
ATOM     23  N   UNL     1     -14.357 -44.039  27.879  1.00  0.00    -0.331 N 
ATOM     24  H   UNL     1     -13.651 -43.293  27.888  1.00  0.00     0.348 HD
BRANCH  23  25
ATOM     25  C   UNL     1     -14.087 -44.885  29.108  1.00  0.00     0.299 C 
BRANCH  25  26
ATOM     26  C   UNL     1     -12.695 -45.454  29.136  1.00  0.00     0.006 A 
ATOM     27  C   UNL     1     -11.906 -45.353  30.291  1.00  0.00     0.009 A 
ATOM     28  C   UNL     1     -12.158 -46.078  27.998  1.00  0.00     0.009 A 
ATOM     29  C   UNL     1     -10.605 -45.858  30.305  1.00  0.00     0.001 A 
ATOM     30  C   UNL     1     -10.857 -46.582  28.016  1.00  0.00     0.001 A 
ATOM     31  C   UNL     1     -10.082 -46.470  29.168  1.00  0.00     0.000 A 
ENDBRANCH  25  26
ENDBRANCH  23  25
ENDBRANCH  17  18
ENDBRANCH   1  17
TORSDOF 6
ENDMDL
