MODEL 1
REMARK VINA RESULT:   -10.022      0.000      0.000
REMARK INTER + INTRA:         -10.315
REMARK INTER:                 -10.315
REMARK INTRA:                   0.000
REMARK UNBOUND:                 0.000
REMARK SMILES CC1=C[C@H]2Cc3[nH]c4cc(Cl)ccc4c(=N)c3[C@@H](C1)C2
REMARK SMILES IDX 7 1 6 2 17 3 15 4 14 5 13 6 12 7 10 8 11 9 9 10 8 11 18 12
REMARK SMILES IDX 19 13 2 14 1 15 3 16 4 17 5 18 20 19 16 21
REMARK H PARENT 7 20 16 22
ROOT
ATOM      1  N   UNL     1     -15.075 -43.707  28.659  1.00  0.00    -0.358 N 
ATOM      2  C   UNL     1     -14.301 -44.467  29.508  1.00  0.00     0.021 A 
ATOM      3  C   UNL     1     -13.434 -45.414  29.077  1.00  0.00     0.000 A 
ATOM      4  C   UNL     1     -13.292 -45.625  27.591  1.00  0.00     0.068 A 
ATOM      5  C   UNL     1     -14.119 -44.762  26.696  1.00  0.00     0.023 A 
ATOM      6  C   UNL     1     -14.036 -44.896  25.303  1.00  0.00     0.014 A 
ATOM      7  C   UNL     1     -14.815 -44.086  24.477  1.00  0.00     0.021 A 
ATOM      8  C   UNL     1     -15.676 -43.149  25.047  1.00  0.00     0.043 A 
ATOM      9  Cl  UNL     1     -16.645 -42.153  24.031  1.00  0.00    -0.084 Cl
ATOM     10  C   UNL     1     -15.763 -43.011  26.433  1.00  0.00     0.047 A 
ATOM     11  C   UNL     1     -14.974 -43.811  27.269  1.00  0.00     0.049 A 
ATOM     12  C   UNL     1     -12.617 -46.269  30.033  1.00  0.00     0.028 C 
ATOM     13  C   UNL     1     -11.181 -45.713  30.185  1.00  0.00     0.039 C 
ATOM     14  C   UNL     1     -11.084 -44.528  31.126  1.00  0.00    -0.076 C 
ATOM     15  C   UNL     1      -9.767 -43.805  31.142  1.00  0.00     0.039 C 
ATOM     16  C   UNL     1     -12.124 -44.146  31.891  1.00  0.00    -0.024 C 
ATOM     17  C   UNL     1     -13.451 -44.878  31.903  1.00  0.00     0.018 C 
ATOM     18  C   UNL     1     -14.473 -44.171  30.994  1.00  0.00     0.062 C 
ATOM     19  C   UNL     1     -13.276 -46.319  31.418  1.00  0.00     0.017 C 
ATOM     20  H   UNL     1     -15.599 -42.934  29.051  1.00  0.00     0.166 HD
ENDROOT
BRANCH   4  21
ATOM     21  N   UNL     1     -12.496 -46.496  27.052  1.00  0.00    -0.300 NA
ATOM     22  H   UNL     1     -11.690 -46.063  26.603  1.00  0.00     0.188 HD
ENDBRANCH   4  21
TORSDOF 1
ENDMDL
MODEL 2
REMARK VINA RESULT:    -9.536      4.368      8.036
REMARK INTER + INTRA:          -9.815
REMARK INTER:                  -9.815
REMARK INTRA:                   0.000
REMARK UNBOUND:                 0.000
REMARK SMILES CC1=C[C@H]2Cc3[nH]c4cc(Cl)ccc4c(=N)c3[C@@H](C1)C2
REMARK SMILES IDX 7 1 6 2 17 3 15 4 14 5 13 6 12 7 10 8 11 9 9 10 8 11 18 12
REMARK SMILES IDX 19 13 2 14 1 15 3 16 4 17 5 18 20 19 16 21
REMARK H PARENT 7 20 16 22
ROOT
ATOM      1  N   UNL     1     -17.620 -42.304  26.880  1.00  0.00    -0.358 N 
ATOM      2  C   UNL     1     -18.797 -42.036  26.214  1.00  0.00     0.021 A 
ATOM      3  C   UNL     1     -18.939 -42.164  24.874  1.00  0.00     0.000 A 
ATOM      4  C   UNL     1     -17.755 -42.649  24.075  1.00  0.00     0.068 A 
ATOM      5  C   UNL     1     -16.505 -42.964  24.829  1.00  0.00     0.023 A 
ATOM      6  C   UNL     1     -15.366 -43.426  24.156  1.00  0.00     0.014 A 
ATOM      7  C   UNL     1     -14.203 -43.714  24.871  1.00  0.00     0.021 A 
ATOM      8  C   UNL     1     -14.184 -43.535  26.253  1.00  0.00     0.043 A 
ATOM      9  Cl  UNL     1     -12.748 -43.882  27.137  1.00  0.00    -0.084 Cl
ATOM     10  C   UNL     1     -15.315 -43.075  26.928  1.00  0.00     0.047 A 
ATOM     11  C   UNL     1     -16.490 -42.797  26.220  1.00  0.00     0.049 A 
ATOM     12  C   UNL     1     -20.235 -41.825  24.154  1.00  0.00     0.028 C 
ATOM     13  C   UNL     1     -21.064 -43.102  23.876  1.00  0.00     0.039 C 
ATOM     14  C   UNL     1     -21.837 -43.601  25.082  1.00  0.00    -0.076 C 
ATOM     15  C   UNL     1     -22.476 -44.952  24.943  1.00  0.00     0.039 C 
ATOM     16  C   UNL     1     -21.930 -42.874  26.211  1.00  0.00    -0.024 C 
ATOM     17  C   UNL     1     -21.310 -41.499  26.360  1.00  0.00     0.018 C 
ATOM     18  C   UNL     1     -19.958 -41.585  27.093  1.00  0.00     0.062 C 
ATOM     19  C   UNL     1     -21.085 -40.857  24.989  1.00  0.00     0.017 C 
ATOM     20  H   UNL     1     -17.632 -42.310  27.892  1.00  0.00     0.166 HD
ENDROOT
BRANCH   4  21
ATOM     21  N   UNL     1     -17.763 -42.815  22.789  1.00  0.00    -0.300 NA
ATOM     22  H   UNL     1     -18.487 -42.263  22.329  1.00  0.00     0.188 HD
ENDBRANCH   4  21
TORSDOF 1
ENDMDL
MODEL 3
REMARK VINA RESULT:    -9.301      1.943      2.411
REMARK INTER + INTRA:          -9.573
REMARK INTER:                  -9.573
REMARK INTRA:                   0.000
REMARK UNBOUND:                 0.000
REMARK SMILES CC1=C[C@H]2Cc3[nH]c4cc(Cl)ccc4c(=N)c3[C@@H](C1)C2
REMARK SMILES IDX 7 1 6 2 17 3 15 4 14 5 13 6 12 7 10 8 11 9 9 10 8 11 18 12
REMARK SMILES IDX 19 13 2 14 1 15 3 16 4 17 5 18 20 19 16 21
REMARK H PARENT 7 20 16 22
ROOT
ATOM      1  N   UNL     1     -15.729 -43.683  29.433  1.00  0.00    -0.358 N 
ATOM      2  C   UNL     1     -14.508 -44.322  29.388  1.00  0.00     0.021 A 
ATOM      3  C   UNL     1     -13.865 -44.618  28.234  1.00  0.00     0.000 A 
ATOM      4  C   UNL     1     -14.507 -44.201  26.934  1.00  0.00     0.068 A 
ATOM      5  C   UNL     1     -15.812 -43.479  27.017  1.00  0.00     0.023 A 
ATOM      6  C   UNL     1     -16.466 -43.055  25.853  1.00  0.00     0.014 A 
ATOM      7  C   UNL     1     -17.685 -42.384  25.943  1.00  0.00     0.021 A 
ATOM      8  C   UNL     1     -18.247 -42.144  27.196  1.00  0.00     0.043 A 
ATOM      9  Cl  UNL     1     -19.757 -41.324  27.310  1.00  0.00    -0.084 Cl
ATOM     10  C   UNL     1     -17.601 -42.565  28.359  1.00  0.00     0.047 A 
ATOM     11  C   UNL     1     -16.370 -43.226  28.278  1.00  0.00     0.049 A 
ATOM     12  C   UNL     1     -12.538 -45.359  28.205  1.00  0.00     0.028 C 
ATOM     13  C   UNL     1     -11.356 -44.373  28.045  1.00  0.00     0.039 C 
ATOM     14  C   UNL     1     -10.965 -43.675  29.335  1.00  0.00    -0.076 C 
ATOM     15  C   UNL     1      -9.983 -42.548  29.203  1.00  0.00     0.039 C 
ATOM     16  C   UNL     1     -11.482 -44.045  30.522  1.00  0.00    -0.024 C 
ATOM     17  C   UNL     1     -12.457 -45.196  30.675  1.00  0.00     0.018 C 
ATOM     18  C   UNL     1     -13.906 -44.679  30.742  1.00  0.00     0.062 C 
ATOM     19  C   UNL     1     -12.336 -46.165  29.496  1.00  0.00     0.017 C 
ATOM     20  H   UNL     1     -16.080 -43.383  30.334  1.00  0.00     0.166 HD
ENDROOT
BRANCH   4  21
ATOM     21  N   UNL     1     -13.993 -44.422  25.765  1.00  0.00    -0.300 NA
ATOM     22  H   UNL     1     -13.134 -44.969  25.813  1.00  0.00     0.188 HD
ENDBRANCH   4  21
TORSDOF 1
ENDMDL
MODEL 4
REMARK VINA RESULT:    -9.113      1.980      3.061
REMARK INTER + INTRA:          -9.379
REMARK INTER:                  -9.379
REMARK INTRA:                   0.000
REMARK UNBOUND:                 0.000
REMARK SMILES CC1=C[C@H]2Cc3[nH]c4cc(Cl)ccc4c(=N)c3[C@@H](C1)C2
REMARK SMILES IDX 7 1 6 2 17 3 15 4 14 5 13 6 12 7 10 8 11 9 9 10 8 11 18 12
REMARK SMILES IDX 19 13 2 14 1 15 3 16 4 17 5 18 20 19 16 21
REMARK H PARENT 7 20 16 22
ROOT
ATOM      1  N   UNL     1     -11.334 -42.841  28.447  1.00  0.00    -0.358 N 
ATOM      2  C   UNL     1     -11.030 -43.351  29.691  1.00  0.00     0.021 A 
ATOM      3  C   UNL     1     -11.794 -44.271  30.325  1.00  0.00     0.000 A 
ATOM      4  C   UNL     1     -13.026 -44.782  29.620  1.00  0.00     0.068 A 
ATOM      5  C   UNL     1     -13.310 -44.235  28.259  1.00  0.00     0.023 A 
ATOM      6  C   UNL     1     -14.433 -44.666  27.540  1.00  0.00     0.014 A 
ATOM      7  C   UNL     1     -14.689 -44.147  26.271  1.00  0.00     0.021 A 
ATOM      8  C   UNL     1     -13.824 -43.197  25.729  1.00  0.00     0.043 A 
ATOM      9  Cl  UNL     1     -14.142 -42.547  24.167  1.00  0.00    -0.084 Cl
ATOM     10  C   UNL     1     -12.705 -42.764  26.441  1.00  0.00     0.047 A 
ATOM     11  C   UNL     1     -12.433 -43.290  27.710  1.00  0.00     0.049 A 
ATOM     12  C   UNL     1     -11.461 -44.793  31.714  1.00  0.00     0.028 C 
ATOM     13  C   UNL     1     -10.737 -46.158  31.635  1.00  0.00     0.039 C 
ATOM     14  C   UNL     1      -9.262 -46.047  31.298  1.00  0.00    -0.076 C 
ATOM     15  C   UNL     1      -8.558 -47.336  30.985  1.00  0.00     0.039 C 
ATOM     16  C   UNL     1      -8.632 -44.858  31.272  1.00  0.00    -0.024 C 
ATOM     17  C   UNL     1      -9.322 -43.551  31.607  1.00  0.00     0.018 C 
ATOM     18  C   UNL     1      -9.751 -42.814  30.324  1.00  0.00     0.062 C 
ATOM     19  C   UNL     1     -10.564 -43.801  32.467  1.00  0.00     0.017 C 
ATOM     20  H   UNL     1     -10.647 -42.257  27.987  1.00  0.00     0.166 HD
ENDROOT
BRANCH   4  21
ATOM     21  N   UNL     1     -13.837 -45.662  30.117  1.00  0.00    -0.300 NA
ATOM     22  H   UNL     1     -13.709 -45.788  31.120  1.00  0.00     0.188 HD
ENDBRANCH   4  21
TORSDOF 1
ENDMDL
MODEL 5
REMARK VINA RESULT:    -8.948      5.503     10.029
REMARK INTER + INTRA:          -9.209
REMARK INTER:                  -9.209
REMARK INTRA:                   0.000
REMARK UNBOUND:                 0.000
REMARK SMILES CC1=C[C@H]2Cc3[nH]c4cc(Cl)ccc4c(=N)c3[C@@H](C1)C2
REMARK SMILES IDX 7 1 6 2 17 3 15 4 14 5 13 6 12 7 10 8 11 9 9 10 8 11 18 12
REMARK SMILES IDX 19 13 2 14 1 15 3 16 4 17 5 18 20 19 16 21
REMARK H PARENT 7 20 16 22
ROOT
ATOM      1  N   UNL     1     -18.979 -41.787  24.611  1.00  0.00    -0.358 N 
ATOM      2  C   UNL     1     -19.619 -41.096  23.604  1.00  0.00     0.021 A 
ATOM      3  C   UNL     1     -18.986 -40.635  22.500  1.00  0.00     0.000 A 
ATOM      4  C   UNL     1     -17.512 -40.918  22.353  1.00  0.00     0.068 A 
ATOM      5  C   UNL     1     -16.855 -41.699  23.443  1.00  0.00     0.023 A 
ATOM      6  C   UNL     1     -15.489 -42.006  23.374  1.00  0.00     0.014 A 
ATOM      7  C   UNL     1     -14.886 -42.734  24.400  1.00  0.00     0.021 A 
ATOM      8  C   UNL     1     -15.649 -43.148  25.490  1.00  0.00     0.043 A 
ATOM      9  Cl  UNL     1     -14.906 -44.040  26.762  1.00  0.00    -0.084 Cl
ATOM     10  C   UNL     1     -17.009 -42.845  25.564  1.00  0.00     0.047 A 
ATOM     11  C   UNL     1     -17.626 -42.127  24.533  1.00  0.00     0.049 A 
ATOM     12  C   UNL     1     -19.703 -39.840  21.420  1.00  0.00     0.028 C 
ATOM     13  C   UNL     1     -20.090 -40.748  20.228  1.00  0.00     0.039 C 
ATOM     14  C   UNL     1     -21.335 -41.579  20.475  1.00  0.00    -0.076 C 
ATOM     15  C   UNL     1     -21.632 -42.640  19.454  1.00  0.00     0.039 C 
ATOM     16  C   UNL     1     -22.115 -41.379  21.553  1.00  0.00    -0.024 C 
ATOM     17  C   UNL     1     -21.842 -40.298  22.580  1.00  0.00     0.018 C 
ATOM     18  C   UNL     1     -21.115 -40.881  23.806  1.00  0.00     0.062 C 
ATOM     19  C   UNL     1     -20.976 -39.188  21.978  1.00  0.00     0.017 C 
ATOM     20  H   UNL     1     -19.545 -42.209  25.336  1.00  0.00     0.166 HD
ENDROOT
BRANCH   4  21
ATOM     21  N   UNL     1     -16.794 -40.534  21.344  1.00  0.00    -0.300 NA
ATOM     22  H   UNL     1     -16.997 -39.575  21.063  1.00  0.00     0.188 HD
ENDBRANCH   4  21
TORSDOF 1
ENDMDL
MODEL 6
REMARK VINA RESULT:    -8.941      1.781      2.442
REMARK INTER + INTRA:          -9.203
REMARK INTER:                  -9.203
REMARK INTRA:                   0.000
REMARK UNBOUND:                 0.000
REMARK SMILES CC1=C[C@H]2Cc3[nH]c4cc(Cl)ccc4c(=N)c3[C@@H](C1)C2
REMARK SMILES IDX 7 1 6 2 17 3 15 4 14 5 13 6 12 7 10 8 11 9 9 10 8 11 18 12
REMARK SMILES IDX 19 13 2 14 1 15 3 16 4 17 5 18 20 19 16 21
REMARK H PARENT 7 20 16 22
ROOT
ATOM      1  N   UNL     1     -13.737 -45.006  28.739  1.00  0.00    -0.358 N 
ATOM      2  C   UNL     1     -12.467 -45.173  29.249  1.00  0.00     0.021 A 
ATOM      3  C   UNL     1     -11.393 -44.473  28.812  1.00  0.00     0.000 A 
ATOM      4  C   UNL     1     -11.605 -43.441  27.734  1.00  0.00     0.068 A 
ATOM      5  C   UNL     1     -12.998 -43.259  27.227  1.00  0.00     0.023 A 
ATOM      6  C   UNL     1     -13.275 -42.314  26.230  1.00  0.00     0.014 A 
ATOM      7  C   UNL     1     -14.580 -42.155  25.763  1.00  0.00     0.021 A 
ATOM      8  C   UNL     1     -15.600 -42.943  26.293  1.00  0.00     0.043 A 
ATOM      9  Cl  UNL     1     -17.211 -42.755  25.713  1.00  0.00    -0.084 Cl
ATOM     10  C   UNL     1     -15.331 -43.886  27.285  1.00  0.00     0.047 A 
ATOM     11  C   UNL     1     -14.027 -44.042  27.769  1.00  0.00     0.049 A 
ATOM     12  C   UNL     1      -9.993 -44.701  29.361  1.00  0.00     0.028 C 
ATOM     13  C   UNL     1      -9.639 -43.643  30.433  1.00  0.00     0.039 C 
ATOM     14  C   UNL     1     -10.243 -43.930  31.794  1.00  0.00    -0.076 C 
ATOM     15  C   UNL     1     -10.126 -42.832  32.812  1.00  0.00     0.039 C 
ATOM     16  C   UNL     1     -10.856 -45.098  32.063  1.00  0.00    -0.024 C 
ATOM     17  C   UNL     1     -10.963 -46.224  31.054  1.00  0.00     0.018 C 
ATOM     18  C   UNL     1     -12.338 -46.208  30.360  1.00  0.00     0.062 C 
ATOM     19  C   UNL     1      -9.873 -46.097  29.986  1.00  0.00     0.017 C 
ATOM     20  H   UNL     1     -14.506 -45.471  29.207  1.00  0.00     0.166 HD
ENDROOT
BRANCH   4  21
ATOM     21  N   UNL     1     -10.662 -42.705  27.234  1.00  0.00    -0.300 NA
ATOM     22  H   UNL     1     -10.132 -42.210  27.950  1.00  0.00     0.188 HD
ENDBRANCH   4  21
TORSDOF 1
ENDMDL
MODEL 7
REMARK VINA RESULT:    -8.100      5.705     10.067
REMARK INTER + INTRA:          -8.337
REMARK INTER:                  -8.337
REMARK INTRA:                   0.000
REMARK UNBOUND:                 0.000
REMARK SMILES CC1=C[C@H]2Cc3[nH]c4cc(Cl)ccc4c(=N)c3[C@@H](C1)C2
REMARK SMILES IDX 7 1 6 2 17 3 15 4 14 5 13 6 12 7 10 8 11 9 9 10 8 11 18 12
REMARK SMILES IDX 19 13 2 14 1 15 3 16 4 17 5 18 20 19 16 21
REMARK H PARENT 7 20 16 22
ROOT
ATOM      1  N   UNL     1     -20.302 -41.274  25.496  1.00  0.00    -0.358 N 
ATOM      2  C   UNL     1     -20.679 -41.063  24.186  1.00  0.00     0.021 A 
ATOM      3  C   UNL     1     -19.862 -41.294  23.132  1.00  0.00     0.000 A 
ATOM      4  C   UNL     1     -18.481 -41.835  23.404  1.00  0.00     0.068 A 
ATOM      5  C   UNL     1     -18.116 -42.086  24.830  1.00  0.00     0.023 A 
ATOM      6  C   UNL     1     -16.852 -42.594  25.162  1.00  0.00     0.014 A 
ATOM      7  C   UNL     1     -16.521 -42.822  26.498  1.00  0.00     0.021 A 
ATOM      8  C   UNL     1     -17.453 -42.537  27.495  1.00  0.00     0.043 A 
ATOM      9  Cl  UNL     1     -17.045 -42.809  29.145  1.00  0.00    -0.084 Cl
ATOM     10  C   UNL     1     -18.712 -42.031  27.171  1.00  0.00     0.047 A 
ATOM     11  C   UNL     1     -19.057 -41.812  25.832  1.00  0.00     0.049 A 
ATOM     12  C   UNL     1     -20.284 -41.017  21.697  1.00  0.00     0.028 C 
ATOM     13  C   UNL     1     -20.755 -42.314  20.998  1.00  0.00     0.039 C 
ATOM     14  C   UNL     1     -22.171 -42.722  21.359  1.00  0.00    -0.076 C 
ATOM     15  C   UNL     1     -22.604 -44.082  20.895  1.00  0.00     0.039 C 
ATOM     16  C   UNL     1     -22.980 -41.910  22.064  1.00  0.00    -0.024 C 
ATOM     17  C   UNL     1     -22.567 -40.525  22.521  1.00  0.00     0.018 C 
ATOM     18  C   UNL     1     -22.101 -40.550  23.989  1.00  0.00     0.062 C 
ATOM     19  C   UNL     1     -21.424 -39.991  21.653  1.00  0.00     0.017 C 
ATOM     20  H   UNL     1     -21.011 -41.202  26.215  1.00  0.00     0.166 HD
ENDROOT
BRANCH   4  21
ATOM     21  N   UNL     1     -17.608 -42.099  22.484  1.00  0.00    -0.300 NA
ATOM     22  H   UNL     1     -16.737 -42.466  22.866  1.00  0.00     0.188 HD
ENDBRANCH   4  21
TORSDOF 1
ENDMDL
MODEL 8
REMARK VINA RESULT:    -7.615      8.185     12.687
REMARK INTER + INTRA:          -7.837
REMARK INTER:                  -7.837
REMARK INTRA:                   0.000
REMARK UNBOUND:                 0.000
REMARK SMILES CC1=C[C@H]2Cc3[nH]c4cc(Cl)ccc4c(=N)c3[C@@H](C1)C2
REMARK SMILES IDX 7 1 6 2 17 3 15 4 14 5 13 6 12 7 10 8 11 9 9 10 8 11 18 12
REMARK SMILES IDX 19 13 2 14 1 15 3 16 4 17 5 18 20 19 16 21
REMARK H PARENT 7 20 16 22
ROOT
ATOM      1  N   UNL     1     -21.735 -39.709  23.207  1.00  0.00    -0.358 N 
ATOM      2  C   UNL     1     -21.963 -39.128  21.978  1.00  0.00     0.021 A 
ATOM      3  C   UNL     1     -21.101 -39.226  20.938  1.00  0.00     0.000 A 
ATOM      4  C   UNL     1     -19.843 -40.034  21.130  1.00  0.00     0.068 A 
ATOM      5  C   UNL     1     -19.641 -40.680  22.461  1.00  0.00     0.023 A 
ATOM      6  C   UNL     1     -18.499 -41.452  22.712  1.00  0.00     0.014 A 
ATOM      7  C   UNL     1     -18.321 -42.048  23.961  1.00  0.00     0.021 A 
ATOM      8  C   UNL     1     -19.283 -41.866  24.953  1.00  0.00     0.043 A 
ATOM      9  Cl  UNL     1     -19.062 -42.593  26.498  1.00  0.00    -0.084 Cl
ATOM     10  C   UNL     1     -20.422 -41.098  24.709  1.00  0.00     0.047 A 
ATOM     11  C   UNL     1     -20.615 -40.508  23.454  1.00  0.00     0.049 A 
ATOM     12  C   UNL     1     -21.354 -38.544  19.602  1.00  0.00     0.028 C 
ATOM     13  C   UNL     1     -21.947 -39.539  18.577  1.00  0.00     0.039 C 
ATOM     14  C   UNL     1     -23.433 -39.786  18.757  1.00  0.00    -0.076 C 
ATOM     15  C   UNL     1     -24.019 -40.904  17.943  1.00  0.00     0.039 C 
ATOM     16  C   UNL     1     -24.173 -39.049  19.606  1.00  0.00    -0.024 C 
ATOM     17  C   UNL     1     -23.602 -37.902  20.416  1.00  0.00     0.018 C 
ATOM     18  C   UNL     1     -23.273 -38.358  21.850  1.00  0.00     0.062 C 
ATOM     19  C   UNL     1     -22.324 -37.367  19.766  1.00  0.00     0.017 C 
ATOM     20  H   UNL     1     -22.485 -39.699  23.888  1.00  0.00     0.166 HD
ENDROOT
BRANCH   4  21
ATOM     21  N   UNL     1     -18.941 -40.206  20.214  1.00  0.00    -0.300 NA
ATOM     22  H   UNL     1     -19.095 -41.054  19.669  1.00  0.00     0.188 HD
ENDBRANCH   4  21
TORSDOF 1
ENDMDL
MODEL 9
REMARK VINA RESULT:    -7.464      6.158     10.625
REMARK INTER + INTRA:          -7.682
REMARK INTER:                  -7.682
REMARK INTRA:                   0.000
REMARK UNBOUND:                 0.000
REMARK SMILES CC1=C[C@H]2Cc3[nH]c4cc(Cl)ccc4c(=N)c3[C@@H](C1)C2
REMARK SMILES IDX 7 1 6 2 17 3 15 4 14 5 13 6 12 7 10 8 11 9 9 10 8 11 18 12
REMARK SMILES IDX 19 13 2 14 1 15 3 16 4 17 5 18 20 19 16 21
REMARK H PARENT 7 20 16 22
ROOT
ATOM      1  N   UNL     1     -18.900 -42.510  22.092  1.00  0.00    -0.358 N 
ATOM      2  C   UNL     1     -20.269 -42.350  22.043  1.00  0.00     0.021 A 
ATOM      3  C   UNL     1     -21.046 -42.250  23.147  1.00  0.00     0.000 A 
ATOM      4  C   UNL     1     -20.374 -42.288  24.497  1.00  0.00     0.068 A 
ATOM      5  C   UNL     1     -18.888 -42.426  24.516  1.00  0.00     0.023 A 
ATOM      6  C   UNL     1     -18.192 -42.462  25.733  1.00  0.00     0.014 A 
ATOM      7  C   UNL     1     -16.803 -42.594  25.738  1.00  0.00     0.021 A 
ATOM      8  C   UNL     1     -16.118 -42.693  24.529  1.00  0.00     0.043 A 
ATOM      9  Cl  UNL     1     -14.404 -42.865  24.532  1.00  0.00    -0.084 Cl
ATOM     10  C   UNL     1     -16.804 -42.658  23.315  1.00  0.00     0.047 A 
ATOM     11  C   UNL     1     -18.197 -42.512  23.300  1.00  0.00     0.049 A 
ATOM     12  C   UNL     1     -22.559 -42.114  23.071  1.00  0.00     0.028 C 
ATOM     13  C   UNL     1     -22.990 -40.637  23.224  1.00  0.00     0.039 C 
ATOM     14  C   UNL     1     -22.831 -39.820  21.955  1.00  0.00    -0.076 C 
ATOM     15  C   UNL     1     -23.017 -38.337  22.097  1.00  0.00     0.039 C 
ATOM     16  C   UNL     1     -22.529 -40.399  20.777  1.00  0.00    -0.024 C 
ATOM     17  C   UNL     1     -22.360 -41.896  20.612  1.00  0.00     0.018 C 
ATOM     18  C   UNL     1     -20.870 -42.285  20.644  1.00  0.00     0.062 C 
ATOM     19  C   UNL     1     -23.086 -42.647  21.732  1.00  0.00     0.017 C 
ATOM     20  H   UNL     1     -18.379 -42.446  21.227  1.00  0.00     0.166 HD
ENDROOT
BRANCH   4  21
ATOM     21  N   UNL     1     -21.005 -42.199  25.626  1.00  0.00    -0.300 NA
ATOM     22  H   UNL     1     -21.873 -41.671  25.548  1.00  0.00     0.188 HD
ENDBRANCH   4  21
TORSDOF 1
ENDMDL
