MODEL 1
REMARK VINA RESULT:    -9.857      0.000      0.000
REMARK INTER + INTRA:         -13.786
REMARK INTER:                 -13.315
REMARK INTRA:                  -0.471
REMARK UNBOUND:                -0.471
REMARK SMILES COc1cc2c(c(OC)c1)C[C@@H](NC(=O)OCc1ccccc1)C2
REMARK SMILES IDX 13 1 14 2 15 3 12 5 3 6 4 7 10 8 5 9 7 10 6 11 24 12 11 13
REMARK SMILES IDX 2 14 1 15 8 16 9 17 16 18 17 19 18 20 19 21 23 22 20 23
REMARK SMILES IDX 22 24 21 25
REMARK H PARENT 13 4
ROOT
ATOM      1  N   UNL     1     -14.382 -44.183  26.193  1.00  0.00    -0.318 N 
ATOM      2  C   UNL     1     -13.284 -43.873  26.935  1.00  0.00     0.407 C 
ATOM      3  O   UNL     1     -12.961 -42.749  27.288  1.00  0.00    -0.225 OA
ATOM      4  H   UNL     1     -14.421 -45.137  25.860  1.00  0.00     0.167 HD
ENDROOT
BRANCH   1   5
ATOM      5  C   UNL     1     -15.235 -43.165  25.614  1.00  0.00     0.094 C 
ATOM      6  C   UNL     1     -18.861 -41.839  22.971  1.00  0.00     0.122 A 
ATOM      7  C   UNL     1     -17.607 -42.444  22.857  1.00  0.00     0.050 A 
ATOM      8  C   UNL     1     -19.414 -41.590  24.244  1.00  0.00     0.093 A 
ATOM      9  C   UNL     1     -16.928 -42.772  24.019  1.00  0.00    -0.035 A 
ATOM     10  C   UNL     1     -18.730 -41.933  25.413  1.00  0.00     0.126 A 
ATOM     11  C   UNL     1     -17.480 -42.519  25.279  1.00  0.00    -0.000 A 
ATOM     12  C   UNL     1     -15.600 -43.452  24.140  1.00  0.00     0.061 C 
ATOM     13  C   UNL     1     -16.571 -43.005  26.367  1.00  0.00     0.065 C 
BRANCH   6  14
ATOM     14  O   UNL     1     -19.658 -41.449  21.927  1.00  0.00    -0.497 OA
ATOM     15  C   UNL     1     -19.318 -40.227  21.282  1.00  0.00     0.278 C 
ENDBRANCH   6  14
BRANCH  10  16
ATOM     16  O   UNL     1     -19.173 -41.753  26.692  1.00  0.00    -0.496 OA
ATOM     17  C   UNL     1     -20.486 -41.229  26.846  1.00  0.00     0.278 C 
ENDBRANCH  10  16
ENDBRANCH   1   5
BRANCH   2  18
ATOM     18  O   UNL     1     -12.599 -45.007  27.200  1.00  0.00    -0.445 OA
BRANCH  18  19
ATOM     19  C   UNL     1     -13.065 -45.698  28.361  1.00  0.00     0.270 C 
BRANCH  19  20
ATOM     20  C   UNL     1     -11.873 -45.985  29.239  1.00  0.00    -0.011 A 
ATOM     21  C   UNL     1     -11.969 -45.865  30.632  1.00  0.00     0.007 A 
ATOM     22  C   UNL     1     -10.642 -46.337  28.669  1.00  0.00     0.007 A 
ATOM     23  C   UNL     1     -10.858 -46.115  31.441  1.00  0.00     0.000 A 
ATOM     24  C   UNL     1      -9.533 -46.587  29.479  1.00  0.00     0.000 A 
ATOM     25  C   UNL     1      -9.642 -46.478  30.864  1.00  0.00     0.000 A 
ENDBRANCH  19  20
ENDBRANCH  18  19
ENDBRANCH   2  18
TORSDOF 6
ENDMDL
MODEL 2
REMARK VINA RESULT:    -9.848      2.315      9.258
REMARK INTER + INTRA:         -13.774
REMARK INTER:                 -13.697
REMARK INTRA:                  -0.077
REMARK UNBOUND:                -0.471
REMARK SMILES COc1cc2c(c(OC)c1)C[C@@H](NC(=O)OCc1ccccc1)C2
REMARK SMILES IDX 13 1 14 2 15 3 12 5 3 6 4 7 10 8 5 9 7 10 6 11 24 12 11 13
REMARK SMILES IDX 2 14 1 15 8 16 9 17 16 18 17 19 18 20 19 21 23 22 20 23
REMARK SMILES IDX 22 24 21 25
REMARK H PARENT 13 4
ROOT
ATOM      1  N   UNL     1     -13.780 -45.477  27.136  1.00  0.00    -0.318 N 
ATOM      2  C   UNL     1     -13.691 -44.183  26.725  1.00  0.00     0.407 C 
ATOM      3  O   UNL     1     -12.926 -43.346  27.179  1.00  0.00    -0.225 OA
ATOM      4  H   UNL     1     -14.567 -45.993  26.763  1.00  0.00     0.167 HD
ENDROOT
BRANCH   1   5
ATOM      5  C   UNL     1     -13.046 -45.976  28.281  1.00  0.00     0.094 C 
ATOM      6  C   UNL     1      -9.209 -46.174  30.951  1.00  0.00     0.122 A 
ATOM      7  C   UNL     1      -9.652 -46.517  29.672  1.00  0.00     0.050 A 
ATOM      8  C   UNL     1     -10.030 -45.405  31.802  1.00  0.00     0.093 A 
ATOM      9  C   UNL     1     -10.912 -46.096  29.277  1.00  0.00    -0.035 A 
ATOM     10  C   UNL     1     -11.295 -44.972  31.395  1.00  0.00     0.126 A 
ATOM     11  C   UNL     1     -11.722 -45.336  30.127  1.00  0.00    -0.000 A 
ATOM     12  C   UNL     1     -11.574 -46.313  27.952  1.00  0.00     0.061 C 
ATOM     13  C   UNL     1     -13.010 -44.972  29.450  1.00  0.00     0.065 C 
BRANCH   6  14
ATOM     14  O   UNL     1      -7.999 -46.514  31.496  1.00  0.00    -0.497 OA
ATOM     15  C   UNL     1      -7.113 -45.446  31.811  1.00  0.00     0.278 C 
ENDBRANCH   6  14
BRANCH  10  16
ATOM     16  O   UNL     1     -12.164 -44.214  32.126  1.00  0.00    -0.496 OA
ATOM     17  C   UNL     1     -11.798 -42.859  32.352  1.00  0.00     0.278 C 
ENDBRANCH  10  16
ENDBRANCH   1   5
BRANCH   2  18
ATOM     18  O   UNL     1     -14.601 -43.968  25.749  1.00  0.00    -0.445 OA
BRANCH  18  19
ATOM     19  C   UNL     1     -15.043 -42.612  25.669  1.00  0.00     0.270 C 
BRANCH  19  20
ATOM     20  C   UNL     1     -16.506 -42.579  26.034  1.00  0.00    -0.011 A 
ATOM     21  C   UNL     1     -17.491 -42.607  25.038  1.00  0.00     0.007 A 
ATOM     22  C   UNL     1     -16.898 -42.481  27.377  1.00  0.00     0.007 A 
ATOM     23  C   UNL     1     -18.844 -42.560  25.380  1.00  0.00     0.000 A 
ATOM     24  C   UNL     1     -18.251 -42.434  27.716  1.00  0.00     0.000 A 
ATOM     25  C   UNL     1     -19.223 -42.475  26.719  1.00  0.00     0.000 A 
ENDBRANCH  19  20
ENDBRANCH  18  19
ENDBRANCH   2  18
TORSDOF 6
ENDMDL
MODEL 3
REMARK VINA RESULT:    -9.696      2.069      8.892
REMARK INTER + INTRA:         -13.569
REMARK INTER:                 -13.041
REMARK INTRA:                  -0.528
REMARK UNBOUND:                -0.471
REMARK SMILES COc1cc2c(c(OC)c1)C[C@@H](NC(=O)OCc1ccccc1)C2
REMARK SMILES IDX 13 1 14 2 15 3 12 5 3 6 4 7 10 8 5 9 7 10 6 11 24 12 11 13
REMARK SMILES IDX 2 14 1 15 8 16 9 17 16 18 17 19 18 20 19 21 23 22 20 23
REMARK SMILES IDX 22 24 21 25
REMARK H PARENT 13 4
ROOT
ATOM      1  N   UNL     1     -14.877 -43.214  26.115  1.00  0.00    -0.318 N 
ATOM      2  C   UNL     1     -15.134 -43.139  24.781  1.00  0.00     0.407 C 
ATOM      3  O   UNL     1     -14.576 -43.792  23.914  1.00  0.00    -0.225 OA
ATOM      4  H   UNL     1     -15.318 -42.500  26.679  1.00  0.00     0.167 HD
ENDROOT
BRANCH   1   5
ATOM      5  C   UNL     1     -13.786 -44.005  26.648  1.00  0.00     0.094 C 
ATOM      6  C   UNL     1     -10.194 -44.628  29.580  1.00  0.00     0.122 A 
ATOM      7  C   UNL     1     -10.574 -43.839  28.493  1.00  0.00     0.050 A 
ATOM      8  C   UNL     1     -11.128 -45.491  30.190  1.00  0.00     0.093 A 
ATOM      9  C   UNL     1     -11.877 -43.940  28.031  1.00  0.00    -0.035 A 
ATOM     10  C   UNL     1     -12.444 -45.581  29.729  1.00  0.00     0.126 A 
ATOM     11  C   UNL     1     -12.798 -44.799  28.639  1.00  0.00    -0.000 A 
ATOM     12  C   UNL     1     -12.512 -43.172  26.913  1.00  0.00     0.061 C 
ATOM     13  C   UNL     1     -14.142 -44.691  27.982  1.00  0.00     0.065 C 
BRANCH   6  14
ATOM     14  O   UNL     1      -8.950 -44.653  30.154  1.00  0.00    -0.497 OA
ATOM     15  C   UNL     1      -8.898 -44.708  31.574  1.00  0.00     0.278 C 
ENDBRANCH   6  14
BRANCH  10  16
ATOM     16  O   UNL     1     -13.432 -46.366  30.249  1.00  0.00    -0.496 OA
ATOM     17  C   UNL     1     -13.632 -46.296  31.655  1.00  0.00     0.278 C 
ENDBRANCH  10  16
ENDBRANCH   1   5
BRANCH   2  18
ATOM     18  O   UNL     1     -16.093 -42.210  24.570  1.00  0.00    -0.445 OA
BRANCH  18  19
ATOM     19  C   UNL     1     -17.340 -42.762  24.145  1.00  0.00     0.270 C 
BRANCH  19  20
ATOM     20  C   UNL     1     -18.415 -42.241  25.064  1.00  0.00    -0.011 A 
ATOM     21  C   UNL     1     -18.296 -42.382  26.453  1.00  0.00     0.007 A 
ATOM     22  C   UNL     1     -19.568 -41.641  24.537  1.00  0.00     0.007 A 
ATOM     23  C   UNL     1     -19.302 -41.913  27.300  1.00  0.00     0.000 A 
ATOM     24  C   UNL     1     -20.572 -41.173  25.385  1.00  0.00     0.000 A 
ATOM     25  C   UNL     1     -20.439 -41.307  26.766  1.00  0.00     0.000 A 
ENDBRANCH  19  20
ENDBRANCH  18  19
ENDBRANCH   2  18
TORSDOF 6
ENDMDL
MODEL 4
REMARK VINA RESULT:    -9.566      2.192      9.641
REMARK INTER + INTRA:         -13.393
REMARK INTER:                 -12.956
REMARK INTRA:                  -0.437
REMARK UNBOUND:                -0.471
REMARK SMILES COc1cc2c(c(OC)c1)C[C@@H](NC(=O)OCc1ccccc1)C2
REMARK SMILES IDX 13 1 14 2 15 3 12 5 3 6 4 7 10 8 5 9 7 10 6 11 24 12 11 13
REMARK SMILES IDX 2 14 1 15 8 16 9 17 16 18 17 19 18 20 19 21 23 22 20 23
REMARK SMILES IDX 22 24 21 25
REMARK H PARENT 13 4
ROOT
ATOM      1  N   UNL     1     -14.166 -44.321  26.346  1.00  0.00    -0.318 N 
ATOM      2  C   UNL     1     -15.059 -43.315  26.140  1.00  0.00     0.407 C 
ATOM      3  O   UNL     1     -15.220 -42.350  26.872  1.00  0.00    -0.225 OA
ATOM      4  H   UNL     1     -14.266 -45.117  25.729  1.00  0.00     0.167 HD
ENDROOT
BRANCH   1   5
ATOM      5  C   UNL     1     -13.385 -44.424  27.561  1.00  0.00     0.094 C 
ATOM      6  C   UNL     1      -9.714 -46.027  29.979  1.00  0.00     0.122 A 
ATOM      7  C   UNL     1     -10.879 -46.483  29.359  1.00  0.00     0.050 A 
ATOM      8  C   UNL     1      -9.303 -44.688  29.818  1.00  0.00     0.093 A 
ATOM      9  C   UNL     1     -11.615 -45.585  28.602  1.00  0.00    -0.035 A 
ATOM     10  C   UNL     1     -10.042 -43.789  29.045  1.00  0.00     0.126 A 
ATOM     11  C   UNL     1     -11.204 -44.257  28.449  1.00  0.00    -0.000 A 
ATOM     12  C   UNL     1     -12.866 -45.855  27.825  1.00  0.00     0.061 C 
ATOM     13  C   UNL     1     -12.144 -43.508  27.552  1.00  0.00     0.065 C 
BRANCH   6  14
ATOM     14  O   UNL     1      -8.879 -46.780  30.763  1.00  0.00    -0.497 OA
ATOM     15  C   UNL     1      -7.813 -46.094  31.409  1.00  0.00     0.278 C 
ENDBRANCH   6  14
BRANCH  10  16
ATOM     16  O   UNL     1      -9.733 -42.481  28.809  1.00  0.00    -0.496 OA
ATOM     17  C   UNL     1      -8.643 -42.229  27.932  1.00  0.00     0.278 C 
ENDBRANCH  10  16
ENDBRANCH   1   5
BRANCH   2  18
ATOM     18  O   UNL     1     -15.751 -43.567  25.007  1.00  0.00    -0.445 OA
BRANCH  18  19
ATOM     19  C   UNL     1     -15.476 -42.643  23.953  1.00  0.00     0.270 C 
BRANCH  19  20
ATOM     20  C   UNL     1     -16.788 -42.060  23.493  1.00  0.00    -0.011 A 
ATOM     21  C   UNL     1     -16.844 -41.230  22.365  1.00  0.00     0.007 A 
ATOM     22  C   UNL     1     -17.965 -42.311  24.211  1.00  0.00     0.007 A 
ATOM     23  C   UNL     1     -18.058 -40.678  21.952  1.00  0.00     0.000 A 
ATOM     24  C   UNL     1     -19.178 -41.759  23.797  1.00  0.00     0.000 A 
ATOM     25  C   UNL     1     -19.225 -40.945  22.667  1.00  0.00     0.000 A 
ENDBRANCH  19  20
ENDBRANCH  18  19
ENDBRANCH   2  18
TORSDOF 6
ENDMDL
MODEL 5
REMARK VINA RESULT:    -9.550      1.555      3.043
REMARK INTER + INTRA:         -13.370
REMARK INTER:                 -12.867
REMARK INTRA:                  -0.503
REMARK UNBOUND:                -0.471
REMARK SMILES COc1cc2c(c(OC)c1)C[C@@H](NC(=O)OCc1ccccc1)C2
REMARK SMILES IDX 13 1 14 2 15 3 12 5 3 6 4 7 10 8 5 9 7 10 6 11 24 12 11 13
REMARK SMILES IDX 2 14 1 15 8 16 9 17 16 18 17 19 18 20 19 21 23 22 20 23
REMARK SMILES IDX 22 24 21 25
REMARK H PARENT 13 4
ROOT
ATOM      1  N   UNL     1     -13.538 -43.640  27.323  1.00  0.00    -0.318 N 
ATOM      2  C   UNL     1     -12.787 -44.734  27.624  1.00  0.00     0.407 C 
ATOM      3  O   UNL     1     -13.078 -45.889  27.355  1.00  0.00    -0.225 OA
ATOM      4  H   UNL     1     -13.229 -42.776  27.751  1.00  0.00     0.167 HD
ENDROOT
BRANCH   1   5
ATOM      5  C   UNL     1     -14.865 -43.747  26.752  1.00  0.00     0.094 C 
ATOM      6  C   UNL     1     -19.036 -41.937  25.648  1.00  0.00     0.122 A 
ATOM      7  C   UNL     1     -18.270 -42.279  26.764  1.00  0.00     0.050 A 
ATOM      8  C   UNL     1     -18.468 -41.984  24.358  1.00  0.00     0.093 A 
ATOM      9  C   UNL     1     -16.956 -42.672  26.565  1.00  0.00    -0.035 A 
ATOM     10  C   UNL     1     -17.139 -42.370  24.163  1.00  0.00     0.126 A 
ATOM     11  C   UNL     1     -16.399 -42.719  25.282  1.00  0.00    -0.000 A 
ATOM     12  C   UNL     1     -15.946 -43.045  27.605  1.00  0.00     0.061 C 
ATOM     13  C   UNL     1     -14.959 -43.131  25.342  1.00  0.00     0.065 C 
BRANCH   6  14
ATOM     14  O   UNL     1     -20.346 -41.535  25.670  1.00  0.00    -0.497 OA
ATOM     15  C   UNL     1     -20.861 -41.094  26.921  1.00  0.00     0.278 C 
ENDBRANCH   6  14
BRANCH  10  16
ATOM     16  O   UNL     1     -16.484 -42.436  22.967  1.00  0.00    -0.496 OA
ATOM     17  C   UNL     1     -16.372 -41.225  22.230  1.00  0.00     0.278 C 
ENDBRANCH  10  16
ENDBRANCH   1   5
BRANCH   2  18
ATOM     18  O   UNL     1     -11.679 -44.337  28.289  1.00  0.00    -0.445 OA
BRANCH  18  19
ATOM     19  C   UNL     1     -11.859 -44.259  29.704  1.00  0.00     0.270 C 
BRANCH  19  20
ATOM     20  C   UNL     1     -10.631 -44.838  30.360  1.00  0.00    -0.011 A 
ATOM     21  C   UNL     1     -10.146 -46.097  29.981  1.00  0.00     0.007 A 
ATOM     22  C   UNL     1      -9.981 -44.139  31.387  1.00  0.00     0.007 A 
ATOM     23  C   UNL     1      -9.018 -46.636  30.603  1.00  0.00     0.000 A 
ATOM     24  C   UNL     1      -8.854 -44.679  32.007  1.00  0.00     0.000 A 
ATOM     25  C   UNL     1      -8.371 -45.926  31.614  1.00  0.00     0.000 A 
ENDBRANCH  19  20
ENDBRANCH  18  19
ENDBRANCH   2  18
TORSDOF 6
ENDMDL
MODEL 6
REMARK VINA RESULT:    -9.189      1.847      3.765
REMARK INTER + INTRA:         -12.884
REMARK INTER:                 -12.553
REMARK INTRA:                  -0.330
REMARK UNBOUND:                -0.471
REMARK SMILES COc1cc2c(c(OC)c1)C[C@@H](NC(=O)OCc1ccccc1)C2
REMARK SMILES IDX 13 1 14 2 15 3 12 5 3 6 4 7 10 8 5 9 7 10 6 11 24 12 11 13
REMARK SMILES IDX 2 14 1 15 8 16 9 17 16 18 17 19 18 20 19 21 23 22 20 23
REMARK SMILES IDX 22 24 21 25
REMARK H PARENT 13 4
ROOT
ATOM      1  N   UNL     1     -15.960 -42.739  25.543  1.00  0.00    -0.318 N 
ATOM      2  C   UNL     1     -15.092 -43.316  24.668  1.00  0.00     0.407 C 
ATOM      3  O   UNL     1     -15.394 -43.818  23.596  1.00  0.00    -0.225 OA
ATOM      4  H   UNL     1     -15.569 -42.510  26.448  1.00  0.00     0.167 HD
ENDROOT
BRANCH   1   5
ATOM      5  C   UNL     1     -17.395 -42.782  25.349  1.00  0.00     0.094 C 
ATOM      6  C   UNL     1     -21.655 -40.872  25.657  1.00  0.00     0.122 A 
ATOM      7  C   UNL     1     -20.624 -41.345  26.471  1.00  0.00     0.050 A 
ATOM      8  C   UNL     1     -21.462 -40.755  24.265  1.00  0.00     0.093 A 
ATOM      9  C   UNL     1     -19.426 -41.704  25.873  1.00  0.00    -0.035 A 
ATOM     10  C   UNL     1     -20.248 -41.107  23.668  1.00  0.00     0.126 A 
ATOM     11  C   UNL     1     -19.242 -41.588  24.491  1.00  0.00    -0.000 A 
ATOM     12  C   UNL     1     -18.182 -42.198  26.543  1.00  0.00     0.061 C 
ATOM     13  C   UNL     1     -17.852 -41.996  24.103  1.00  0.00     0.065 C 
BRANCH   6  14
ATOM     14  O   UNL     1     -22.897 -40.483  26.086  1.00  0.00    -0.497 OA
ATOM     15  C   UNL     1     -23.000 -40.036  27.433  1.00  0.00     0.278 C 
ENDBRANCH   6  14
BRANCH  10  16
ATOM     16  O   UNL     1     -19.946 -41.021  22.339  1.00  0.00    -0.496 OA
ATOM     17  C   UNL     1     -19.835 -39.713  21.792  1.00  0.00     0.278 C 
ENDBRANCH  10  16
ENDBRANCH   1   5
BRANCH   2  18
ATOM     18  O   UNL     1     -13.845 -43.262  25.186  1.00  0.00    -0.445 OA
BRANCH  18  19
ATOM     19  C   UNL     1     -13.823 -43.128  26.608  1.00  0.00     0.270 C 
BRANCH  19  20
ATOM     20  C   UNL     1     -12.950 -44.225  27.163  1.00  0.00    -0.011 A 
ATOM     21  C   UNL     1     -13.274 -45.572  26.950  1.00  0.00     0.007 A 
ATOM     22  C   UNL     1     -11.821 -43.911  27.933  1.00  0.00     0.007 A 
ATOM     23  C   UNL     1     -12.471 -46.585  27.480  1.00  0.00     0.000 A 
ATOM     24  C   UNL     1     -11.021 -44.924  28.462  1.00  0.00     0.000 A 
ATOM     25  C   UNL     1     -11.344 -46.260  28.233  1.00  0.00     0.000 A 
ENDBRANCH  19  20
ENDBRANCH  18  19
ENDBRANCH   2  18
TORSDOF 6
ENDMDL
MODEL 7
REMARK VINA RESULT:    -9.140      1.811      2.371
REMARK INTER + INTRA:         -12.817
REMARK INTER:                 -12.322
REMARK INTRA:                  -0.495
REMARK UNBOUND:                -0.471
REMARK SMILES COc1cc2c(c(OC)c1)C[C@@H](NC(=O)OCc1ccccc1)C2
REMARK SMILES IDX 13 1 14 2 15 3 12 5 3 6 4 7 10 8 5 9 7 10 6 11 24 12 11 13
REMARK SMILES IDX 2 14 1 15 8 16 9 17 16 18 17 19 18 20 19 21 23 22 20 23
REMARK SMILES IDX 22 24 21 25
REMARK H PARENT 13 4
ROOT
ATOM      1  N   UNL     1     -15.645 -43.478  25.232  1.00  0.00    -0.318 N 
ATOM      2  C   UNL     1     -14.589 -43.230  26.054  1.00  0.00     0.407 C 
ATOM      3  O   UNL     1     -14.302 -42.143  26.531  1.00  0.00    -0.225 OA
ATOM      4  H   UNL     1     -15.651 -44.396  24.806  1.00  0.00     0.167 HD
ENDROOT
BRANCH   1   5
ATOM      5  C   UNL     1     -16.485 -42.418  24.713  1.00  0.00     0.094 C 
ATOM      6  C   UNL     1     -18.811 -40.331  21.231  1.00  0.00     0.122 A 
ATOM      7  C   UNL     1     -17.506 -40.628  21.630  1.00  0.00     0.050 A 
ATOM      8  C   UNL     1     -19.907 -40.865  21.939  1.00  0.00     0.093 A 
ATOM      9  C   UNL     1     -17.327 -41.441  22.738  1.00  0.00    -0.035 A 
ATOM     10  C   UNL     1     -19.722 -41.694  23.048  1.00  0.00     0.126 A 
ATOM     11  C   UNL     1     -18.419 -41.965  23.438  1.00  0.00    -0.000 A 
ATOM     12  C   UNL     1     -16.033 -41.917  23.322  1.00  0.00     0.061 C 
ATOM     13  C   UNL     1     -17.959 -42.844  24.563  1.00  0.00     0.065 C 
BRANCH   6  14
ATOM     14  O   UNL     1     -19.161 -39.543  20.166  1.00  0.00    -0.497 OA
ATOM     15  C   UNL     1     -20.524 -39.579  19.761  1.00  0.00     0.278 C 
ENDBRANCH   6  14
BRANCH  10  16
ATOM     16  O   UNL     1     -20.704 -42.276  23.796  1.00  0.00    -0.496 OA
ATOM     17  C   UNL     1     -21.788 -42.862  23.085  1.00  0.00     0.278 C 
ENDBRANCH  10  16
ENDBRANCH   1   5
BRANCH   2  18
ATOM     18  O   UNL     1     -13.899 -44.377  26.241  1.00  0.00    -0.445 OA
BRANCH  18  19
ATOM     19  C   UNL     1     -13.897 -44.828  27.596  1.00  0.00     0.270 C 
BRANCH  19  20
ATOM     20  C   UNL     1     -12.461 -45.004  28.024  1.00  0.00    -0.011 A 
ATOM     21  C   UNL     1     -11.894 -46.283  28.108  1.00  0.00     0.007 A 
ATOM     22  C   UNL     1     -11.687 -43.891  28.380  1.00  0.00     0.007 A 
ATOM     23  C   UNL     1     -10.569 -46.442  28.520  1.00  0.00     0.000 A 
ATOM     24  C   UNL     1     -10.364 -44.053  28.792  1.00  0.00     0.000 A 
ATOM     25  C   UNL     1      -9.804 -45.327  28.860  1.00  0.00     0.000 A 
ENDBRANCH  19  20
ENDBRANCH  18  19
ENDBRANCH   2  18
TORSDOF 6
ENDMDL
MODEL 8
REMARK VINA RESULT:    -9.032      2.044      3.594
REMARK INTER + INTRA:         -12.672
REMARK INTER:                 -12.471
REMARK INTRA:                  -0.201
REMARK UNBOUND:                -0.471
REMARK SMILES COc1cc2c(c(OC)c1)C[C@@H](NC(=O)OCc1ccccc1)C2
REMARK SMILES IDX 13 1 14 2 15 3 12 5 3 6 4 7 10 8 5 9 7 10 6 11 24 12 11 13
REMARK SMILES IDX 2 14 1 15 8 16 9 17 16 18 17 19 18 20 19 21 23 22 20 23
REMARK SMILES IDX 22 24 21 25
REMARK H PARENT 13 4
ROOT
ATOM      1  N   UNL     1     -16.259 -42.918  25.312  1.00  0.00    -0.318 N 
ATOM      2  C   UNL     1     -15.191 -43.461  24.666  1.00  0.00     0.407 C 
ATOM      3  O   UNL     1     -15.167 -43.792  23.491  1.00  0.00    -0.225 OA
ATOM      4  H   UNL     1     -16.161 -42.845  26.317  1.00  0.00     0.167 HD
ENDROOT
BRANCH   1   5
ATOM      5  C   UNL     1     -17.559 -42.796  24.686  1.00  0.00     0.094 C 
ATOM      6  C   UNL     1     -21.551 -40.488  23.893  1.00  0.00     0.122 A 
ATOM      7  C   UNL     1     -20.864 -41.131  24.924  1.00  0.00     0.050 A 
ATOM      8  C   UNL     1     -20.923 -40.276  22.648  1.00  0.00     0.093 A 
ATOM      9  C   UNL     1     -19.569 -41.561  24.684  1.00  0.00    -0.035 A 
ATOM     10  C   UNL     1     -19.613 -40.700  22.413  1.00  0.00     0.126 A 
ATOM     11  C   UNL     1     -18.952 -41.350  23.446  1.00  0.00    -0.000 A 
ATOM     12  C   UNL     1     -18.637 -42.235  25.642  1.00  0.00     0.061 C 
ATOM     13  C   UNL     1     -17.545 -41.866  23.456  1.00  0.00     0.065 C 
BRANCH   6  14
ATOM     14  O   UNL     1     -22.833 -40.008  23.963  1.00  0.00    -0.497 OA
ATOM     15  C   UNL     1     -23.237 -39.103  22.944  1.00  0.00     0.278 C 
ENDBRANCH   6  14
BRANCH  10  16
ATOM     16  O   UNL     1     -18.904 -40.536  21.258  1.00  0.00    -0.496 OA
ATOM     17  C   UNL     1     -19.543 -39.814  20.213  1.00  0.00     0.278 C 
ENDBRANCH  10  16
ENDBRANCH   1   5
BRANCH   2  18
ATOM     18  O   UNL     1     -14.170 -43.595  25.541  1.00  0.00    -0.445 OA
BRANCH  18  19
ATOM     19  C   UNL     1     -14.416 -44.565  26.561  1.00  0.00     0.270 C 
BRANCH  19  20
ATOM     20  C   UNL     1     -13.100 -44.885  27.223  1.00  0.00    -0.011 A 
ATOM     21  C   UNL     1     -12.682 -46.215  27.374  1.00  0.00     0.007 A 
ATOM     22  C   UNL     1     -12.293 -43.858  27.731  1.00  0.00     0.007 A 
ATOM     23  C   UNL     1     -11.471 -46.509  28.002  1.00  0.00     0.000 A 
ATOM     24  C   UNL     1     -11.082 -44.153  28.359  1.00  0.00     0.000 A 
ATOM     25  C   UNL     1     -10.670 -45.478  28.493  1.00  0.00     0.000 A 
ENDBRANCH  19  20
ENDBRANCH  18  19
ENDBRANCH   2  18
TORSDOF 6
ENDMDL
MODEL 9
REMARK VINA RESULT:    -8.891      1.647      3.137
REMARK INTER + INTRA:         -12.481
REMARK INTER:                 -11.925
REMARK INTRA:                  -0.555
REMARK UNBOUND:                -0.471
REMARK SMILES COc1cc2c(c(OC)c1)C[C@@H](NC(=O)OCc1ccccc1)C2
REMARK SMILES IDX 13 1 14 2 15 3 12 5 3 6 4 7 10 8 5 9 7 10 6 11 24 12 11 13
REMARK SMILES IDX 2 14 1 15 8 16 9 17 16 18 17 19 18 20 19 21 23 22 20 23
REMARK SMILES IDX 22 24 21 25
REMARK H PARENT 13 4
ROOT
ATOM      1  N   UNL     1     -14.125 -43.273  27.220  1.00  0.00    -0.318 N 
ATOM      2  C   UNL     1     -13.263 -44.323  27.131  1.00  0.00     0.407 C 
ATOM      3  O   UNL     1     -13.543 -45.434  26.710  1.00  0.00    -0.225 OA
ATOM      4  H   UNL     1     -13.775 -42.472  27.731  1.00  0.00     0.167 HD
ENDROOT
BRANCH   1   5
ATOM      5  C   UNL     1     -15.540 -43.409  26.941  1.00  0.00     0.094 C 
ATOM      6  C   UNL     1     -19.894 -41.704  26.787  1.00  0.00     0.122 A 
ATOM      7  C   UNL     1     -18.900 -42.041  27.708  1.00  0.00     0.050 A 
ATOM      8  C   UNL     1     -19.612 -41.712  25.405  1.00  0.00     0.093 A 
ATOM      9  C   UNL     1     -17.649 -42.393  27.226  1.00  0.00    -0.035 A 
ATOM     10  C   UNL     1     -18.346 -42.056  24.924  1.00  0.00     0.126 A 
ATOM     11  C   UNL     1     -17.377 -42.402  25.853  1.00  0.00    -0.000 A 
ATOM     12  C   UNL     1     -16.432 -42.754  28.019  1.00  0.00     0.061 C 
ATOM     13  C   UNL     1     -15.947 -42.773  25.597  1.00  0.00     0.065 C 
BRANCH   6  14
ATOM     14  O   UNL     1     -21.179 -41.340  27.095  1.00  0.00    -0.497 OA
ATOM     15  C   UNL     1     -22.008 -40.932  26.013  1.00  0.00     0.278 C 
ENDBRANCH   6  14
BRANCH  10  16
ATOM     16  O   UNL     1     -17.959 -42.083  23.615  1.00  0.00    -0.496 OA
ATOM     17  C   UNL     1     -18.989 -41.991  22.640  1.00  0.00     0.278 C 
ENDBRANCH  10  16
ENDBRANCH   1   5
BRANCH   2  18
ATOM     18  O   UNL     1     -12.056 -43.941  27.604  1.00  0.00    -0.445 OA
BRANCH  18  19
ATOM     19  C   UNL     1     -11.415 -44.938  28.402  1.00  0.00     0.270 C 
BRANCH  19  20
ATOM     20  C   UNL     1     -12.114 -44.980  29.738  1.00  0.00    -0.011 A 
ATOM     21  C   UNL     1     -12.029 -43.896  30.622  1.00  0.00     0.007 A 
ATOM     22  C   UNL     1     -12.825 -46.123  30.130  1.00  0.00     0.007 A 
ATOM     23  C   UNL     1     -12.663 -43.946  31.865  1.00  0.00     0.000 A 
ATOM     24  C   UNL     1     -13.458 -46.171  31.372  1.00  0.00     0.000 A 
ATOM     25  C   UNL     1     -13.379 -45.082  32.239  1.00  0.00     0.000 A 
ENDBRANCH  19  20
ENDBRANCH  18  19
ENDBRANCH   2  18
TORSDOF 6
ENDMDL
