MODEL 1
REMARK VINA RESULT:    -5.099      0.000      0.000
REMARK INTER + INTRA:          -6.770
REMARK INTER:                  -6.291
REMARK INTRA:                  -0.479
REMARK UNBOUND:                -0.479
REMARK SMILES O=C([O-])[C@H](O)[C@@H](O)C(=O)[O-]
REMARK SMILES IDX 4 1 2 2 1 3 3 4 6 5 8 6 9 7 10 8 7 9 5 11
REMARK H PARENT 7 10 5 12
ROOT
ATOM      1  C   UNL     1     -12.538 -43.802  31.986  1.00  0.00     0.194 C 
ENDROOT
BRANCH   1   2
ATOM      2  C   UNL     1     -12.955 -42.553  32.831  1.00  0.00     0.073 C 
ATOM      3  O   UNL     1     -14.062 -42.032  32.461  1.00  0.00    -0.547 OA
ATOM      4  O   UNL     1     -12.158 -42.149  33.724  1.00  0.00    -0.547 OA
ENDBRANCH   1   2
BRANCH   1   5
ATOM      5  C   UNL     1     -13.735 -44.714  31.733  1.00  0.00     0.194 C 
BRANCH   5   6
ATOM      6  C   UNL     1     -13.278 -46.196  31.540  1.00  0.00     0.073 C 
ATOM      7  O   UNL     1     -12.079 -46.310  31.107  1.00  0.00    -0.547 OA
ATOM      8  O   UNL     1     -14.122 -47.110  31.758  1.00  0.00    -0.547 OA
ENDBRANCH   5   6
BRANCH   5   9
ATOM      9  O   UNL     1     -14.490 -44.302  30.552  1.00  0.00    -0.384 OA
ATOM     10  H   UNL     1     -13.975 -43.507  30.275  1.00  0.00     0.211 HD
ENDBRANCH   5   9
ENDBRANCH   1   5
BRANCH   1  11
ATOM     11  O   UNL     1     -11.935 -43.339  30.740  1.00  0.00    -0.384 OA
ATOM     12  H   UNL     1     -10.975 -43.429  30.956  1.00  0.00     0.211 HD
ENDBRANCH   1  11
TORSDOF 5
ENDMDL
MODEL 2
REMARK VINA RESULT:    -5.045      0.399      3.976
REMARK INTER + INTRA:          -6.703
REMARK INTER:                  -6.261
REMARK INTRA:                  -0.443
REMARK UNBOUND:                -0.479
REMARK SMILES O=C([O-])[C@H](O)[C@@H](O)C(=O)[O-]
REMARK SMILES IDX 4 1 2 2 1 3 3 4 6 5 8 6 9 7 10 8 7 9 5 11
REMARK H PARENT 7 10 5 12
ROOT
ATOM      1  C   UNL     1     -13.433 -44.713  31.818  1.00  0.00     0.194 C 
ENDROOT
BRANCH   1   2
ATOM      2  C   UNL     1     -12.978 -46.124  31.320  1.00  0.00     0.073 C 
ATOM      3  O   UNL     1     -13.948 -46.930  31.110  1.00  0.00    -0.547 OA
ATOM      4  O   UNL     1     -11.738 -46.352  31.234  1.00  0.00    -0.547 OA
ENDBRANCH   1   2
BRANCH   1   5
ATOM      5  C   UNL     1     -12.247 -43.758  31.910  1.00  0.00     0.194 C 
BRANCH   5   6
ATOM      6  C   UNL     1     -12.589 -42.525  32.808  1.00  0.00     0.073 C 
ATOM      7  O   UNL     1     -13.738 -42.018  32.563  1.00  0.00    -0.547 OA
ATOM      8  O   UNL     1     -11.709 -42.118  33.617  1.00  0.00    -0.547 OA
ENDBRANCH   5   6
BRANCH   5   9
ATOM      9  O   UNL     1     -11.836 -43.275  30.593  1.00  0.00    -0.384 OA
ATOM     10  H   UNL     1     -12.645 -43.478  30.065  1.00  0.00     0.211 HD
ENDBRANCH   5   9
ENDBRANCH   1   5
BRANCH   1  11
ATOM     11  O   UNL     1     -14.465 -44.212  30.915  1.00  0.00    -0.384 OA
ATOM     12  H   UNL     1     -14.533 -43.274  31.217  1.00  0.00     0.211 HD
ENDBRANCH   1  11
TORSDOF 5
ENDMDL
MODEL 3
REMARK VINA RESULT:    -5.017      1.396      2.093
REMARK INTER + INTRA:          -6.668
REMARK INTER:                  -6.224
REMARK INTRA:                  -0.445
REMARK UNBOUND:                -0.479
REMARK SMILES O=C([O-])[C@H](O)[C@@H](O)C(=O)[O-]
REMARK SMILES IDX 4 1 2 2 1 3 3 4 6 5 8 6 9 7 10 8 7 9 5 11
REMARK H PARENT 7 10 5 12
ROOT
ATOM      1  C   UNL     1     -13.580 -44.193  31.343  1.00  0.00     0.194 C 
ENDROOT
BRANCH   1   2
ATOM      2  C   UNL     1     -14.062 -43.311  32.542  1.00  0.00     0.073 C 
ATOM      3  O   UNL     1     -14.628 -43.980  33.473  1.00  0.00    -0.547 OA
ATOM      4  O   UNL     1     -13.913 -42.060  32.454  1.00  0.00    -0.547 OA
ENDBRANCH   1   2
BRANCH   1   5
ATOM      5  C   UNL     1     -13.154 -45.578  31.821  1.00  0.00     0.194 C 
BRANCH   5   6
ATOM      6  C   UNL     1     -12.008 -46.151  30.926  1.00  0.00     0.073 C 
ATOM      7  O   UNL     1     -12.294 -46.171  29.679  1.00  0.00    -0.547 OA
ATOM      8  O   UNL     1     -10.969 -46.585  31.498  1.00  0.00    -0.547 OA
ENDBRANCH   5   6
BRANCH   5   9
ATOM      9  O   UNL     1     -14.269 -46.522  31.810  1.00  0.00    -0.384 OA
ATOM     10  H   UNL     1     -15.010 -45.926  31.544  1.00  0.00     0.211 HD
ENDBRANCH   5   9
ENDBRANCH   1   5
BRANCH   1  11
ATOM     11  O   UNL     1     -14.655 -44.265  30.358  1.00  0.00    -0.384 OA
ATOM     12  H   UNL     1     -14.138 -44.209  29.518  1.00  0.00     0.211 HD
ENDBRANCH   1  11
TORSDOF 5
ENDMDL
MODEL 4
REMARK VINA RESULT:    -4.977      1.373      3.937
REMARK INTER + INTRA:          -6.620
REMARK INTER:                  -6.191
REMARK INTRA:                  -0.429
REMARK UNBOUND:                -0.479
REMARK SMILES O=C([O-])[C@H](O)[C@@H](O)C(=O)[O-]
REMARK SMILES IDX 4 1 2 2 1 3 3 4 6 5 8 6 9 7 10 8 7 9 5 11
REMARK H PARENT 7 10 5 12
ROOT
ATOM      1  C   UNL     1     -13.096 -45.634  31.774  1.00  0.00     0.194 C 
ENDROOT
BRANCH   1   2
ATOM      2  C   UNL     1     -11.962 -46.189  30.852  1.00  0.00     0.073 C 
ATOM      3  O   UNL     1     -10.932 -46.592  31.494  1.00  0.00    -0.547 OA
ATOM      4  O   UNL     1     -12.133 -46.132  29.602  1.00  0.00    -0.547 OA
ENDBRANCH   1   2
BRANCH   1   5
ATOM      5  C   UNL     1     -13.529 -44.240  31.329  1.00  0.00     0.194 C 
BRANCH   5   6
ATOM      6  C   UNL     1     -14.015 -43.390  32.547  1.00  0.00     0.073 C 
ATOM      7  O   UNL     1     -14.604 -44.079  33.450  1.00  0.00    -0.547 OA
ATOM      8  O   UNL     1     -13.847 -42.138  32.502  1.00  0.00    -0.547 OA
ENDBRANCH   5   6
BRANCH   5   9
ATOM      9  O   UNL     1     -14.605 -44.296  30.342  1.00  0.00    -0.384 OA
ATOM     10  H   UNL     1     -14.751 -45.271  30.287  1.00  0.00     0.211 HD
ENDBRANCH   5   9
ENDBRANCH   1   5
BRANCH   1  11
ATOM     11  O   UNL     1     -14.210 -46.579  31.761  1.00  0.00    -0.384 OA
ATOM     12  H   UNL     1     -14.576 -46.418  30.857  1.00  0.00     0.211 HD
ENDBRANCH   1  11
TORSDOF 5
ENDMDL
MODEL 5
REMARK VINA RESULT:    -4.943      1.354      1.873
REMARK INTER + INTRA:          -6.578
REMARK INTER:                  -5.702
REMARK INTRA:                  -0.876
REMARK UNBOUND:                -0.479
REMARK SMILES O=C([O-])[C@H](O)[C@@H](O)C(=O)[O-]
REMARK SMILES IDX 4 1 2 2 1 3 3 4 6 5 8 6 9 7 10 8 7 9 5 11
REMARK H PARENT 7 10 5 12
ROOT
ATOM      1  C   UNL     1     -12.572 -44.267  32.166  1.00  0.00     0.194 C 
ENDROOT
BRANCH   1   2
ATOM      2  C   UNL     1     -12.486 -42.723  32.397  1.00  0.00     0.073 C 
ATOM      3  O   UNL     1     -11.899 -42.096  31.450  1.00  0.00    -0.547 OA
ATOM      4  O   UNL     1     -12.928 -42.261  33.486  1.00  0.00    -0.547 OA
ENDBRANCH   1   2
BRANCH   1   5
ATOM      5  C   UNL     1     -13.838 -44.634  31.396  1.00  0.00     0.194 C 
BRANCH   5   6
ATOM      6  C   UNL     1     -13.496 -45.089  29.941  1.00  0.00     0.073 C 
ATOM      7  O   UNL     1     -13.465 -46.359  29.795  1.00  0.00    -0.547 OA
ATOM      8  O   UNL     1     -13.228 -44.196  29.088  1.00  0.00    -0.547 OA
ENDBRANCH   5   6
BRANCH   5   9
ATOM      9  O   UNL     1     -14.774 -43.515  31.326  1.00  0.00    -0.384 OA
ATOM     10  H   UNL     1     -15.390 -43.836  30.625  1.00  0.00     0.211 HD
ENDBRANCH   5   9
ENDBRANCH   1   5
BRANCH   1  11
ATOM     11  O   UNL     1     -11.366 -44.700  31.465  1.00  0.00    -0.384 OA
ATOM     12  H   UNL     1     -10.732 -43.993  31.737  1.00  0.00     0.211 HD
ENDBRANCH   1  11
TORSDOF 5
ENDMDL
MODEL 6
REMARK VINA RESULT:    -4.911      4.365      6.181
REMARK INTER + INTRA:          -6.538
REMARK INTER:                  -5.685
REMARK INTRA:                  -0.852
REMARK UNBOUND:                -0.479
REMARK SMILES O=C([O-])[C@H](O)[C@@H](O)C(=O)[O-]
REMARK SMILES IDX 4 1 2 2 1 3 3 4 6 5 8 6 9 7 10 8 7 9 5 11
REMARK H PARENT 7 10 5 12
ROOT
ATOM      1  C   UNL     1      -8.977 -45.388  31.791  1.00  0.00     0.194 C 
ENDROOT
BRANCH   1   2
ATOM      2  C   UNL     1      -9.296 -45.623  30.278  1.00  0.00     0.073 C 
ATOM      3  O   UNL     1      -9.230 -46.850  29.926  1.00  0.00    -0.547 OA
ATOM      4  O   UNL     1      -9.518 -44.611  29.554  1.00  0.00    -0.547 OA
ENDBRANCH   1   2
BRANCH   1   5
ATOM      5  C   UNL     1      -7.505 -45.042  31.992  1.00  0.00     0.194 C 
BRANCH   5   6
ATOM      6  C   UNL     1      -7.322 -43.515  32.273  1.00  0.00     0.073 C 
ATOM      7  O   UNL     1      -7.280 -42.801  31.213  1.00  0.00    -0.547 OA
ATOM      8  O   UNL     1      -7.175 -43.147  33.473  1.00  0.00    -0.547 OA
ENDBRANCH   5   6
BRANCH   5   9
ATOM      9  O   UNL     1      -6.700 -45.400  30.826  1.00  0.00    -0.384 OA
ATOM     10  H   UNL     1      -6.220 -46.190  31.172  1.00  0.00     0.211 HD
ENDBRANCH   5   9
ENDBRANCH   1   5
BRANCH   1  11
ATOM     11  O   UNL     1      -9.856 -44.334  32.292  1.00  0.00    -0.384 OA
ATOM     12  H   UNL     1     -10.540 -44.873  32.759  1.00  0.00     0.211 HD
ENDBRANCH   1  11
TORSDOF 5
ENDMDL
MODEL 7
REMARK VINA RESULT:    -4.854      4.150      4.889
REMARK INTER + INTRA:          -6.468
REMARK INTER:                  -6.036
REMARK INTRA:                  -0.431
REMARK UNBOUND:                -0.479
REMARK SMILES O=C([O-])[C@H](O)[C@@H](O)C(=O)[O-]
REMARK SMILES IDX 4 1 2 2 1 3 3 4 6 5 8 6 9 7 10 8 7 9 5 11
REMARK H PARENT 7 10 5 12
ROOT
ATOM      1  C   UNL     1      -7.701 -44.336  32.014  1.00  0.00     0.194 C 
ENDROOT
BRANCH   1   2
ATOM      2  C   UNL     1      -7.542 -43.171  33.045  1.00  0.00     0.073 C 
ATOM      3  O   UNL     1      -6.330 -42.959  33.394  1.00  0.00    -0.547 OA
ATOM      4  O   UNL     1      -8.590 -42.610  33.472  1.00  0.00    -0.547 OA
ENDBRANCH   1   2
BRANCH   1   5
ATOM      5  C   UNL     1      -9.171 -44.696  31.819  1.00  0.00     0.194 C 
BRANCH   5   6
ATOM      6  C   UNL     1      -9.330 -46.192  31.396  1.00  0.00     0.073 C 
ATOM      7  O   UNL     1      -8.243 -46.724  30.979  1.00  0.00    -0.547 OA
ATOM      8  O   UNL     1     -10.484 -46.702  31.441  1.00  0.00    -0.547 OA
ENDBRANCH   5   6
BRANCH   5   9
ATOM      9  O   UNL     1      -9.804 -43.856  30.805  1.00  0.00    -0.384 OA
ATOM     10  H   UNL     1     -10.274 -43.203  31.377  1.00  0.00     0.211 HD
ENDBRANCH   5   9
ENDBRANCH   1   5
BRANCH   1  11
ATOM     11  O   UNL     1      -7.069 -43.936  30.760  1.00  0.00    -0.384 OA
ATOM     12  H   UNL     1      -7.810 -43.444  30.330  1.00  0.00     0.211 HD
ENDBRANCH   1  11
TORSDOF 5
ENDMDL
MODEL 8
REMARK VINA RESULT:    -4.839      3.818      5.499
REMARK INTER + INTRA:          -6.449
REMARK INTER:                  -6.328
REMARK INTRA:                  -0.122
REMARK UNBOUND:                -0.479
REMARK SMILES O=C([O-])[C@H](O)[C@@H](O)C(=O)[O-]
REMARK SMILES IDX 4 1 2 2 1 3 3 4 6 5 8 6 9 7 10 8 7 9 5 11
REMARK H PARENT 7 10 5 12
ROOT
ATOM      1  C   UNL     1      -8.767 -45.050  30.897  1.00  0.00     0.194 C 
ENDROOT
BRANCH   1   2
ATOM      2  C   UNL     1     -10.116 -45.320  31.641  1.00  0.00     0.073 C 
ATOM      3  O   UNL     1     -10.535 -46.522  31.521  1.00  0.00    -0.547 OA
ATOM      4  O   UNL     1     -10.681 -44.347  32.217  1.00  0.00    -0.547 OA
ENDBRANCH   1   2
BRANCH   1   5
ATOM      5  C   UNL     1      -8.523 -43.552  30.736  1.00  0.00     0.194 C 
BRANCH   5   6
ATOM      6  C   UNL     1      -8.745 -43.105  29.255  1.00  0.00     0.073 C 
ATOM      7  O   UNL     1      -8.127 -42.028  28.947  1.00  0.00    -0.547 OA
ATOM      8  O   UNL     1      -9.535 -43.786  28.542  1.00  0.00    -0.547 OA
ENDBRANCH   5   6
BRANCH   5   9
ATOM      9  O   UNL     1      -7.169 -43.178  31.137  1.00  0.00    -0.384 OA
ATOM     10  H   UNL     1      -6.645 -43.891  30.699  1.00  0.00     0.211 HD
ENDBRANCH   5   9
ENDBRANCH   1   5
BRANCH   1  11
ATOM     11  O   UNL     1      -7.690 -45.699  31.638  1.00  0.00    -0.384 OA
ATOM     12  H   UNL     1      -7.905 -46.650  31.479  1.00  0.00     0.211 HD
ENDBRANCH   1  11
TORSDOF 5
ENDMDL
MODEL 9
REMARK VINA RESULT:    -4.792      2.670      4.368
REMARK INTER + INTRA:          -6.391
REMARK INTER:                  -5.845
REMARK INTRA:                  -0.546
REMARK UNBOUND:                -0.479
REMARK SMILES O=C([O-])[C@H](O)[C@@H](O)C(=O)[O-]
REMARK SMILES IDX 4 1 2 2 1 3 3 4 6 5 8 6 9 7 10 8 7 9 5 11
REMARK H PARENT 7 10 5 12
ROOT
ATOM      1  C   UNL     1     -13.128 -44.944  30.125  1.00  0.00     0.194 C 
ENDROOT
BRANCH   1   2
ATOM      2  C   UNL     1     -12.857 -46.186  31.035  1.00  0.00     0.073 C 
ATOM      3  O   UNL     1     -11.617 -46.381  31.278  1.00  0.00    -0.547 OA
ATOM      4  O   UNL     1     -13.844 -46.895  31.381  1.00  0.00    -0.547 OA
ENDBRANCH   1   2
BRANCH   1   5
ATOM      5  C   UNL     1     -12.364 -45.054  28.809  1.00  0.00     0.194 C 
BRANCH   5   6
ATOM      6  C   UNL     1     -13.111 -44.296  27.664  1.00  0.00     0.073 C 
ATOM      7  O   UNL     1     -13.984 -45.010  27.062  1.00  0.00    -0.547 OA
ATOM      8  O   UNL     1     -12.753 -43.112  27.404  1.00  0.00    -0.547 OA
ENDBRANCH   5   6
BRANCH   5   9
ATOM      9  O   UNL     1     -12.180 -46.445  28.403  1.00  0.00    -0.384 OA
ATOM     10  H   UNL     1     -11.206 -46.543  28.527  1.00  0.00     0.211 HD
ENDBRANCH   5   9
ENDBRANCH   1   5
BRANCH   1  11
ATOM     11  O   UNL     1     -14.568 -44.832  29.909  1.00  0.00    -0.384 OA
ATOM     12  H   UNL     1     -14.879 -45.684  30.301  1.00  0.00     0.211 HD
ENDBRANCH   1  11
TORSDOF 5
ENDMDL
