MODEL 1
REMARK VINA RESULT:    -9.591      0.000      0.000
REMARK INTER + INTRA:         -14.475
REMARK INTER:                 -13.235
REMARK INTRA:                  -1.240
REMARK UNBOUND:                -1.240
REMARK SMILES COc1ccc([C@@H]2C=C(c3cc(F)cc(F)c3)NN2c2ccc(S(N)(=O)=O)cc2)cc1OC
REMARK SMILES IDX 20 1 21 2 22 3 23 4 28 5 29 6 19 7 18 8 9 9 8 10 7 11 10 13
REMARK SMILES IDX 11 14 17 15 12 16 15 17 14 18 13 19 16 20 6 21 5 22 30 23
REMARK SMILES IDX 4 24 31 25 3 26 32 27 33 28 2 29 1 30 24 31 26 32 27 33
REMARK SMILES IDX 25 34
REMARK H PARENT 18 12 25 35 25 36
ROOT
ATOM      1  C   UNL     1     -18.593 -42.056  25.981  1.00  0.00     0.058 A 
ATOM      2  C   UNL     1     -18.125 -42.213  27.300  1.00  0.00     0.029 A 
ATOM      3  C   UNL     1     -16.846 -42.708  27.576  1.00  0.00     0.024 A 
ATOM      4  C   UNL     1     -16.000 -43.036  26.520  1.00  0.00     0.082 A 
ATOM      5  C   UNL     1     -16.426 -42.890  25.202  1.00  0.00     0.024 A 
ATOM      6  C   UNL     1     -17.710 -42.396  24.942  1.00  0.00     0.029 A 
ENDROOT
BRANCH   1   7
ATOM      7  N   UNL     1     -19.881 -41.537  25.736  1.00  0.00    -0.276 N 
ATOM      8  N   UNL     1     -20.727 -41.138  26.767  1.00  0.00    -0.297 N 
ATOM      9  C   UNL     1     -22.054 -41.309  26.405  1.00  0.00     0.060 C 
ATOM     10  C   UNL     1     -22.126 -41.921  25.213  1.00  0.00     0.033 C 
ATOM     11  C   UNL     1     -20.729 -42.160  24.664  1.00  0.00     0.161 C 
ATOM     12  H   UNL     1     -20.537 -40.215  27.160  1.00  0.00     0.188 HD
BRANCH   9  13
ATOM     13  C   UNL     1     -23.155 -40.849  27.252  1.00  0.00     0.005 A 
ATOM     14  C   UNL     1     -24.088 -41.764  27.763  1.00  0.00     0.049 A 
ATOM     15  C   UNL     1     -23.297 -39.496  27.591  1.00  0.00     0.049 A 
ATOM     16  C   UNL     1     -25.129 -41.325  28.580  1.00  0.00     0.126 A 
ATOM     17  C   UNL     1     -24.345 -39.082  28.410  1.00  0.00     0.126 A 
ATOM     18  C   UNL     1     -25.269 -39.987  28.911  1.00  0.00     0.078 A 
ATOM     19  F   UNL     1     -26.009 -42.216  29.054  1.00  0.00    -0.207 F 
ATOM     20  F   UNL     1     -24.460 -37.784  28.722  1.00  0.00    -0.207 F 
ENDBRANCH   9  13
BRANCH  11  21
ATOM     21  C   UNL     1     -20.552 -41.504  23.306  1.00  0.00    -0.016 A 
ATOM     22  C   UNL     1     -20.225 -40.147  23.174  1.00  0.00     0.010 A 
ATOM     23  C   UNL     1     -20.757 -42.261  22.138  1.00  0.00     0.056 A 
ATOM     24  C   UNL     1     -20.087 -39.562  21.913  1.00  0.00     0.051 A 
ATOM     25  C   UNL     1     -20.617 -41.684  20.869  1.00  0.00     0.161 A 
ATOM     26  C   UNL     1     -20.279 -40.321  20.756  1.00  0.00     0.160 A 
BRANCH  25  27
ATOM     27  O   UNL     1     -20.795 -42.360  19.687  1.00  0.00    -0.493 OA
ATOM     28  C   UNL     1     -21.159 -43.731  19.753  1.00  0.00     0.278 C 
ENDBRANCH  25  27
BRANCH  26  29
ATOM     29  O   UNL     1     -20.163 -39.831  19.478  1.00  0.00    -0.493 OA
ATOM     30  C   UNL     1     -21.082 -38.830  19.069  1.00  0.00     0.278 C 
ENDBRANCH  26  29
ENDBRANCH  11  21
ENDBRANCH   1   7
BRANCH   4  31
ATOM     31  S   UNL     1     -14.375 -43.667  26.844  1.00  0.00     0.238 S 
ATOM     32  O   UNL     1     -14.173 -44.854  26.046  1.00  0.00    -0.207 OA
ATOM     33  O   UNL     1     -13.449 -42.560  26.841  1.00  0.00    -0.207 OA
BRANCH  31  34
ATOM     34  N   UNL     1     -14.536 -44.210  28.429  1.00  0.00    -0.225 NA
ATOM     35  H   UNL     1     -13.634 -44.570  28.746  1.00  0.00     0.137 HD
ATOM     36  H   UNL     1     -15.282 -44.895  28.547  1.00  0.00     0.137 HD
ENDBRANCH  31  34
ENDBRANCH   4  31
TORSDOF 7
ENDMDL
MODEL 2
REMARK VINA RESULT:    -9.369      3.646      6.232
REMARK INTER + INTRA:         -14.170
REMARK INTER:                 -12.880
REMARK INTRA:                  -1.290
REMARK UNBOUND:                -1.240
REMARK SMILES COc1ccc([C@@H]2C=C(c3cc(F)cc(F)c3)NN2c2ccc(S(N)(=O)=O)cc2)cc1OC
REMARK SMILES IDX 20 1 21 2 22 3 23 4 28 5 29 6 19 7 18 8 9 9 8 10 7 11 10 13
REMARK SMILES IDX 11 14 17 15 12 16 15 17 14 18 13 19 16 20 6 21 5 22 30 23
REMARK SMILES IDX 4 24 31 25 3 26 32 27 33 28 2 29 1 30 24 31 26 32 27 33
REMARK SMILES IDX 25 34
REMARK H PARENT 18 12 25 35 25 36
ROOT
ATOM      1  C   UNL     1     -17.776 -42.577  25.294  1.00  0.00     0.058 A 
ATOM      2  C   UNL     1     -16.757 -43.122  24.489  1.00  0.00     0.029 A 
ATOM      3  C   UNL     1     -15.525 -43.517  25.023  1.00  0.00     0.024 A 
ATOM      4  C   UNL     1     -15.304 -43.390  26.392  1.00  0.00     0.082 A 
ATOM      5  C   UNL     1     -16.291 -42.861  27.221  1.00  0.00     0.024 A 
ATOM      6  C   UNL     1     -17.517 -42.467  26.671  1.00  0.00     0.029 A 
ENDROOT
BRANCH   1   7
ATOM      7  N   UNL     1     -19.013 -42.206  24.728  1.00  0.00    -0.276 N 
ATOM      8  N   UNL     1     -19.097 -41.482  23.542  1.00  0.00    -0.297 N 
ATOM      9  C   UNL     1     -20.236 -40.692  23.531  1.00  0.00     0.060 C 
ATOM     10  C   UNL     1     -20.857 -40.771  24.718  1.00  0.00     0.033 C 
ATOM     11  C   UNL     1     -20.118 -41.736  25.630  1.00  0.00     0.161 C 
ATOM     12  H   UNL     1     -18.980 -42.024  22.686  1.00  0.00     0.188 HD
BRANCH   9  13
ATOM     13  C   UNL     1     -20.638 -39.926  22.350  1.00  0.00     0.005 A 
ATOM     14  C   UNL     1     -21.897 -39.308  22.299  1.00  0.00     0.049 A 
ATOM     15  C   UNL     1     -19.777 -39.773  21.254  1.00  0.00     0.049 A 
ATOM     16  C   UNL     1     -22.272 -38.569  21.179  1.00  0.00     0.126 A 
ATOM     17  C   UNL     1     -20.176 -39.029  20.145  1.00  0.00     0.126 A 
ATOM     18  C   UNL     1     -21.422 -38.422  20.096  1.00  0.00     0.078 A 
ATOM     19  F   UNL     1     -23.480 -37.990  21.151  1.00  0.00    -0.207 F 
ATOM     20  F   UNL     1     -19.337 -38.894  19.110  1.00  0.00    -0.207 F 
ENDBRANCH   9  13
BRANCH  11  21
ATOM     21  C   UNL     1     -21.028 -42.860  26.094  1.00  0.00    -0.016 A 
ATOM     22  C   UNL     1     -20.887 -44.173  25.623  1.00  0.00     0.010 A 
ATOM     23  C   UNL     1     -22.072 -42.580  26.994  1.00  0.00     0.056 A 
ATOM     24  C   UNL     1     -21.749 -45.185  26.050  1.00  0.00     0.051 A 
ATOM     25  C   UNL     1     -22.940 -43.589  27.431  1.00  0.00     0.161 A 
ATOM     26  C   UNL     1     -22.776 -44.904  26.954  1.00  0.00     0.160 A 
BRANCH  25  27
ATOM     27  O   UNL     1     -23.976 -43.393  28.312  1.00  0.00    -0.493 OA
ATOM     28  C   UNL     1     -24.683 -42.163  28.244  1.00  0.00     0.278 C 
ENDBRANCH  25  27
BRANCH  26  29
ATOM     29  O   UNL     1     -23.668 -45.834  27.429  1.00  0.00    -0.493 OA
ATOM     30  C   UNL     1     -24.496 -46.497  26.485  1.00  0.00     0.278 C 
ENDBRANCH  26  29
ENDBRANCH  11  21
ENDBRANCH   1   7
BRANCH   4  31
ATOM     31  S   UNL     1     -13.752 -43.882  27.092  1.00  0.00     0.238 S 
ATOM     32  O   UNL     1     -13.404 -45.184  26.573  1.00  0.00    -0.207 OA
ATOM     33  O   UNL     1     -12.851 -42.756  27.038  1.00  0.00    -0.207 OA
BRANCH  31  34
ATOM     34  N   UNL     1     -14.175 -44.135  28.702  1.00  0.00    -0.225 NA
ATOM     35  H   UNL     1     -13.329 -44.104  29.273  1.00  0.00     0.137 HD
ATOM     36  H   UNL     1     -14.703 -44.995  28.850  1.00  0.00     0.137 HD
ENDBRANCH  31  34
ENDBRANCH   4  31
TORSDOF 7
ENDMDL
MODEL 3
REMARK VINA RESULT:    -9.019      1.155      2.335
REMARK INTER + INTRA:         -13.686
REMARK INTER:                 -13.404
REMARK INTRA:                  -0.283
REMARK UNBOUND:                -1.240
REMARK SMILES COc1ccc([C@@H]2C=C(c3cc(F)cc(F)c3)NN2c2ccc(S(N)(=O)=O)cc2)cc1OC
REMARK SMILES IDX 20 1 21 2 22 3 23 4 28 5 29 6 19 7 18 8 9 9 8 10 7 11 10 13
REMARK SMILES IDX 11 14 17 15 12 16 15 17 14 18 13 19 16 20 6 21 5 22 30 23
REMARK SMILES IDX 4 24 31 25 3 26 32 27 33 28 2 29 1 30 24 31 26 32 27 33
REMARK SMILES IDX 25 34
REMARK H PARENT 18 12 25 35 25 36
ROOT
ATOM      1  C   UNL     1     -18.609 -42.012  26.316  1.00  0.00     0.058 A 
ATOM      2  C   UNL     1     -17.735 -42.411  25.286  1.00  0.00     0.029 A 
ATOM      3  C   UNL     1     -16.450 -42.895  25.554  1.00  0.00     0.024 A 
ATOM      4  C   UNL     1     -16.026 -43.008  26.876  1.00  0.00     0.082 A 
ATOM      5  C   UNL     1     -16.865 -42.629  27.921  1.00  0.00     0.024 A 
ATOM      6  C   UNL     1     -18.147 -42.143  27.637  1.00  0.00     0.029 A 
ENDROOT
BRANCH   1   7
ATOM      7  N   UNL     1     -19.905 -41.546  26.014  1.00  0.00    -0.276 N 
ATOM      8  N   UNL     1     -20.769 -41.071  26.997  1.00  0.00    -0.297 N 
ATOM      9  C   UNL     1     -22.089 -41.304  26.643  1.00  0.00     0.060 C 
ATOM     10  C   UNL     1     -22.136 -42.025  25.512  1.00  0.00     0.033 C 
ATOM     11  C   UNL     1     -20.730 -42.283  24.998  1.00  0.00     0.161 C 
ATOM     12  H   UNL     1     -20.602 -40.113  27.305  1.00  0.00     0.188 HD
BRANCH   9  13
ATOM     13  C   UNL     1     -23.207 -40.791  27.436  1.00  0.00     0.005 A 
ATOM     14  C   UNL     1     -23.308 -39.420  27.716  1.00  0.00     0.049 A 
ATOM     15  C   UNL     1     -24.211 -41.643  27.917  1.00  0.00     0.049 A 
ATOM     16  C   UNL     1     -24.380 -38.931  28.460  1.00  0.00     0.126 A 
ATOM     17  C   UNL     1     -25.273 -41.131  28.659  1.00  0.00     0.126 A 
ATOM     18  C   UNL     1     -25.369 -39.776  28.937  1.00  0.00     0.078 A 
ATOM     19  F   UNL     1     -24.455 -37.619  28.717  1.00  0.00    -0.207 F 
ATOM     20  F   UNL     1     -26.222 -41.963  29.107  1.00  0.00    -0.207 F 
ENDBRANCH   9  13
BRANCH  11  21
ATOM     21  C   UNL     1     -20.553 -41.751  23.586  1.00  0.00    -0.016 A 
ATOM     22  C   UNL     1     -21.600 -41.754  22.655  1.00  0.00     0.010 A 
ATOM     23  C   UNL     1     -19.294 -41.274  23.178  1.00  0.00     0.056 A 
ATOM     24  C   UNL     1     -21.406 -41.277  21.357  1.00  0.00     0.051 A 
ATOM     25  C   UNL     1     -19.090 -40.791  21.880  1.00  0.00     0.161 A 
ATOM     26  C   UNL     1     -20.157 -40.793  20.960  1.00  0.00     0.160 A 
BRANCH  25  27
ATOM     27  O   UNL     1     -17.894 -40.305  21.412  1.00  0.00    -0.493 OA
ATOM     28  C   UNL     1     -16.698 -40.847  21.954  1.00  0.00     0.278 C 
ENDBRANCH  25  27
BRANCH  26  29
ATOM     29  O   UNL     1     -19.876 -40.305  19.708  1.00  0.00    -0.493 OA
ATOM     30  C   UNL     1     -20.165 -38.939  19.451  1.00  0.00     0.278 C 
ENDBRANCH  26  29
ENDBRANCH  11  21
ENDBRANCH   1   7
BRANCH   4  31
ATOM     31  S   UNL     1     -14.402 -43.618  27.240  1.00  0.00     0.238 S 
ATOM     32  O   UNL     1     -13.441 -42.589  26.920  1.00  0.00    -0.207 OA
ATOM     33  O   UNL     1     -14.441 -44.275  28.525  1.00  0.00    -0.207 OA
BRANCH  31  34
ATOM     34  N   UNL     1     -14.213 -44.799  26.055  1.00  0.00    -0.225 NA
ATOM     35  H   UNL     1     -15.135 -45.153  25.794  1.00  0.00     0.137 HD
ATOM     36  H   UNL     1     -13.582 -45.550  26.331  1.00  0.00     0.137 HD
ENDBRANCH  31  34
ENDBRANCH   4  31
TORSDOF 7
ENDMDL
MODEL 4
REMARK VINA RESULT:    -8.626      3.758      6.425
REMARK INTER + INTRA:         -13.144
REMARK INTER:                 -11.928
REMARK INTRA:                  -1.216
REMARK UNBOUND:                -1.240
REMARK SMILES COc1ccc([C@@H]2C=C(c3cc(F)cc(F)c3)NN2c2ccc(S(N)(=O)=O)cc2)cc1OC
REMARK SMILES IDX 20 1 21 2 22 3 23 4 28 5 29 6 19 7 18 8 9 9 8 10 7 11 10 13
REMARK SMILES IDX 11 14 17 15 12 16 15 17 14 18 13 19 16 20 6 21 5 22 30 23
REMARK SMILES IDX 4 24 31 25 3 26 32 27 33 28 2 29 1 30 24 31 26 32 27 33
REMARK SMILES IDX 25 34
REMARK H PARENT 18 12 25 35 25 36
ROOT
ATOM      1  C   UNL     1     -18.569 -42.120  23.865  1.00  0.00     0.058 A 
ATOM      2  C   UNL     1     -18.331 -42.299  25.241  1.00  0.00     0.029 A 
ATOM      3  C   UNL     1     -17.076 -42.679  25.731  1.00  0.00     0.024 A 
ATOM      4  C   UNL     1     -16.024 -42.866  24.837  1.00  0.00     0.082 A 
ATOM      5  C   UNL     1     -16.221 -42.693  23.469  1.00  0.00     0.024 A 
ATOM      6  C   UNL     1     -17.483 -42.315  22.994  1.00  0.00     0.029 A 
ENDROOT
BRANCH   1   7
ATOM      7  N   UNL     1     -19.839 -41.718  23.405  1.00  0.00    -0.276 N 
ATOM      8  N   UNL     1     -20.068 -41.359  22.080  1.00  0.00    -0.297 N 
ATOM      9  C   UNL     1     -21.085 -40.421  21.995  1.00  0.00     0.060 C 
ATOM     10  C   UNL     1     -21.466 -40.050  23.227  1.00  0.00     0.033 C 
ATOM     11  C   UNL     1     -20.683 -40.827  24.272  1.00  0.00     0.161 C 
ATOM     12  H   UNL     1     -20.186 -42.135  21.427  1.00  0.00     0.188 HD
BRANCH   9  13
ATOM     13  C   UNL     1     -21.617 -39.966  20.709  1.00  0.00     0.005 A 
ATOM     14  C   UNL     1     -21.223 -38.730  20.176  1.00  0.00     0.049 A 
ATOM     15  C   UNL     1     -22.511 -40.755  19.970  1.00  0.00     0.049 A 
ATOM     16  C   UNL     1     -21.720 -38.304  18.945  1.00  0.00     0.126 A 
ATOM     17  C   UNL     1     -22.994 -40.308  18.743  1.00  0.00     0.126 A 
ATOM     18  C   UNL     1     -22.606 -39.083  18.219  1.00  0.00     0.078 A 
ATOM     19  F   UNL     1     -21.333 -37.119  18.456  1.00  0.00    -0.207 F 
ATOM     20  F   UNL     1     -23.845 -41.078  18.053  1.00  0.00    -0.207 F 
ENDBRANCH   9  13
BRANCH  11  21
ATOM     21  C   UNL     1     -21.611 -41.598  25.194  1.00  0.00    -0.016 A 
ATOM     22  C   UNL     1     -22.122 -41.037  26.373  1.00  0.00     0.010 A 
ATOM     23  C   UNL     1     -21.944 -42.930  24.888  1.00  0.00     0.056 A 
ATOM     24  C   UNL     1     -22.958 -41.774  27.215  1.00  0.00     0.051 A 
ATOM     25  C   UNL     1     -22.784 -43.677  25.724  1.00  0.00     0.161 A 
ATOM     26  C   UNL     1     -23.295 -43.092  26.899  1.00  0.00     0.160 A 
BRANCH  25  27
ATOM     27  O   UNL     1     -23.157 -44.977  25.487  1.00  0.00    -0.493 OA
ATOM     28  C   UNL     1     -22.184 -45.861  24.952  1.00  0.00     0.278 C 
ENDBRANCH  25  27
BRANCH  26  29
ATOM     29  O   UNL     1     -24.110 -43.890  27.665  1.00  0.00    -0.493 OA
ATOM     30  C   UNL     1     -23.567 -44.434  28.859  1.00  0.00     0.278 C 
ENDBRANCH  26  29
ENDBRANCH  11  21
ENDBRANCH   1   7
BRANCH   4  31
ATOM     31  S   UNL     1     -14.427 -43.350  25.432  1.00  0.00     0.238 S 
ATOM     32  O   UNL     1     -14.518 -44.689  25.965  1.00  0.00    -0.207 OA
ATOM     33  O   UNL     1     -13.441 -42.969  24.450  1.00  0.00    -0.207 OA
BRANCH  31  34
ATOM     34  N   UNL     1     -14.248 -42.342  26.769  1.00  0.00    -0.225 NA
ATOM     35  H   UNL     1     -13.256 -42.134  26.894  1.00  0.00     0.137 HD
ATOM     36  H   UNL     1     -14.666 -42.721  27.619  1.00  0.00     0.137 HD
ENDBRANCH  31  34
ENDBRANCH   4  31
TORSDOF 7
ENDMDL
MODEL 5
REMARK VINA RESULT:    -8.513      4.846      8.667
REMARK INTER + INTRA:         -12.988
REMARK INTER:                 -11.848
REMARK INTRA:                  -1.141
REMARK UNBOUND:                -1.240
REMARK SMILES COc1ccc([C@@H]2C=C(c3cc(F)cc(F)c3)NN2c2ccc(S(N)(=O)=O)cc2)cc1OC
REMARK SMILES IDX 20 1 21 2 22 3 23 4 28 5 29 6 19 7 18 8 9 9 8 10 7 11 10 13
REMARK SMILES IDX 11 14 17 15 12 16 15 17 14 18 13 19 16 20 6 21 5 22 30 23
REMARK SMILES IDX 4 24 31 25 3 26 32 27 33 28 2 29 1 30 24 31 26 32 27 33
REMARK SMILES IDX 25 34
REMARK H PARENT 18 12 25 35 25 36
ROOT
ATOM      1  C   UNL     1     -20.985 -40.255  22.773  1.00  0.00     0.058 A 
ATOM      2  C   UNL     1     -22.236 -40.624  22.243  1.00  0.00     0.029 A 
ATOM      3  C   UNL     1     -22.806 -39.953  21.155  1.00  0.00     0.024 A 
ATOM      4  C   UNL     1     -22.109 -38.902  20.563  1.00  0.00     0.082 A 
ATOM      5  C   UNL     1     -20.866 -38.512  21.056  1.00  0.00     0.024 A 
ATOM      6  C   UNL     1     -20.311 -39.192  22.147  1.00  0.00     0.029 A 
ENDROOT
BRANCH   1   7
ATOM      7  N   UNL     1     -20.430 -40.964  23.858  1.00  0.00    -0.276 N 
ATOM      8  N   UNL     1     -19.062 -41.196  23.969  1.00  0.00    -0.297 N 
ATOM      9  C   UNL     1     -18.820 -42.381  24.645  1.00  0.00     0.060 C 
ATOM     10  C   UNL     1     -19.979 -43.013  24.887  1.00  0.00     0.033 C 
ATOM     11  C   UNL     1     -21.143 -42.179  24.379  1.00  0.00     0.161 C 
ATOM     12  H   UNL     1     -18.511 -40.414  24.326  1.00  0.00     0.188 HD
BRANCH   9  13
ATOM     13  C   UNL     1     -17.467 -42.801  25.015  1.00  0.00     0.005 A 
ATOM     14  C   UNL     1     -16.579 -43.274  24.037  1.00  0.00     0.049 A 
ATOM     15  C   UNL     1     -17.018 -42.726  26.341  1.00  0.00     0.049 A 
ATOM     16  C   UNL     1     -15.287 -43.661  24.389  1.00  0.00     0.126 A 
ATOM     17  C   UNL     1     -15.722 -43.118  26.668  1.00  0.00     0.126 A 
ATOM     18  C   UNL     1     -14.846 -43.589  25.701  1.00  0.00     0.078 A 
ATOM     19  F   UNL     1     -14.457 -44.111  23.440  1.00  0.00    -0.207 F 
ATOM     20  F   UNL     1     -15.313 -43.036  27.941  1.00  0.00    -0.207 F 
ENDBRANCH   9  13
BRANCH  11  21
ATOM     21  C   UNL     1     -22.123 -41.863  25.497  1.00  0.00    -0.016 A 
ATOM     22  C   UNL     1     -22.851 -42.865  26.152  1.00  0.00     0.010 A 
ATOM     23  C   UNL     1     -22.342 -40.524  25.867  1.00  0.00     0.056 A 
ATOM     24  C   UNL     1     -23.761 -42.546  27.163  1.00  0.00     0.051 A 
ATOM     25  C   UNL     1     -23.249 -40.194  26.882  1.00  0.00     0.161 A 
ATOM     26  C   UNL     1     -23.965 -41.215  27.536  1.00  0.00     0.160 A 
BRANCH  25  27
ATOM     27  O   UNL     1     -23.510 -38.912  27.302  1.00  0.00    -0.493 OA
ATOM     28  C   UNL     1     -24.280 -38.077  26.450  1.00  0.00     0.278 C 
ENDBRANCH  25  27
BRANCH  26  29
ATOM     29  O   UNL     1     -24.836 -40.810  28.518  1.00  0.00    -0.493 OA
ATOM     30  C   UNL     1     -25.092 -41.710  29.586  1.00  0.00     0.278 C 
ENDBRANCH  26  29
ENDBRANCH  11  21
ENDBRANCH   1   7
BRANCH   4  31
ATOM     31  S   UNL     1     -22.809 -38.035  19.185  1.00  0.00     0.238 S 
ATOM     32  O   UNL     1     -22.168 -38.496  17.975  1.00  0.00    -0.207 OA
ATOM     33  O   UNL     1     -24.243 -38.010  19.345  1.00  0.00    -0.207 OA
BRANCH  31  34
ATOM     34  N   UNL     1     -22.228 -36.476  19.439  1.00  0.00    -0.225 NA
ATOM     35  H   UNL     1     -21.281 -36.413  19.062  1.00  0.00     0.137 HD
ATOM     36  H   UNL     1     -22.269 -36.184  20.415  1.00  0.00     0.137 HD
ENDBRANCH  31  34
ENDBRANCH   4  31
TORSDOF 7
ENDMDL
MODEL 6
REMARK VINA RESULT:    -8.511      4.755      7.533
REMARK INTER + INTRA:         -12.985
REMARK INTER:                 -11.698
REMARK INTRA:                  -1.286
REMARK UNBOUND:                -1.240
REMARK SMILES COc1ccc([C@@H]2C=C(c3cc(F)cc(F)c3)NN2c2ccc(S(N)(=O)=O)cc2)cc1OC
REMARK SMILES IDX 20 1 21 2 22 3 23 4 28 5 29 6 19 7 18 8 9 9 8 10 7 11 10 13
REMARK SMILES IDX 11 14 17 15 12 16 15 17 14 18 13 19 16 20 6 21 5 22 30 23
REMARK SMILES IDX 4 24 31 25 3 26 32 27 33 28 2 29 1 30 24 31 26 32 27 33
REMARK SMILES IDX 25 34
REMARK H PARENT 18 12 25 35 25 36
ROOT
ATOM      1  C   UNL     1     -21.459 -40.981  25.235  1.00  0.00     0.058 A 
ATOM      2  C   UNL     1     -22.441 -40.276  24.514  1.00  0.00     0.029 A 
ATOM      3  C   UNL     1     -23.452 -39.551  25.156  1.00  0.00     0.024 A 
ATOM      4  C   UNL     1     -23.479 -39.507  26.548  1.00  0.00     0.082 A 
ATOM      5  C   UNL     1     -22.520 -40.188  27.295  1.00  0.00     0.024 A 
ATOM      6  C   UNL     1     -21.517 -40.910  26.638  1.00  0.00     0.029 A 
ENDROOT
BRANCH   1   7
ATOM      7  N   UNL     1     -20.443 -41.686  24.558  1.00  0.00    -0.276 N 
ATOM      8  N   UNL     1     -19.330 -42.197  25.219  1.00  0.00    -0.297 N 
ATOM      9  C   UNL     1     -18.230 -42.225  24.376  1.00  0.00     0.060 C 
ATOM     10  C   UNL     1     -18.536 -41.640  23.208  1.00  0.00     0.033 C 
ATOM     11  C   UNL     1     -19.991 -41.203  23.209  1.00  0.00     0.161 C 
ATOM     12  H   UNL     1     -19.477 -43.079  25.712  1.00  0.00     0.188 HD
BRANCH   9  13
ATOM     13  C   UNL     1     -16.961 -42.837  24.776  1.00  0.00     0.005 A 
ATOM     14  C   UNL     1     -16.145 -43.465  23.823  1.00  0.00     0.049 A 
ATOM     15  C   UNL     1     -16.519 -42.795  26.106  1.00  0.00     0.049 A 
ATOM     16  C   UNL     1     -14.931 -44.034  24.203  1.00  0.00     0.126 A 
ATOM     17  C   UNL     1     -15.302 -43.372  26.461  1.00  0.00     0.126 A 
ATOM     18  C   UNL     1     -14.499 -43.996  25.518  1.00  0.00     0.078 A 
ATOM     19  F   UNL     1     -14.169 -44.631  23.276  1.00  0.00    -0.207 F 
ATOM     20  F   UNL     1     -14.899 -43.320  27.737  1.00  0.00    -0.207 F 
ENDBRANCH   9  13
BRANCH  11  21
ATOM     21  C   UNL     1     -20.758 -41.837  22.061  1.00  0.00    -0.016 A 
ATOM     22  C   UNL     1     -20.993 -41.156  20.859  1.00  0.00     0.010 A 
ATOM     23  C   UNL     1     -21.287 -43.132  22.213  1.00  0.00     0.056 A 
ATOM     24  C   UNL     1     -21.718 -41.754  19.826  1.00  0.00     0.051 A 
ATOM     25  C   UNL     1     -22.012 -43.741  21.181  1.00  0.00     0.161 A 
ATOM     26  C   UNL     1     -22.230 -43.045  19.977  1.00  0.00     0.160 A 
BRANCH  25  27
ATOM     27  O   UNL     1     -22.552 -45.002  21.254  1.00  0.00    -0.493 OA
ATOM     28  C   UNL     1     -22.772 -45.558  22.541  1.00  0.00     0.278 C 
ENDBRANCH  25  27
BRANCH  26  29
ATOM     29  O   UNL     1     -22.951 -43.710  19.016  1.00  0.00    -0.493 OA
ATOM     30  C   UNL     1     -24.217 -43.179  18.655  1.00  0.00     0.278 C 
ENDBRANCH  26  29
ENDBRANCH  11  21
ENDBRANCH   1   7
BRANCH   4  31
ATOM     31  S   UNL     1     -24.750 -38.598  27.385  1.00  0.00     0.238 S 
ATOM     32  O   UNL     1     -25.990 -38.770  26.665  1.00  0.00    -0.207 OA
ATOM     33  O   UNL     1     -24.630 -38.848  28.801  1.00  0.00    -0.207 OA
BRANCH  31  34
ATOM     34  N   UNL     1     -24.274 -37.010  27.093  1.00  0.00    -0.225 NA
ATOM     35  H   UNL     1     -23.807 -36.648  27.926  1.00  0.00     0.137 HD
ATOM     36  H   UNL     1     -25.040 -36.407  26.795  1.00  0.00     0.137 HD
ENDBRANCH  31  34
ENDBRANCH   4  31
TORSDOF 7
ENDMDL
MODEL 7
REMARK VINA RESULT:    -8.455      2.755      3.930
REMARK INTER + INTRA:         -12.908
REMARK INTER:                 -11.491
REMARK INTRA:                  -1.416
REMARK UNBOUND:                -1.240
REMARK SMILES COc1ccc([C@@H]2C=C(c3cc(F)cc(F)c3)NN2c2ccc(S(N)(=O)=O)cc2)cc1OC
REMARK SMILES IDX 20 1 21 2 22 3 23 4 28 5 29 6 19 7 18 8 9 9 8 10 7 11 10 13
REMARK SMILES IDX 11 14 17 15 12 16 15 17 14 18 13 19 16 20 6 21 5 22 30 23
REMARK SMILES IDX 4 24 31 25 3 26 32 27 33 28 2 29 1 30 24 31 26 32 27 33
REMARK SMILES IDX 25 34
REMARK H PARENT 18 12 25 35 25 36
ROOT
ATOM      1  C   UNL     1     -19.220 -42.472  25.319  1.00  0.00     0.058 A 
ATOM      2  C   UNL     1     -18.690 -42.531  24.015  1.00  0.00     0.029 A 
ATOM      3  C   UNL     1     -17.311 -42.578  23.779  1.00  0.00     0.024 A 
ATOM      4  C   UNL     1     -16.435 -42.589  24.862  1.00  0.00     0.082 A 
ATOM      5  C   UNL     1     -16.922 -42.537  26.166  1.00  0.00     0.024 A 
ATOM      6  C   UNL     1     -18.304 -42.487  26.385  1.00  0.00     0.029 A 
ENDROOT
BRANCH   1   7
ATOM      7  N   UNL     1     -20.614 -42.445  25.523  1.00  0.00    -0.276 N 
ATOM      8  N   UNL     1     -21.276 -41.301  25.961  1.00  0.00    -0.297 N 
ATOM      9  C   UNL     1     -22.399 -41.637  26.700  1.00  0.00     0.060 C 
ATOM     10  C   UNL     1     -22.448 -42.967  26.875  1.00  0.00     0.033 C 
ATOM     11  C   UNL     1     -21.284 -43.631  26.157  1.00  0.00     0.161 C 
ATOM     12  H   UNL     1     -21.467 -40.601  25.243  1.00  0.00     0.188 HD
BRANCH   9  13
ATOM     13  C   UNL     1     -23.349 -40.628  27.171  1.00  0.00     0.005 A 
ATOM     14  C   UNL     1     -24.203 -40.906  28.250  1.00  0.00     0.049 A 
ATOM     15  C   UNL     1     -23.420 -39.360  26.577  1.00  0.00     0.049 A 
ATOM     16  C   UNL     1     -25.098 -39.940  28.705  1.00  0.00     0.126 A 
ATOM     17  C   UNL     1     -24.323 -38.411  27.050  1.00  0.00     0.126 A 
ATOM     18  C   UNL     1     -25.168 -38.689  28.114  1.00  0.00     0.078 A 
ATOM     19  F   UNL     1     -25.905 -40.228  29.734  1.00  0.00    -0.207 F 
ATOM     20  F   UNL     1     -24.372 -37.205  26.469  1.00  0.00    -0.207 F 
ENDBRANCH   9  13
BRANCH  11  21
ATOM     21  C   UNL     1     -21.773 -44.652  25.144  1.00  0.00    -0.016 A 
ATOM     22  C   UNL     1     -21.727 -46.030  25.397  1.00  0.00     0.010 A 
ATOM     23  C   UNL     1     -22.250 -44.215  23.895  1.00  0.00     0.056 A 
ATOM     24  C   UNL     1     -22.163 -46.949  24.441  1.00  0.00     0.051 A 
ATOM     25  C   UNL     1     -22.693 -45.129  22.931  1.00  0.00     0.161 A 
ATOM     26  C   UNL     1     -22.649 -46.509  23.207  1.00  0.00     0.160 A 
BRANCH  25  27
ATOM     27  O   UNL     1     -23.178 -44.778  21.695  1.00  0.00    -0.493 OA
ATOM     28  C   UNL     1     -22.312 -44.077  20.815  1.00  0.00     0.278 C 
ENDBRANCH  25  27
BRANCH  26  29
ATOM     29  O   UNL     1     -23.100 -47.340  22.210  1.00  0.00    -0.493 OA
ATOM     30  C   UNL     1     -22.596 -48.667  22.178  1.00  0.00     0.278 C 
ENDBRANCH  26  29
ENDBRANCH  11  21
ENDBRANCH   1   7
BRANCH   4  31
ATOM     31  S   UNL     1     -14.685 -42.647  24.589  1.00  0.00     0.238 S 
ATOM     32  O   UNL     1     -14.335 -41.632  23.622  1.00  0.00    -0.207 OA
ATOM     33  O   UNL     1     -14.028 -42.761  25.869  1.00  0.00    -0.207 OA
BRANCH  31  34
ATOM     34  N   UNL     1     -14.519 -44.115  23.783  1.00  0.00    -0.225 NA
ATOM     35  H   UNL     1     -15.335 -44.255  23.184  1.00  0.00     0.137 HD
ATOM     36  H   UNL     1     -14.368 -44.905  24.410  1.00  0.00     0.137 HD
ENDBRANCH  31  34
ENDBRANCH   4  31
TORSDOF 7
ENDMDL
MODEL 8
REMARK VINA RESULT:    -8.325      4.733      8.493
REMARK INTER + INTRA:         -12.728
REMARK INTER:                 -11.366
REMARK INTRA:                  -1.362
REMARK UNBOUND:                -1.240
REMARK SMILES COc1ccc([C@@H]2C=C(c3cc(F)cc(F)c3)NN2c2ccc(S(N)(=O)=O)cc2)cc1OC
REMARK SMILES IDX 20 1 21 2 22 3 23 4 28 5 29 6 19 7 18 8 9 9 8 10 7 11 10 13
REMARK SMILES IDX 11 14 17 15 12 16 15 17 14 18 13 19 16 20 6 21 5 22 30 23
REMARK SMILES IDX 4 24 31 25 3 26 32 27 33 28 2 29 1 30 24 31 26 32 27 33
REMARK SMILES IDX 25 34
REMARK H PARENT 18 12 25 35 25 36
ROOT
ATOM      1  C   UNL     1     -21.320 -40.405  22.700  1.00  0.00     0.058 A 
ATOM      2  C   UNL     1     -20.722 -40.545  21.433  1.00  0.00     0.029 A 
ATOM      3  C   UNL     1     -21.154 -39.805  20.326  1.00  0.00     0.024 A 
ATOM      4  C   UNL     1     -22.189 -38.886  20.483  1.00  0.00     0.082 A 
ATOM      5  C   UNL     1     -22.800 -38.716  21.723  1.00  0.00     0.024 A 
ATOM      6  C   UNL     1     -22.359 -39.466  22.820  1.00  0.00     0.029 A 
ENDROOT
BRANCH   1   7
ATOM      7  N   UNL     1     -20.850 -41.152  23.799  1.00  0.00    -0.276 N 
ATOM      8  N   UNL     1     -19.515 -41.128  24.195  1.00  0.00    -0.297 N 
ATOM      9  C   UNL     1     -19.154 -42.334  24.775  1.00  0.00     0.060 C 
ATOM     10  C   UNL     1     -20.167 -43.208  24.674  1.00  0.00     0.033 C 
ATOM     11  C   UNL     1     -21.362 -42.549  24.008  1.00  0.00     0.161 C 
ATOM     12  H   UNL     1     -19.236 -40.319  24.751  1.00  0.00     0.188 HD
BRANCH   9  13
ATOM     13  C   UNL     1     -17.844 -42.535  25.396  1.00  0.00     0.005 A 
ATOM     14  C   UNL     1     -16.703 -42.720  24.601  1.00  0.00     0.049 A 
ATOM     15  C   UNL     1     -17.690 -42.528  26.790  1.00  0.00     0.049 A 
ATOM     16  C   UNL     1     -15.454 -42.898  25.195  1.00  0.00     0.126 A 
ATOM     17  C   UNL     1     -16.432 -42.708  27.359  1.00  0.00     0.126 A 
ATOM     18  C   UNL     1     -15.305 -42.895  26.572  1.00  0.00     0.078 A 
ATOM     19  F   UNL     1     -14.379 -43.076  24.417  1.00  0.00    -0.207 F 
ATOM     20  F   UNL     1     -16.307 -42.697  28.693  1.00  0.00    -0.207 F 
ENDBRANCH   9  13
BRANCH  11  21
ATOM     21  C   UNL     1     -22.591 -42.606  24.899  1.00  0.00    -0.016 A 
ATOM     22  C   UNL     1     -23.869 -42.281  24.424  1.00  0.00     0.010 A 
ATOM     23  C   UNL     1     -22.448 -42.957  26.254  1.00  0.00     0.056 A 
ATOM     24  C   UNL     1     -24.980 -42.322  25.269  1.00  0.00     0.051 A 
ATOM     25  C   UNL     1     -23.557 -43.005  27.109  1.00  0.00     0.161 A 
ATOM     26  C   UNL     1     -24.835 -42.684  26.611  1.00  0.00     0.160 A 
BRANCH  25  27
ATOM     27  O   UNL     1     -23.496 -43.345  28.438  1.00  0.00    -0.493 OA
ATOM     28  C   UNL     1     -23.092 -44.665  28.769  1.00  0.00     0.278 C 
ENDBRANCH  25  27
BRANCH  26  29
ATOM     29  O   UNL     1     -25.869 -42.753  27.512  1.00  0.00    -0.493 OA
ATOM     30  C   UNL     1     -26.455 -41.533  27.940  1.00  0.00     0.278 C 
ENDBRANCH  26  29
ENDBRANCH  11  21
ENDBRANCH   1   7
BRANCH   4  31
ATOM     31  S   UNL     1     -22.754 -37.937  19.097  1.00  0.00     0.238 S 
ATOM     32  O   UNL     1     -22.055 -38.386  17.915  1.00  0.00    -0.207 OA
ATOM     33  O   UNL     1     -24.193 -37.848  19.163  1.00  0.00    -0.207 OA
BRANCH  31  34
ATOM     34  N   UNL     1     -22.119 -36.419  19.448  1.00  0.00    -0.225 NA
ATOM     35  H   UNL     1     -22.838 -35.861  19.911  1.00  0.00     0.137 HD
ATOM     36  H   UNL     1     -21.736 -35.943  18.632  1.00  0.00     0.137 HD
ENDBRANCH  31  34
ENDBRANCH   4  31
TORSDOF 7
ENDMDL
MODEL 9
REMARK VINA RESULT:    -8.285      3.741      6.220
REMARK INTER + INTRA:         -12.673
REMARK INTER:                 -11.298
REMARK INTRA:                  -1.376
REMARK UNBOUND:                -1.240
REMARK SMILES COc1ccc([C@@H]2C=C(c3cc(F)cc(F)c3)NN2c2ccc(S(N)(=O)=O)cc2)cc1OC
REMARK SMILES IDX 20 1 21 2 22 3 23 4 28 5 29 6 19 7 18 8 9 9 8 10 7 11 10 13
REMARK SMILES IDX 11 14 17 15 12 16 15 17 14 18 13 19 16 20 6 21 5 22 30 23
REMARK SMILES IDX 4 24 31 25 3 26 32 27 33 28 2 29 1 30 24 31 26 32 27 33
REMARK SMILES IDX 25 34
REMARK H PARENT 18 12 25 35 25 36
ROOT
ATOM      1  C   UNL     1     -22.330 -44.364  25.667  1.00  0.00     0.058 A 
ATOM      2  C   UNL     1     -21.387 -45.410  25.678  1.00  0.00     0.029 A 
ATOM      3  C   UNL     1     -21.638 -46.639  25.057  1.00  0.00     0.024 A 
ATOM      4  C   UNL     1     -22.846 -46.830  24.390  1.00  0.00     0.082 A 
ATOM      5  C   UNL     1     -23.801 -45.816  24.353  1.00  0.00     0.024 A 
ATOM      6  C   UNL     1     -23.535 -44.593  24.981  1.00  0.00     0.029 A 
ENDROOT
BRANCH   1   7
ATOM      7  N   UNL     1     -22.038 -43.131  26.285  1.00  0.00    -0.276 N 
ATOM      8  N   UNL     1     -22.992 -42.422  27.009  1.00  0.00    -0.297 N 
ATOM      9  C   UNL     1     -22.746 -41.059  26.940  1.00  0.00     0.060 C 
ATOM     10  C   UNL     1     -21.730 -40.823  26.096  1.00  0.00     0.033 C 
ATOM     11  C   UNL     1     -21.180 -42.133  25.560  1.00  0.00     0.161 C 
ATOM     12  H   UNL     1     -23.155 -42.749  27.962  1.00  0.00     0.188 HD
BRANCH   9  13
ATOM     13  C   UNL     1     -23.521 -40.090  27.717  1.00  0.00     0.005 A 
ATOM     14  C   UNL     1     -23.499 -38.729  27.377  1.00  0.00     0.049 A 
ATOM     15  C   UNL     1     -24.315 -40.493  28.800  1.00  0.00     0.049 A 
ATOM     16  C   UNL     1     -24.248 -37.809  28.110  1.00  0.00     0.126 A 
ATOM     17  C   UNL     1     -25.054 -39.555  29.517  1.00  0.00     0.126 A 
ATOM     18  C   UNL     1     -25.029 -38.209  29.182  1.00  0.00     0.078 A 
ATOM     19  F   UNL     1     -24.210 -36.515  27.770  1.00  0.00    -0.207 F 
ATOM     20  F   UNL     1     -25.808 -39.962  30.547  1.00  0.00    -0.207 F 
ENDBRANCH   9  13
BRANCH  11  21
ATOM     21  C   UNL     1     -19.701 -42.280  25.874  1.00  0.00    -0.016 A 
ATOM     22  C   UNL     1     -19.221 -42.318  27.190  1.00  0.00     0.010 A 
ATOM     23  C   UNL     1     -18.771 -42.340  24.819  1.00  0.00     0.056 A 
ATOM     24  C   UNL     1     -17.854 -42.433  27.452  1.00  0.00     0.051 A 
ATOM     25  C   UNL     1     -17.399 -42.458  25.072  1.00  0.00     0.161 A 
ATOM     26  C   UNL     1     -16.936 -42.506  26.401  1.00  0.00     0.160 A 
BRANCH  25  27
ATOM     27  O   UNL     1     -16.435 -42.530  24.096  1.00  0.00    -0.493 OA
ATOM     28  C   UNL     1     -16.772 -42.074  22.794  1.00  0.00     0.278 C 
ENDBRANCH  25  27
BRANCH  26  29
ATOM     29  O   UNL     1     -15.577 -42.621  26.564  1.00  0.00    -0.493 OA
ATOM     30  C   UNL     1     -15.095 -43.713  27.332  1.00  0.00     0.278 C 
ENDBRANCH  26  29
ENDBRANCH  11  21
ENDBRANCH   1   7
BRANCH   4  31
ATOM     31  S   UNL     1     -23.189 -48.378  23.598  1.00  0.00     0.238 S 
ATOM     32  O   UNL     1     -23.330 -49.395  24.614  1.00  0.00    -0.207 OA
ATOM     33  O   UNL     1     -24.184 -48.155  22.576  1.00  0.00    -0.207 OA
BRANCH  31  34
ATOM     34  N   UNL     1     -21.721 -48.698  22.837  1.00  0.00    -0.225 NA
ATOM     35  H   UNL     1     -21.135 -49.242  23.472  1.00  0.00     0.137 HD
ATOM     36  H   UNL     1     -21.247 -47.858  22.507  1.00  0.00     0.137 HD
ENDBRANCH  31  34
ENDBRANCH   4  31
TORSDOF 7
ENDMDL
