MODEL 1
REMARK VINA RESULT:   -10.326      0.000      0.000
REMARK INTER + INTRA:         -17.255
REMARK INTER:                 -15.759
REMARK INTRA:                  -1.496
REMARK UNBOUND:                -1.496
REMARK SMILES CNC(=O)Oc1cccc(C[N@@H+](C)CCCOc2ccc3ccc(=O)oc3c2)c1
REMARK SMILES IDX 12 1 13 2 11 4 10 5 9 6 29 7 8 8 6 9 7 10 5 11 3 12 2 13
REMARK SMILES IDX 4 14 1 15 14 17 15 18 16 19 17 20 18 21 19 22 28 23 20 24
REMARK SMILES IDX 27 25 21 26 26 27 22 28 24 29 23 30 25 31
REMARK H PARENT 12 3 2 16
ROOT
ATOM      1  N   UNL     1      -9.185 -42.711  27.831  1.00  0.00    -0.334 N 
ATOM      2  C   UNL     1      -8.441 -42.035  26.716  1.00  0.00     0.333 C 
ATOM      3  H   UNL     1      -9.221 -43.722  27.624  1.00  0.00     0.348 HD
ENDROOT
BRANCH   1   4
ATOM      4  C   UNL     1     -10.637 -42.277  27.897  1.00  0.00     0.298 C 
BRANCH   4   5
ATOM      5  C   UNL     1     -11.605 -43.404  27.663  1.00  0.00     0.010 A 
ATOM      6  C   UNL     1     -11.324 -44.700  28.125  1.00  0.00     0.010 A 
ATOM      7  C   UNL     1     -12.804 -43.173  26.972  1.00  0.00     0.056 A 
ATOM      8  C   UNL     1     -12.225 -45.744  27.903  1.00  0.00     0.004 A 
ATOM      9  C   UNL     1     -13.714 -44.215  26.788  1.00  0.00     0.133 A 
ATOM     10  C   UNL     1     -13.421 -45.503  27.230  1.00  0.00     0.047 A 
BRANCH   9  11
ATOM     11  O   UNL     1     -14.930 -44.049  26.102  1.00  0.00    -0.410 OA
BRANCH  11  12
ATOM     12  C   UNL     1     -14.902 -43.662  24.766  1.00  0.00     0.412 C 
ATOM     13  N   UNL     1     -15.391 -42.392  24.652  1.00  0.00    -0.324 N 
ATOM     14  O   UNL     1     -14.514 -44.350  23.832  1.00  0.00    -0.224 OA
ATOM     15  C   UNL     1     -15.548 -41.732  23.384  1.00  0.00     0.146 C 
ATOM     16  H   UNL     1     -15.743 -41.955  25.494  1.00  0.00     0.166 HD
ENDBRANCH  11  12
ENDBRANCH   9  11
ENDBRANCH   4   5
ENDBRANCH   1   4
BRANCH   1  17
ATOM     17  C   UNL     1      -8.514 -42.573  29.175  1.00  0.00     0.265 C 
BRANCH  17  18
ATOM     18  C   UNL     1      -8.176 -43.918  29.820  1.00  0.00     0.103 C 
BRANCH  18  19
ATOM     19  C   UNL     1      -7.504 -43.850  31.194  1.00  0.00     0.235 C 
BRANCH  19  20
ATOM     20  O   UNL     1      -8.229 -44.588  32.179  1.00  0.00    -0.493 OA
BRANCH  20  21
ATOM     21  C   UNL     1      -9.595 -44.517  32.156  1.00  0.00     0.123 A 
ATOM     22  C   UNL     1     -10.231 -45.624  31.580  1.00  0.00     0.047 A 
ATOM     23  C   UNL     1     -10.364 -43.451  32.613  1.00  0.00     0.094 A 
ATOM     24  C   UNL     1     -11.626 -45.675  31.469  1.00  0.00     0.016 A 
ATOM     25  C   UNL     1     -11.754 -43.514  32.491  1.00  0.00     0.142 A 
ATOM     26  C   UNL     1     -12.400 -44.611  31.927  1.00  0.00     0.018 A 
ATOM     27  O   UNL     1     -12.486 -42.406  32.960  1.00  0.00    -0.423 OA
ATOM     28  C   UNL     1     -13.850 -44.607  31.841  1.00  0.00     0.019 A 
ATOM     29  C   UNL     1     -13.874 -42.372  32.879  1.00  0.00     0.336 A 
ATOM     30  C   UNL     1     -14.534 -43.551  32.292  1.00  0.00     0.094 A 
ATOM     31  O   UNL     1     -14.525 -41.411  33.269  1.00  0.00    -0.246 OA
ENDBRANCH  20  21
ENDBRANCH  19  20
ENDBRANCH  18  19
ENDBRANCH  17  18
ENDBRANCH   1  17
TORSDOF 9
ENDMDL
MODEL 2
REMARK VINA RESULT:    -9.883      3.542      9.493
REMARK INTER + INTRA:         -16.579
REMARK INTER:                 -15.554
REMARK INTRA:                  -1.025
REMARK UNBOUND:                -1.496
REMARK SMILES CNC(=O)Oc1cccc(C[N@@H+](C)CCCOc2ccc3ccc(=O)oc3c2)c1
REMARK SMILES IDX 12 1 13 2 11 4 10 5 9 6 29 7 8 8 6 9 7 10 5 11 3 12 2 13
REMARK SMILES IDX 4 14 1 15 14 17 15 18 16 19 17 20 18 21 19 22 28 23 20 24
REMARK SMILES IDX 27 25 21 26 26 27 22 28 24 29 23 30 25 31
REMARK H PARENT 12 3 2 16
ROOT
ATOM      1  N   UNL     1     -14.020 -44.048  25.386  1.00  0.00    -0.334 N 
ATOM      2  C   UNL     1     -14.520 -44.788  24.178  1.00  0.00     0.333 C 
ATOM      3  H   UNL     1     -13.004 -43.903  25.274  1.00  0.00     0.348 HD
ENDROOT
BRANCH   1   4
ATOM      4  C   UNL     1     -14.158 -44.865  26.656  1.00  0.00     0.298 C 
BRANCH   4   5
ATOM      5  C   UNL     1     -12.857 -45.048  27.389  1.00  0.00     0.010 A 
ATOM      6  C   UNL     1     -12.252 -46.313  27.471  1.00  0.00     0.010 A 
ATOM      7  C   UNL     1     -12.234 -43.953  28.006  1.00  0.00     0.056 A 
ATOM      8  C   UNL     1     -11.045 -46.479  28.154  1.00  0.00     0.004 A 
ATOM      9  C   UNL     1     -11.010 -44.124  28.655  1.00  0.00     0.133 A 
ATOM     10  C   UNL     1     -10.424 -45.384  28.751  1.00  0.00     0.047 A 
BRANCH   9  11
ATOM     11  O   UNL     1     -10.337 -43.068  29.294  1.00  0.00    -0.410 OA
BRANCH  11  12
ATOM     12  C   UNL     1      -9.070 -42.708  28.846  1.00  0.00     0.412 C 
ATOM     13  N   UNL     1      -9.156 -42.259  27.559  1.00  0.00    -0.324 N 
ATOM     14  O   UNL     1      -8.034 -42.789  29.493  1.00  0.00    -0.224 OA
ATOM     15  C   UNL     1      -8.001 -41.869  26.796  1.00  0.00     0.146 C 
ATOM     16  H   UNL     1     -10.063 -42.305  27.114  1.00  0.00     0.166 HD
ENDBRANCH  11  12
ENDBRANCH   9  11
ENDBRANCH   4   5
ENDBRANCH   1   4
BRANCH   1  17
ATOM     17  C   UNL     1     -14.632 -42.679  25.551  1.00  0.00     0.265 C 
BRANCH  17  18
ATOM     18  C   UNL     1     -15.541 -42.570  26.775  1.00  0.00     0.103 C 
BRANCH  18  19
ATOM     19  C   UNL     1     -17.045 -42.527  26.490  1.00  0.00     0.235 C 
BRANCH  19  20
ATOM     20  O   UNL     1     -17.347 -42.955  25.161  1.00  0.00    -0.493 OA
BRANCH  20  21
ATOM     21  C   UNL     1     -18.184 -42.174  24.412  1.00  0.00     0.123 A 
ATOM     22  C   UNL     1     -19.400 -41.855  25.029  1.00  0.00     0.047 A 
ATOM     23  C   UNL     1     -17.938 -41.722  23.118  1.00  0.00     0.094 A 
ATOM     24  C   UNL     1     -20.362 -41.082  24.368  1.00  0.00     0.016 A 
ATOM     25  C   UNL     1     -18.909 -40.956  22.469  1.00  0.00     0.142 A 
ATOM     26  C   UNL     1     -20.119 -40.626  23.074  1.00  0.00     0.018 A 
ATOM     27  O   UNL     1     -18.616 -40.531  21.159  1.00  0.00    -0.423 OA
ATOM     28  C   UNL     1     -21.078 -39.819  22.339  1.00  0.00     0.019 A 
ATOM     29  C   UNL     1     -19.521 -39.768  20.429  1.00  0.00     0.336 A 
ATOM     30  C   UNL     1     -20.787 -39.420  21.096  1.00  0.00     0.094 A 
ATOM     31  O   UNL     1     -19.288 -39.402  19.284  1.00  0.00    -0.246 OA
ENDBRANCH  20  21
ENDBRANCH  19  20
ENDBRANCH  18  19
ENDBRANCH  17  18
ENDBRANCH   1  17
TORSDOF 9
ENDMDL
MODEL 3
REMARK VINA RESULT:    -9.755      3.010      7.641
REMARK INTER + INTRA:         -16.384
REMARK INTER:                 -16.002
REMARK INTRA:                  -0.382
REMARK UNBOUND:                -1.496
REMARK SMILES CNC(=O)Oc1cccc(C[N@@H+](C)CCCOc2ccc3ccc(=O)oc3c2)c1
REMARK SMILES IDX 12 1 13 2 11 4 10 5 9 6 29 7 8 8 6 9 7 10 5 11 3 12 2 13
REMARK SMILES IDX 4 14 1 15 14 17 15 18 16 19 17 20 18 21 19 22 28 23 20 24
REMARK SMILES IDX 27 25 21 26 26 27 22 28 24 29 23 30 25 31
REMARK H PARENT 12 3 2 16
ROOT
ATOM      1  N   UNL     1     -10.440 -45.652  29.054  1.00  0.00    -0.334 N 
ATOM      2  C   UNL     1     -10.442 -46.844  28.141  1.00  0.00     0.333 C 
ATOM      3  H   UNL     1      -9.539 -45.161  28.938  1.00  0.00     0.348 HD
ENDROOT
BRANCH   1   4
ATOM      4  C   UNL     1     -10.480 -46.050  30.517  1.00  0.00     0.298 C 
BRANCH   4   5
ATOM      5  C   UNL     1      -9.927 -44.994  31.435  1.00  0.00     0.010 A 
ATOM      6  C   UNL     1      -8.540 -44.858  31.618  1.00  0.00     0.010 A 
ATOM      7  C   UNL     1     -10.793 -44.134  32.125  1.00  0.00     0.056 A 
ATOM      8  C   UNL     1      -8.031 -43.878  32.473  1.00  0.00     0.004 A 
ATOM      9  C   UNL     1     -10.272 -43.135  32.949  1.00  0.00     0.133 A 
ATOM     10  C   UNL     1      -8.897 -43.017  33.143  1.00  0.00     0.047 A 
BRANCH   9  11
ATOM     11  O   UNL     1     -11.086 -42.244  33.669  1.00  0.00    -0.410 OA
BRANCH  11  12
ATOM     12  C   UNL     1     -12.406 -42.063  33.268  1.00  0.00     0.412 C 
ATOM     13  N   UNL     1     -13.202 -41.943  34.371  1.00  0.00    -0.324 N 
ATOM     14  O   UNL     1     -12.801 -42.029  32.110  1.00  0.00    -0.224 OA
ATOM     15  C   UNL     1     -14.631 -41.805  34.284  1.00  0.00     0.146 C 
ATOM     16  H   UNL     1     -12.761 -42.056  35.274  1.00  0.00     0.166 HD
ENDBRANCH  11  12
ENDBRANCH   9  11
ENDBRANCH   4   5
ENDBRANCH   1   4
BRANCH   1  17
ATOM     17  C   UNL     1     -11.519 -44.646  28.735  1.00  0.00     0.265 C 
BRANCH  17  18
ATOM     18  C   UNL     1     -12.886 -45.286  28.496  1.00  0.00     0.103 C 
BRANCH  18  19
ATOM     19  C   UNL     1     -13.620 -44.842  27.227  1.00  0.00     0.235 C 
BRANCH  19  20
ATOM     20  O   UNL     1     -14.050 -43.482  27.308  1.00  0.00    -0.493 OA
BRANCH  20  21
ATOM     21  C   UNL     1     -15.244 -43.152  26.729  1.00  0.00     0.123 A 
ATOM     22  C   UNL     1     -15.254 -43.211  25.330  1.00  0.00     0.047 A 
ATOM     23  C   UNL     1     -16.392 -42.744  27.402  1.00  0.00     0.094 A 
ATOM     24  C   UNL     1     -16.404 -42.876  24.603  1.00  0.00     0.016 A 
ATOM     25  C   UNL     1     -17.529 -42.408  26.664  1.00  0.00     0.142 A 
ATOM     26  C   UNL     1     -17.555 -42.469  25.273  1.00  0.00     0.018 A 
ATOM     27  O   UNL     1     -18.662 -41.993  27.391  1.00  0.00    -0.423 OA
ATOM     28  C   UNL     1     -18.778 -42.111  24.575  1.00  0.00     0.019 A 
ATOM     29  C   UNL     1     -19.840 -41.634  26.747  1.00  0.00     0.336 A 
ATOM     30  C   UNL     1     -19.848 -41.721  25.276  1.00  0.00     0.094 A 
ATOM     31  O   UNL     1     -20.830 -41.257  27.363  1.00  0.00    -0.246 OA
ENDBRANCH  20  21
ENDBRANCH  19  20
ENDBRANCH  18  19
ENDBRANCH  17  18
ENDBRANCH   1  17
TORSDOF 9
ENDMDL
MODEL 4
REMARK VINA RESULT:    -9.469      3.290      7.602
REMARK INTER + INTRA:         -15.946
REMARK INTER:                 -16.089
REMARK INTRA:                   0.143
REMARK UNBOUND:                -1.496
REMARK SMILES CNC(=O)Oc1cccc(C[N@@H+](C)CCCOc2ccc3ccc(=O)oc3c2)c1
REMARK SMILES IDX 12 1 13 2 11 4 10 5 9 6 29 7 8 8 6 9 7 10 5 11 3 12 2 13
REMARK SMILES IDX 4 14 1 15 14 17 15 18 16 19 17 20 18 21 19 22 28 23 20 24
REMARK SMILES IDX 27 25 21 26 26 27 22 28 24 29 23 30 25 31
REMARK H PARENT 12 3 2 16
ROOT
ATOM      1  N   UNL     1     -13.013 -46.207  29.592  1.00  0.00    -0.334 N 
ATOM      2  C   UNL     1     -13.244 -46.179  31.075  1.00  0.00     0.333 C 
ATOM      3  H   UNL     1     -13.517 -47.020  29.204  1.00  0.00     0.348 HD
ENDROOT
BRANCH   1   4
ATOM      4  C   UNL     1     -11.558 -46.451  29.243  1.00  0.00     0.298 C 
BRANCH   4   5
ATOM      5  C   UNL     1     -10.605 -45.602  30.039  1.00  0.00     0.010 A 
ATOM      6  C   UNL     1     -10.462 -45.791  31.424  1.00  0.00     0.010 A 
ATOM      7  C   UNL     1      -9.849 -44.605  29.407  1.00  0.00     0.056 A 
ATOM      8  C   UNL     1      -9.578 -44.999  32.160  1.00  0.00     0.004 A 
ATOM      9  C   UNL     1      -8.942 -43.844  30.146  1.00  0.00     0.133 A 
ATOM     10  C   UNL     1      -8.819 -44.021  31.522  1.00  0.00     0.047 A 
BRANCH   9  11
ATOM     11  O   UNL     1      -8.158 -42.828  29.571  1.00  0.00    -0.410 OA
BRANCH  11  12
ATOM     12  C   UNL     1      -8.609 -42.203  28.413  1.00  0.00     0.412 C 
ATOM     13  N   UNL     1      -7.552 -41.981  27.577  1.00  0.00    -0.324 N 
ATOM     14  O   UNL     1      -9.768 -41.886  28.178  1.00  0.00    -0.224 OA
ATOM     15  C   UNL     1      -7.688 -41.293  26.321  1.00  0.00     0.146 C 
ATOM     16  H   UNL     1      -6.633 -42.230  27.919  1.00  0.00     0.166 HD
ENDBRANCH  11  12
ENDBRANCH   9  11
ENDBRANCH   4   5
ENDBRANCH   1   4
BRANCH   1  17
ATOM     17  C   UNL     1     -13.547 -44.992  28.874  1.00  0.00     0.265 C 
BRANCH  17  18
ATOM     18  C   UNL     1     -13.529 -45.135  27.352  1.00  0.00     0.103 C 
BRANCH  18  19
ATOM     19  C   UNL     1     -13.899 -43.880  26.558  1.00  0.00     0.235 C 
BRANCH  19  20
ATOM     20  O   UNL     1     -14.808 -43.043  27.275  1.00  0.00    -0.493 OA
BRANCH  20  21
ATOM     21  C   UNL     1     -16.014 -42.763  26.694  1.00  0.00     0.123 A 
ATOM     22  C   UNL     1     -16.021 -42.822  25.295  1.00  0.00     0.047 A 
ATOM     23  C   UNL     1     -17.179 -42.403  27.366  1.00  0.00     0.094 A 
ATOM     24  C   UNL     1     -17.182 -42.534  24.567  1.00  0.00     0.016 A 
ATOM     25  C   UNL     1     -18.328 -42.113  26.627  1.00  0.00     0.142 A 
ATOM     26  C   UNL     1     -18.351 -42.175  25.237  1.00  0.00     0.018 A 
ATOM     27  O   UNL     1     -19.478 -41.745  27.354  1.00  0.00    -0.423 OA
ATOM     28  C   UNL     1     -19.587 -41.868  24.537  1.00  0.00     0.019 A 
ATOM     29  C   UNL     1     -20.669 -41.435  26.708  1.00  0.00     0.336 A 
ATOM     30  C   UNL     1     -20.672 -41.522  25.238  1.00  0.00     0.094 A 
ATOM     31  O   UNL     1     -21.674 -41.100  27.323  1.00  0.00    -0.246 OA
ENDBRANCH  20  21
ENDBRANCH  19  20
ENDBRANCH  18  19
ENDBRANCH  17  18
ENDBRANCH   1  17
TORSDOF 9
ENDMDL
MODEL 5
REMARK VINA RESULT:    -9.391      3.567      9.899
REMARK INTER + INTRA:         -15.828
REMARK INTER:                 -15.286
REMARK INTRA:                  -0.542
REMARK UNBOUND:                -1.496
REMARK SMILES CNC(=O)Oc1cccc(C[N@@H+](C)CCCOc2ccc3ccc(=O)oc3c2)c1
REMARK SMILES IDX 12 1 13 2 11 4 10 5 9 6 29 7 8 8 6 9 7 10 5 11 3 12 2 13
REMARK SMILES IDX 4 14 1 15 14 17 15 18 16 19 17 20 18 21 19 22 28 23 20 24
REMARK SMILES IDX 27 25 21 26 26 27 22 28 24 29 23 30 25 31
REMARK H PARENT 12 3 2 16
ROOT
ATOM      1  N   UNL     1     -13.238 -44.152  27.514  1.00  0.00    -0.334 N 
ATOM      2  C   UNL     1     -12.304 -43.027  27.169  1.00  0.00     0.333 C 
ATOM      3  H   UNL     1     -13.631 -43.966  28.450  1.00  0.00     0.348 HD
ENDROOT
BRANCH   1   4
ATOM      4  C   UNL     1     -12.512 -45.476  27.654  1.00  0.00     0.298 C 
BRANCH   4   5
ATOM      5  C   UNL     1     -11.801 -45.627  28.971  1.00  0.00     0.010 A 
ATOM      6  C   UNL     1     -12.511 -45.972  30.134  1.00  0.00     0.010 A 
ATOM      7  C   UNL     1     -10.417 -45.420  29.055  1.00  0.00     0.056 A 
ATOM      8  C   UNL     1     -11.847 -46.110  31.355  1.00  0.00     0.004 A 
ATOM      9  C   UNL     1      -9.758 -45.596  30.273  1.00  0.00     0.133 A 
ATOM     10  C   UNL     1     -10.469 -45.918  31.427  1.00  0.00     0.047 A 
BRANCH   9  11
ATOM     11  O   UNL     1      -8.374 -45.400  30.423  1.00  0.00    -0.410 OA
BRANCH  11  12
ATOM     12  C   UNL     1      -7.914 -44.172  30.887  1.00  0.00     0.412 C 
ATOM     13  N   UNL     1      -7.495 -44.306  32.181  1.00  0.00    -0.324 N 
ATOM     14  O   UNL     1      -7.896 -43.129  30.249  1.00  0.00    -0.224 OA
ATOM     15  C   UNL     1      -7.020 -43.194  32.960  1.00  0.00     0.146 C 
ATOM     16  H   UNL     1      -7.626 -45.208  32.617  1.00  0.00     0.166 HD
ENDBRANCH  11  12
ENDBRANCH   9  11
ENDBRANCH   4   5
ENDBRANCH   1   4
BRANCH   1  17
ATOM     17  C   UNL     1     -14.411 -44.273  26.572  1.00  0.00     0.265 C 
BRANCH  17  18
ATOM     18  C   UNL     1     -15.306 -43.033  26.564  1.00  0.00     0.103 C 
BRANCH  18  19
ATOM     19  C   UNL     1     -15.817 -42.586  25.192  1.00  0.00     0.235 C 
BRANCH  19  20
ATOM     20  O   UNL     1     -17.125 -43.091  24.920  1.00  0.00    -0.493 OA
BRANCH  20  21
ATOM     21  C   UNL     1     -17.996 -42.282  24.244  1.00  0.00     0.123 A 
ATOM     22  C   UNL     1     -19.172 -41.975  24.940  1.00  0.00     0.047 A 
ATOM     23  C   UNL     1     -17.821 -41.791  22.953  1.00  0.00     0.094 A 
ATOM     24  C   UNL     1     -20.164 -41.175  24.359  1.00  0.00     0.016 A 
ATOM     25  C   UNL     1     -18.821 -40.999  22.385  1.00  0.00     0.142 A 
ATOM     26  C   UNL     1     -19.991 -40.681  23.068  1.00  0.00     0.018 A 
ATOM     27  O   UNL     1     -18.599 -40.535  21.074  1.00  0.00    -0.423 OA
ATOM     28  C   UNL     1     -20.983 -39.844  22.414  1.00  0.00     0.019 A 
ATOM     29  C   UNL     1     -19.537 -39.744  20.421  1.00  0.00     0.336 A 
ATOM     30  C   UNL     1     -20.760 -39.408  21.170  1.00  0.00     0.094 A 
ATOM     31  O   UNL     1     -19.367 -39.343  19.276  1.00  0.00    -0.246 OA
ENDBRANCH  20  21
ENDBRANCH  19  20
ENDBRANCH  18  19
ENDBRANCH  17  18
ENDBRANCH   1  17
TORSDOF 9
ENDMDL
MODEL 6
REMARK VINA RESULT:    -9.252      3.344      9.757
REMARK INTER + INTRA:         -15.617
REMARK INTER:                 -14.989
REMARK INTRA:                  -0.628
REMARK UNBOUND:                -1.496
REMARK SMILES CNC(=O)Oc1cccc(C[N@@H+](C)CCCOc2ccc3ccc(=O)oc3c2)c1
REMARK SMILES IDX 12 1 13 2 11 4 10 5 9 6 29 7 8 8 6 9 7 10 5 11 3 12 2 13
REMARK SMILES IDX 4 14 1 15 14 17 15 18 16 19 17 20 18 21 19 22 28 23 20 24
REMARK SMILES IDX 27 25 21 26 26 27 22 28 24 29 23 30 25 31
REMARK H PARENT 12 3 2 16
ROOT
ATOM      1  N   UNL     1     -12.831 -44.755  27.508  1.00  0.00    -0.334 N 
ATOM      2  C   UNL     1     -12.796 -46.255  27.567  1.00  0.00     0.333 C 
ATOM      3  H   UNL     1     -12.203 -44.450  26.747  1.00  0.00     0.348 HD
ENDROOT
BRANCH   1   4
ATOM      4  C   UNL     1     -12.259 -44.119  28.760  1.00  0.00     0.298 C 
BRANCH   4   5
ATOM      5  C   UNL     1     -10.938 -43.436  28.529  1.00  0.00     0.010 A 
ATOM      6  C   UNL     1     -10.679 -42.765  27.323  1.00  0.00     0.010 A 
ATOM      7  C   UNL     1      -9.945 -43.465  29.519  1.00  0.00     0.056 A 
ATOM      8  C   UNL     1      -9.451 -42.134  27.113  1.00  0.00     0.004 A 
ATOM      9  C   UNL     1      -8.736 -42.801  29.313  1.00  0.00     0.133 A 
ATOM     10  C   UNL     1      -8.475 -42.154  28.106  1.00  0.00     0.047 A 
BRANCH   9  11
ATOM     11  O   UNL     1      -7.700 -42.796  30.263  1.00  0.00    -0.410 OA
BRANCH  11  12
ATOM     12  C   UNL     1      -7.708 -43.753  31.273  1.00  0.00     0.412 C 
ATOM     13  N   UNL     1      -7.007 -44.851  30.861  1.00  0.00    -0.324 N 
ATOM     14  O   UNL     1      -8.265 -43.643  32.357  1.00  0.00    -0.224 OA
ATOM     15  C   UNL     1      -6.886 -46.039  31.663  1.00  0.00     0.146 C 
ATOM     16  H   UNL     1      -6.652 -44.843  29.914  1.00  0.00     0.166 HD
ENDBRANCH  11  12
ENDBRANCH   9  11
ENDBRANCH   4   5
ENDBRANCH   1   4
BRANCH   1  17
ATOM     17  C   UNL     1     -14.195 -44.194  27.188  1.00  0.00     0.265 C 
BRANCH  17  18
ATOM     18  C   UNL     1     -14.259 -43.510  25.823  1.00  0.00     0.103 C 
BRANCH  18  19
ATOM     19  C   UNL     1     -15.477 -42.613  25.582  1.00  0.00     0.235 C 
BRANCH  19  20
ATOM     20  O   UNL     1     -16.452 -43.250  24.754  1.00  0.00    -0.493 OA
BRANCH  20  21
ATOM     21  C   UNL     1     -17.420 -42.467  24.188  1.00  0.00     0.123 A 
ATOM     22  C   UNL     1     -18.557 -42.273  24.981  1.00  0.00     0.047 A 
ATOM     23  C   UNL     1     -17.373 -41.903  22.915  1.00  0.00     0.094 A 
ATOM     24  C   UNL     1     -19.638 -41.512  24.517  1.00  0.00     0.016 A 
ATOM     25  C   UNL     1     -18.460 -41.152  22.464  1.00  0.00     0.142 A 
ATOM     26  C   UNL     1     -19.593 -40.945  23.245  1.00  0.00     0.018 A 
ATOM     27  O   UNL     1     -18.367 -40.611  21.167  1.00  0.00    -0.423 OA
ATOM     28  C   UNL     1     -20.682 -40.145  22.710  1.00  0.00     0.019 A 
ATOM     29  C   UNL     1     -19.398 -39.852  20.627  1.00  0.00     0.336 A 
ATOM     30  C   UNL     1     -20.581 -39.634  21.479  1.00  0.00     0.094 A 
ATOM     31  O   UNL     1     -19.340 -39.385  19.496  1.00  0.00    -0.246 OA
ENDBRANCH  20  21
ENDBRANCH  19  20
ENDBRANCH  18  19
ENDBRANCH  17  18
ENDBRANCH   1  17
TORSDOF 9
ENDMDL
MODEL 7
REMARK VINA RESULT:    -9.168      3.412      6.308
REMARK INTER + INTRA:         -15.488
REMARK INTER:                 -14.704
REMARK INTRA:                  -0.785
REMARK UNBOUND:                -1.496
REMARK SMILES CNC(=O)Oc1cccc(C[N@@H+](C)CCCOc2ccc3ccc(=O)oc3c2)c1
REMARK SMILES IDX 12 1 13 2 11 4 10 5 9 6 29 7 8 8 6 9 7 10 5 11 3 12 2 13
REMARK SMILES IDX 4 14 1 15 14 17 15 18 16 19 17 20 18 21 19 22 28 23 20 24
REMARK SMILES IDX 27 25 21 26 26 27 22 28 24 29 23 30 25 31
REMARK H PARENT 12 3 2 16
ROOT
ATOM      1  N   UNL     1     -15.146 -43.720  24.837  1.00  0.00    -0.334 N 
ATOM      2  C   UNL     1     -14.543 -44.721  23.894  1.00  0.00     0.333 C 
ATOM      3  H   UNL     1     -15.963 -44.159  25.290  1.00  0.00     0.348 HD
ENDROOT
BRANCH   1   4
ATOM      4  C   UNL     1     -15.707 -42.513  24.110  1.00  0.00     0.298 C 
BRANCH   4   5
ATOM      5  C   UNL     1     -17.188 -42.337  24.306  1.00  0.00     0.010 A 
ATOM      6  C   UNL     1     -17.754 -42.399  25.590  1.00  0.00     0.010 A 
ATOM      7  C   UNL     1     -18.024 -42.112  23.203  1.00  0.00     0.056 A 
ATOM      8  C   UNL     1     -19.130 -42.236  25.767  1.00  0.00     0.004 A 
ATOM      9  C   UNL     1     -19.392 -41.915  23.396  1.00  0.00     0.133 A 
ATOM     10  C   UNL     1     -19.952 -41.998  24.669  1.00  0.00     0.047 A 
BRANCH   9  11
ATOM     11  O   UNL     1     -20.284 -41.688  22.332  1.00  0.00    -0.410 OA
BRANCH  11  12
ATOM     12  C   UNL     1     -20.332 -40.425  21.751  1.00  0.00     0.412 C 
ATOM     13  N   UNL     1     -19.932 -40.512  20.448  1.00  0.00    -0.324 N 
ATOM     14  O   UNL     1     -20.665 -39.392  22.315  1.00  0.00    -0.224 OA
ATOM     15  C   UNL     1     -19.816 -39.359  19.595  1.00  0.00     0.146 C 
ATOM     16  H   UNL     1     -19.616 -41.415  20.120  1.00  0.00     0.166 HD
ENDBRANCH  11  12
ENDBRANCH   9  11
ENDBRANCH   4   5
ENDBRANCH   1   4
BRANCH   1  17
ATOM     17  C   UNL     1     -14.215 -43.301  25.949  1.00  0.00     0.265 C 
BRANCH  17  18
ATOM     18  C   UNL     1     -14.562 -43.935  27.295  1.00  0.00     0.103 C 
BRANCH  18  19
ATOM     19  C   UNL     1     -13.514 -44.889  27.875  1.00  0.00     0.235 C 
BRANCH  19  20
ATOM     20  O   UNL     1     -12.184 -44.480  27.550  1.00  0.00    -0.493 OA
BRANCH  20  21
ATOM     21  C   UNL     1     -11.188 -44.776  28.439  1.00  0.00     0.123 A 
ATOM     22  C   UNL     1     -11.052 -46.138  28.738  1.00  0.00     0.047 A 
ATOM     23  C   UNL     1     -10.356 -43.855  29.069  1.00  0.00     0.094 A 
ATOM     24  C   UNL     1     -10.088 -46.582  29.651  1.00  0.00     0.016 A 
ATOM     25  C   UNL     1      -9.403 -44.312  29.981  1.00  0.00     0.142 A 
ATOM     26  C   UNL     1      -9.253 -45.663  30.282  1.00  0.00     0.018 A 
ATOM     27  O   UNL     1      -8.592 -43.339  30.599  1.00  0.00    -0.423 OA
ATOM     28  C   UNL     1      -8.232 -46.064  31.236  1.00  0.00     0.019 A 
ATOM     29  C   UNL     1      -7.617 -43.695  31.523  1.00  0.00     0.336 A 
ATOM     30  C   UNL     1      -7.468 -45.131  31.814  1.00  0.00     0.094 A 
ATOM     31  O   UNL     1      -6.913 -42.861  32.080  1.00  0.00    -0.246 OA
ENDBRANCH  20  21
ENDBRANCH  19  20
ENDBRANCH  18  19
ENDBRANCH  17  18
ENDBRANCH   1  17
TORSDOF 9
ENDMDL
MODEL 8
REMARK VINA RESULT:    -9.104      3.104      5.100
REMARK INTER + INTRA:         -15.390
REMARK INTER:                 -14.648
REMARK INTRA:                  -0.742
REMARK UNBOUND:                -1.496
REMARK SMILES CNC(=O)Oc1cccc(C[N@@H+](C)CCCOc2ccc3ccc(=O)oc3c2)c1
REMARK SMILES IDX 12 1 13 2 11 4 10 5 9 6 29 7 8 8 6 9 7 10 5 11 3 12 2 13
REMARK SMILES IDX 4 14 1 15 14 17 15 18 16 19 17 20 18 21 19 22 28 23 20 24
REMARK SMILES IDX 27 25 21 26 26 27 22 28 24 29 23 30 25 31
REMARK H PARENT 12 3 2 16
ROOT
ATOM      1  N   UNL     1     -14.311 -43.653  26.389  1.00  0.00    -0.334 N 
ATOM      2  C   UNL     1     -13.016 -42.910  26.227  1.00  0.00     0.333 C 
ATOM      3  H   UNL     1     -14.520 -44.129  25.497  1.00  0.00     0.348 HD
ENDROOT
BRANCH   1   4
ATOM      4  C   UNL     1     -15.483 -42.718  26.614  1.00  0.00     0.298 C 
BRANCH   4   5
ATOM      5  C   UNL     1     -16.414 -42.637  25.434  1.00  0.00     0.010 A 
ATOM      6  C   UNL     1     -15.908 -42.549  24.127  1.00  0.00     0.010 A 
ATOM      7  C   UNL     1     -17.803 -42.643  25.628  1.00  0.00     0.056 A 
ATOM      8  C   UNL     1     -16.775 -42.472  23.035  1.00  0.00     0.004 A 
ATOM      9  C   UNL     1     -18.660 -42.602  24.528  1.00  0.00     0.133 A 
ATOM     10  C   UNL     1     -18.154 -42.494  23.234  1.00  0.00     0.047 A 
BRANCH   9  11
ATOM     11  O   UNL     1     -20.060 -42.603  24.656  1.00  0.00    -0.410 OA
BRANCH  11  12
ATOM     12  C   UNL     1     -20.665 -43.587  25.430  1.00  0.00     0.412 C 
ATOM     13  N   UNL     1     -20.867 -44.702  24.667  1.00  0.00    -0.324 N 
ATOM     14  O   UNL     1     -20.982 -43.476  26.607  1.00  0.00    -0.224 OA
ATOM     15  C   UNL     1     -21.532 -45.875  25.170  1.00  0.00     0.146 C 
ATOM     16  H   UNL     1     -20.621 -44.643  23.689  1.00  0.00     0.166 HD
ENDBRANCH  11  12
ENDBRANCH   9  11
ENDBRANCH   4   5
ENDBRANCH   1   4
BRANCH   1  17
ATOM     17  C   UNL     1     -14.263 -44.728  27.447  1.00  0.00     0.265 C 
BRANCH  17  18
ATOM     18  C   UNL     1     -12.865 -44.935  28.030  1.00  0.00     0.103 C 
BRANCH  18  19
ATOM     19  C   UNL     1     -12.627 -46.272  28.738  1.00  0.00     0.235 C 
BRANCH  19  20
ATOM     20  O   UNL     1     -12.865 -46.182  30.143  1.00  0.00    -0.493 OA
BRANCH  20  21
ATOM     21  C   UNL     1     -12.000 -45.432  30.892  1.00  0.00     0.123 A 
ATOM     22  C   UNL     1     -10.669 -45.866  30.861  1.00  0.00     0.047 A 
ATOM     23  C   UNL     1     -12.341 -44.336  31.680  1.00  0.00     0.094 A 
ATOM     24  C   UNL     1      -9.679 -45.206  31.600  1.00  0.00     0.016 A 
ATOM     25  C   UNL     1     -11.345 -43.692  32.416  1.00  0.00     0.142 A 
ATOM     26  C   UNL     1     -10.017 -44.107  32.388  1.00  0.00     0.018 A 
ATOM     27  O   UNL     1     -11.743 -42.594  33.204  1.00  0.00    -0.423 OA
ATOM     28  C   UNL     1      -9.034 -43.382  33.175  1.00  0.00     0.019 A 
ATOM     29  C   UNL     1     -10.826 -41.890  33.975  1.00  0.00     0.336 A 
ATOM     30  C   UNL     1      -9.424 -42.340  33.917  1.00  0.00     0.094 A 
ATOM     31  O   UNL     1     -11.157 -40.942  34.676  1.00  0.00    -0.246 OA
ENDBRANCH  20  21
ENDBRANCH  19  20
ENDBRANCH  18  19
ENDBRANCH  17  18
ENDBRANCH   1  17
TORSDOF 9
ENDMDL
MODEL 9
REMARK VINA RESULT:    -9.004      3.981      9.806
REMARK INTER + INTRA:         -15.237
REMARK INTER:                 -14.307
REMARK INTRA:                  -0.931
REMARK UNBOUND:                -1.496
REMARK SMILES CNC(=O)Oc1cccc(C[N@@H+](C)CCCOc2ccc3ccc(=O)oc3c2)c1
REMARK SMILES IDX 12 1 13 2 11 4 10 5 9 6 29 7 8 8 6 9 7 10 5 11 3 12 2 13
REMARK SMILES IDX 4 14 1 15 14 17 15 18 16 19 17 20 18 21 19 22 28 23 20 24
REMARK SMILES IDX 27 25 21 26 26 27 22 28 24 29 23 30 25 31
REMARK H PARENT 12 3 2 16
ROOT
ATOM      1  N   UNL     1     -14.301 -43.581  25.759  1.00  0.00    -0.334 N 
ATOM      2  C   UNL     1     -14.540 -44.346  24.489  1.00  0.00     0.333 C 
ATOM      3  H   UNL     1     -13.334 -43.222  25.740  1.00  0.00     0.348 HD
ENDROOT
BRANCH   1   4
ATOM      4  C   UNL     1     -14.360 -44.472  26.985  1.00  0.00     0.298 C 
BRANCH   4   5
ATOM      5  C   UNL     1     -13.002 -44.859  27.503  1.00  0.00     0.010 A 
ATOM      6  C   UNL     1     -12.597 -46.204  27.520  1.00  0.00     0.010 A 
ATOM      7  C   UNL     1     -12.122 -43.877  27.982  1.00  0.00     0.056 A 
ATOM      8  C   UNL     1     -11.336 -46.559  28.004  1.00  0.00     0.004 A 
ATOM      9  C   UNL     1     -10.851 -44.240  28.429  1.00  0.00     0.133 A 
ATOM     10  C   UNL     1     -10.462 -45.577  28.464  1.00  0.00     0.047 A 
BRANCH   9  11
ATOM     11  O   UNL     1      -9.925 -43.304  28.923  1.00  0.00    -0.410 OA
BRANCH  11  12
ATOM     12  C   UNL     1      -9.426 -43.467  30.212  1.00  0.00     0.412 C 
ATOM     13  N   UNL     1     -10.448 -43.348  31.111  1.00  0.00    -0.324 N 
ATOM     14  O   UNL     1      -8.256 -43.671  30.504  1.00  0.00    -0.224 OA
ATOM     15  C   UNL     1     -10.240 -43.407  32.533  1.00  0.00     0.146 C 
ATOM     16  H   UNL     1     -11.360 -43.111  30.744  1.00  0.00     0.166 HD
ENDBRANCH  11  12
ENDBRANCH   9  11
ENDBRANCH   4   5
ENDBRANCH   1   4
BRANCH   1  17
ATOM     17  C   UNL     1     -15.200 -42.379  25.918  1.00  0.00     0.265 C 
BRANCH  17  18
ATOM     18  C   UNL     1     -16.368 -42.623  26.874  1.00  0.00     0.103 C 
BRANCH  18  19
ATOM     19  C   UNL     1     -17.768 -42.437  26.282  1.00  0.00     0.235 C 
BRANCH  19  20
ATOM     20  O   UNL     1     -17.832 -42.866  24.921  1.00  0.00    -0.493 OA
BRANCH  20  21
ATOM     21  C   UNL     1     -18.441 -42.039  24.017  1.00  0.00     0.123 A 
ATOM     22  C   UNL     1     -17.643 -41.674  22.925  1.00  0.00     0.047 A 
ATOM     23  C   UNL     1     -19.732 -41.528  24.119  1.00  0.00     0.094 A 
ATOM     24  C   UNL     1     -18.130 -40.812  21.934  1.00  0.00     0.016 A 
ATOM     25  C   UNL     1     -20.201 -40.666  23.126  1.00  0.00     0.142 A 
ATOM     26  C   UNL     1     -19.422 -40.300  22.032  1.00  0.00     0.018 A 
ATOM     27  O   UNL     1     -21.511 -40.169  23.280  1.00  0.00    -0.423 OA
ATOM     28  C   UNL     1     -19.983 -39.405  21.035  1.00  0.00     0.019 A 
ATOM     29  C   UNL     1     -22.067 -39.302  22.347  1.00  0.00     0.336 A 
ATOM     30  C   UNL     1     -21.228 -38.942  21.191  1.00  0.00     0.094 A 
ATOM     31  O   UNL     1     -23.198 -38.850  22.472  1.00  0.00    -0.246 OA
ENDBRANCH  20  21
ENDBRANCH  19  20
ENDBRANCH  18  19
ENDBRANCH  17  18
ENDBRANCH   1  17
TORSDOF 9
ENDMDL
