MODEL 1
REMARK VINA RESULT:   -11.298      0.000      0.000
REMARK INTER + INTRA:         -15.276
REMARK INTER:                 -14.601
REMARK INTRA:                  -0.676
REMARK UNBOUND:                -0.676
REMARK SMILES COc1ccc(NC(=O)C2CCN(C(=O)c3ccccc3)CC2)cc1OC
REMARK SMILES IDX 3 1 4 2 5 3 6 4 24 5 25 6 2 7 1 8 26 9 27 10 7 11 8 12 9 14
REMARK SMILES IDX 10 15 11 16 23 17 12 18 22 19 13 20 14 21 15 22 16 23 17 24
REMARK SMILES IDX 21 25 18 26 20 27 19 28
REMARK H PARENT 7 13
ROOT
ATOM      1  C   UNL     1     -17.892 -42.023  23.616  1.00  0.00     0.160 A 
ATOM      2  C   UNL     1     -16.775 -42.600  23.001  1.00  0.00     0.052 A 
ATOM      3  C   UNL     1     -15.778 -43.234  23.755  1.00  0.00     0.030 A 
ATOM      4  C   UNL     1     -15.872 -43.296  25.142  1.00  0.00     0.045 A 
ATOM      5  C   UNL     1     -16.990 -42.727  25.761  1.00  0.00     0.076 A 
ATOM      6  C   UNL     1     -18.006 -42.115  25.012  1.00  0.00     0.162 A 
ENDROOT
BRANCH   1   7
ATOM      7  O   UNL     1     -18.872 -41.351  22.936  1.00  0.00    -0.493 OA
ATOM      8  C   UNL     1     -18.481 -40.532  21.842  1.00  0.00     0.278 C 
ENDBRANCH   1   7
BRANCH   6   9
ATOM      9  O   UNL     1     -19.020 -41.608  25.787  1.00  0.00    -0.493 OA
ATOM     10  C   UNL     1     -19.137 -42.153  27.097  1.00  0.00     0.278 C 
ENDBRANCH   6   9
BRANCH   4  11
ATOM     11  N   UNL     1     -14.909 -43.898  25.979  1.00  0.00    -0.326 N 
ATOM     12  C   UNL     1     -13.870 -43.280  26.650  1.00  0.00     0.227 C 
ATOM     13  H   UNL     1     -15.000 -44.900  26.091  1.00  0.00     0.169 HD
ATOM     14  O   UNL     1     -13.605 -42.082  26.627  1.00  0.00    -0.274 OA
BRANCH  12  15
ATOM     15  C   UNL     1     -13.012 -44.225  27.488  1.00  0.00     0.082 C 
ATOM     16  C   UNL     1     -11.746 -43.534  28.007  1.00  0.00     0.035 C 
ATOM     17  C   UNL     1     -13.798 -44.848  28.646  1.00  0.00     0.035 C 
ATOM     18  C   UNL     1     -10.900 -44.502  28.823  1.00  0.00     0.120 C 
ATOM     19  C   UNL     1     -12.915 -45.786  29.460  1.00  0.00     0.120 C 
ATOM     20  N   UNL     1     -11.683 -45.127  29.893  1.00  0.00    -0.339 N 
ATOM     21  C   UNL     1     -11.065 -45.665  31.032  1.00  0.00     0.253 C 
ATOM     22  O   UNL     1     -11.503 -46.636  31.646  1.00  0.00    -0.269 OA
BRANCH  21  23
ATOM     23  C   UNL     1      -9.838 -45.019  31.552  1.00  0.00     0.040 A 
ATOM     24  C   UNL     1      -8.605 -45.649  31.353  1.00  0.00     0.014 A 
ATOM     25  C   UNL     1      -9.915 -43.833  32.292  1.00  0.00     0.014 A 
ATOM     26  C   UNL     1      -7.442 -45.067  31.859  1.00  0.00     0.001 A 
ATOM     27  C   UNL     1      -8.748 -43.256  32.795  1.00  0.00     0.001 A 
ATOM     28  C   UNL     1      -7.514 -43.871  32.575  1.00  0.00     0.000 A 
ENDBRANCH  21  23
ENDBRANCH  12  15
ENDBRANCH   4  11
TORSDOF 5
ENDMDL
MODEL 2
REMARK VINA RESULT:    -9.967      2.169     10.579
REMARK INTER + INTRA:         -13.557
REMARK INTER:                 -13.829
REMARK INTRA:                   0.272
REMARK UNBOUND:                -0.676
REMARK SMILES COc1ccc(NC(=O)C2CCN(C(=O)c3ccccc3)CC2)cc1OC
REMARK SMILES IDX 3 1 4 2 5 3 6 4 24 5 25 6 2 7 1 8 26 9 27 10 7 11 8 12 9 14
REMARK SMILES IDX 10 15 11 16 23 17 12 18 22 19 13 20 14 21 15 22 16 23 17 24
REMARK SMILES IDX 21 25 18 26 20 27 19 28
REMARK H PARENT 7 13
ROOT
ATOM      1  C   UNL     1     -11.102 -45.179  29.260  1.00  0.00     0.160 A 
ATOM      2  C   UNL     1     -12.033 -46.126  28.821  1.00  0.00     0.052 A 
ATOM      3  C   UNL     1     -12.965 -45.818  27.820  1.00  0.00     0.030 A 
ATOM      4  C   UNL     1     -12.991 -44.552  27.244  1.00  0.00     0.045 A 
ATOM      5  C   UNL     1     -12.058 -43.604  27.674  1.00  0.00     0.076 A 
ATOM      6  C   UNL     1     -11.104 -43.912  28.656  1.00  0.00     0.162 A 
ENDROOT
BRANCH   1   7
ATOM      7  O   UNL     1     -10.200 -45.407  30.265  1.00  0.00    -0.493 OA
ATOM      8  C   UNL     1     -10.629 -46.177  31.381  1.00  0.00     0.278 C 
ENDBRANCH   1   7
BRANCH   6   9
ATOM      9  O   UNL     1     -10.276 -42.858  28.957  1.00  0.00    -0.493 OA
ATOM     10  C   UNL     1      -9.101 -42.741  28.162  1.00  0.00     0.278 C 
ENDBRANCH   6   9
BRANCH   4  11
ATOM     11  N   UNL     1     -13.903 -44.151  26.245  1.00  0.00    -0.326 N 
ATOM     12  C   UNL     1     -15.031 -43.365  26.399  1.00  0.00     0.227 C 
ATOM     13  H   UNL     1     -13.697 -44.486  25.313  1.00  0.00     0.169 HD
ATOM     14  O   UNL     1     -15.436 -42.878  27.450  1.00  0.00    -0.274 OA
BRANCH  12  15
ATOM     15  C   UNL     1     -15.798 -43.106  25.104  1.00  0.00     0.082 C 
ATOM     16  C   UNL     1     -17.270 -42.775  25.373  1.00  0.00     0.035 C 
ATOM     17  C   UNL     1     -15.147 -42.011  24.254  1.00  0.00     0.035 C 
ATOM     18  C   UNL     1     -18.016 -42.539  24.066  1.00  0.00     0.120 C 
ATOM     19  C   UNL     1     -15.934 -41.778  22.970  1.00  0.00     0.120 C 
ATOM     20  N   UNL     1     -17.349 -41.526  23.243  1.00  0.00    -0.339 N 
ATOM     21  C   UNL     1     -18.046 -40.807  22.261  1.00  0.00     0.253 C 
ATOM     22  O   UNL     1     -17.530 -40.407  21.220  1.00  0.00    -0.269 OA
BRANCH  21  23
ATOM     23  C   UNL     1     -19.471 -40.478  22.493  1.00  0.00     0.040 A 
ATOM     24  C   UNL     1     -20.137 -39.665  21.569  1.00  0.00     0.014 A 
ATOM     25  C   UNL     1     -20.124 -40.912  23.652  1.00  0.00     0.014 A 
ATOM     26  C   UNL     1     -21.473 -39.324  21.786  1.00  0.00     0.001 A 
ATOM     27  C   UNL     1     -21.460 -40.568  23.863  1.00  0.00     0.001 A 
ATOM     28  C   UNL     1     -22.134 -39.779  22.929  1.00  0.00     0.000 A 
ENDBRANCH  21  23
ENDBRANCH  12  15
ENDBRANCH   4  11
TORSDOF 5
ENDMDL
MODEL 3
REMARK VINA RESULT:    -9.956      2.007     10.240
REMARK INTER + INTRA:         -13.542
REMARK INTER:                 -13.713
REMARK INTRA:                   0.172
REMARK UNBOUND:                -0.676
REMARK SMILES COc1ccc(NC(=O)C2CCN(C(=O)c3ccccc3)CC2)cc1OC
REMARK SMILES IDX 3 1 4 2 5 3 6 4 24 5 25 6 2 7 1 8 26 9 27 10 7 11 8 12 9 14
REMARK SMILES IDX 10 15 11 16 23 17 12 18 22 19 13 20 14 21 15 22 16 23 17 24
REMARK SMILES IDX 21 25 18 26 20 27 19 28
REMARK H PARENT 7 13
ROOT
ATOM      1  C   UNL     1     -11.833 -46.074  30.086  1.00  0.00     0.160 A 
ATOM      2  C   UNL     1     -11.404 -46.275  28.770  1.00  0.00     0.052 A 
ATOM      3  C   UNL     1     -12.164 -45.825  27.682  1.00  0.00     0.030 A 
ATOM      4  C   UNL     1     -13.375 -45.170  27.888  1.00  0.00     0.045 A 
ATOM      5  C   UNL     1     -13.805 -44.961  29.202  1.00  0.00     0.076 A 
ATOM      6  C   UNL     1     -13.037 -45.384  30.297  1.00  0.00     0.162 A 
ENDROOT
BRANCH   1   7
ATOM      7  O   UNL     1     -11.157 -46.533  31.185  1.00  0.00    -0.493 OA
ATOM      8  C   UNL     1      -9.800 -46.139  31.343  1.00  0.00     0.278 C 
ENDBRANCH   1   7
BRANCH   6   9
ATOM      9  O   UNL     1     -13.618 -45.099  31.508  1.00  0.00    -0.493 OA
ATOM     10  C   UNL     1     -13.351 -43.806  32.040  1.00  0.00     0.278 C 
ENDBRANCH   6   9
BRANCH   4  11
ATOM     11  N   UNL     1     -14.211 -44.699  26.853  1.00  0.00    -0.326 N 
ATOM     12  C   UNL     1     -14.361 -43.396  26.418  1.00  0.00     0.227 C 
ATOM     13  H   UNL     1     -14.760 -45.409  26.385  1.00  0.00     0.169 HD
ATOM     14  O   UNL     1     -13.784 -42.411  26.869  1.00  0.00    -0.274 OA
BRANCH  12  15
ATOM     15  C   UNL     1     -15.343 -43.228  25.260  1.00  0.00     0.082 C 
ATOM     16  C   UNL     1     -16.775 -43.005  25.758  1.00  0.00     0.035 C 
ATOM     17  C   UNL     1     -14.925 -42.109  24.303  1.00  0.00     0.035 C 
ATOM     18  C   UNL     1     -17.737 -42.860  24.585  1.00  0.00     0.120 C 
ATOM     19  C   UNL     1     -15.923 -41.969  23.160  1.00  0.00     0.120 C 
ATOM     20  N   UNL     1     -17.292 -41.819  23.653  1.00  0.00    -0.339 N 
ATOM     21  C   UNL     1     -18.191 -41.180  22.788  1.00  0.00     0.253 C 
ATOM     22  O   UNL     1     -17.881 -40.768  21.672  1.00  0.00    -0.269 OA
BRANCH  21  23
ATOM     23  C   UNL     1     -19.583 -40.955  23.241  1.00  0.00     0.040 A 
ATOM     24  C   UNL     1     -20.499 -40.378  22.356  1.00  0.00     0.014 A 
ATOM     25  C   UNL     1     -19.960 -41.249  24.557  1.00  0.00     0.014 A 
ATOM     26  C   UNL     1     -21.808 -40.136  22.776  1.00  0.00     0.001 A 
ATOM     27  C   UNL     1     -21.271 -41.004  24.971  1.00  0.00     0.001 A 
ATOM     28  C   UNL     1     -22.193 -40.453  24.080  1.00  0.00     0.000 A 
ENDBRANCH  21  23
ENDBRANCH  12  15
ENDBRANCH   4  11
TORSDOF 5
ENDMDL
MODEL 4
REMARK VINA RESULT:    -9.304      2.379     10.829
REMARK INTER + INTRA:         -12.700
REMARK INTER:                 -12.175
REMARK INTRA:                  -0.525
REMARK UNBOUND:                -0.676
REMARK SMILES COc1ccc(NC(=O)C2CCN(C(=O)c3ccccc3)CC2)cc1OC
REMARK SMILES IDX 3 1 4 2 5 3 6 4 24 5 25 6 2 7 1 8 26 9 27 10 7 11 8 12 9 14
REMARK SMILES IDX 10 15 11 16 23 17 12 18 22 19 13 20 14 21 15 22 16 23 17 24
REMARK SMILES IDX 21 25 18 26 20 27 19 28
REMARK H PARENT 7 13
ROOT
ATOM      1  C   UNL     1     -11.330 -45.420  28.366  1.00  0.00     0.160 A 
ATOM      2  C   UNL     1     -12.374 -46.158  27.798  1.00  0.00     0.052 A 
ATOM      3  C   UNL     1     -13.442 -45.524  27.149  1.00  0.00     0.030 A 
ATOM      4  C   UNL     1     -13.492 -44.136  27.061  1.00  0.00     0.045 A 
ATOM      5  C   UNL     1     -12.447 -43.394  27.620  1.00  0.00     0.076 A 
ATOM      6  C   UNL     1     -11.361 -44.021  28.248  1.00  0.00     0.162 A 
ENDROOT
BRANCH   1   7
ATOM      7  O   UNL     1     -10.286 -45.981  29.052  1.00  0.00    -0.493 OA
ATOM      8  C   UNL     1     -10.437 -46.171  30.453  1.00  0.00     0.278 C 
ENDBRANCH   1   7
BRANCH   6   9
ATOM      9  O   UNL     1     -10.436 -43.135  28.743  1.00  0.00    -0.493 OA
ATOM     10  C   UNL     1      -9.357 -42.809  27.873  1.00  0.00     0.278 C 
ENDBRANCH   6   9
BRANCH   4  11
ATOM     11  N   UNL     1     -14.536 -43.415  26.441  1.00  0.00    -0.326 N 
ATOM     12  C   UNL     1     -15.019 -43.569  25.155  1.00  0.00     0.227 C 
ATOM     13  H   UNL     1     -14.970 -42.706  27.017  1.00  0.00     0.169 HD
ATOM     14  O   UNL     1     -14.612 -44.371  24.320  1.00  0.00    -0.274 OA
BRANCH  12  15
ATOM     15  C   UNL     1     -16.172 -42.633  24.801  1.00  0.00     0.082 C 
ATOM     16  C   UNL     1     -16.560 -42.744  23.322  1.00  0.00     0.035 C 
ATOM     17  C   UNL     1     -17.394 -42.854  25.697  1.00  0.00     0.035 C 
ATOM     18  C   UNL     1     -17.699 -41.787  22.991  1.00  0.00     0.120 C 
ATOM     19  C   UNL     1     -18.525 -41.904  25.319  1.00  0.00     0.120 C 
ATOM     20  N   UNL     1     -18.839 -41.979  23.893  1.00  0.00    -0.339 N 
ATOM     21  C   UNL     1     -20.134 -41.585  23.526  1.00  0.00     0.253 C 
ATOM     22  O   UNL     1     -20.974 -41.187  24.331  1.00  0.00    -0.269 OA
BRANCH  21  23
ATOM     23  C   UNL     1     -20.535 -41.678  22.104  1.00  0.00     0.040 A 
ATOM     24  C   UNL     1     -20.534 -40.517  21.323  1.00  0.00     0.014 A 
ATOM     25  C   UNL     1     -20.975 -42.892  21.565  1.00  0.00     0.014 A 
ATOM     26  C   UNL     1     -20.933 -40.583  19.987  1.00  0.00     0.001 A 
ATOM     27  C   UNL     1     -21.373 -42.951  20.228  1.00  0.00     0.001 A 
ATOM     28  C   UNL     1     -21.348 -41.799  19.441  1.00  0.00     0.000 A 
ENDBRANCH  21  23
ENDBRANCH  12  15
ENDBRANCH   4  11
TORSDOF 5
ENDMDL
MODEL 5
REMARK VINA RESULT:    -8.920      3.992      7.119
REMARK INTER + INTRA:         -12.203
REMARK INTER:                 -11.456
REMARK INTRA:                  -0.747
REMARK UNBOUND:                -0.676
REMARK SMILES COc1ccc(NC(=O)C2CCN(C(=O)c3ccccc3)CC2)cc1OC
REMARK SMILES IDX 3 1 4 2 5 3 6 4 24 5 25 6 2 7 1 8 26 9 27 10 7 11 8 12 9 14
REMARK SMILES IDX 10 15 11 16 23 17 12 18 22 19 13 20 14 21 15 22 16 23 17 24
REMARK SMILES IDX 21 25 18 26 20 27 19 28
REMARK H PARENT 7 13
ROOT
ATOM      1  C   UNL     1     -24.442 -45.017  27.567  1.00  0.00     0.160 A 
ATOM      2  C   UNL     1     -23.461 -45.134  28.558  1.00  0.00     0.052 A 
ATOM      3  C   UNL     1     -22.157 -44.666  28.348  1.00  0.00     0.030 A 
ATOM      4  C   UNL     1     -21.803 -44.077  27.137  1.00  0.00     0.045 A 
ATOM      5  C   UNL     1     -22.782 -43.950  26.146  1.00  0.00     0.076 A 
ATOM      6  C   UNL     1     -24.096 -44.392  26.358  1.00  0.00     0.162 A 
ENDROOT
BRANCH   1   7
ATOM      7  O   UNL     1     -25.717 -45.497  27.697  1.00  0.00    -0.493 OA
ATOM      8  C   UNL     1     -25.927 -46.890  27.502  1.00  0.00     0.278 C 
ENDBRANCH   1   7
BRANCH   6   9
ATOM      9  O   UNL     1     -24.916 -44.192  25.274  1.00  0.00    -0.493 OA
ATOM     10  C   UNL     1     -24.882 -45.202  24.272  1.00  0.00     0.278 C 
ENDBRANCH   6   9
BRANCH   4  11
ATOM     11  N   UNL     1     -20.512 -43.594  26.834  1.00  0.00    -0.326 N 
ATOM     12  C   UNL     1     -20.058 -42.291  26.919  1.00  0.00     0.227 C 
ATOM     13  H   UNL     1     -19.854 -44.294  26.518  1.00  0.00     0.169 HD
ATOM     14  O   UNL     1     -20.714 -41.317  27.275  1.00  0.00    -0.274 OA
BRANCH  12  15
ATOM     15  C   UNL     1     -18.593 -42.109  26.528  1.00  0.00     0.082 C 
ATOM     16  C   UNL     1     -17.647 -42.674  27.593  1.00  0.00     0.035 C 
ATOM     17  C   UNL     1     -18.281 -42.713  25.156  1.00  0.00     0.035 C 
ATOM     18  C   UNL     1     -16.193 -42.464  27.188  1.00  0.00     0.120 C 
ATOM     19  C   UNL     1     -16.813 -42.514  24.795  1.00  0.00     0.120 C 
ATOM     20  N   UNL     1     -15.927 -43.002  25.851  1.00  0.00    -0.339 N 
ATOM     21  C   UNL     1     -14.630 -43.355  25.450  1.00  0.00     0.253 C 
ATOM     22  O   UNL     1     -14.229 -43.263  24.292  1.00  0.00    -0.269 OA
BRANCH  21  23
ATOM     23  C   UNL     1     -13.693 -43.899  26.460  1.00  0.00     0.040 A 
ATOM     24  C   UNL     1     -12.663 -43.083  26.938  1.00  0.00     0.014 A 
ATOM     25  C   UNL     1     -13.790 -45.232  26.878  1.00  0.00     0.014 A 
ATOM     26  C   UNL     1     -11.756 -43.588  27.871  1.00  0.00     0.001 A 
ATOM     27  C   UNL     1     -12.880 -45.731  27.811  1.00  0.00     0.001 A 
ATOM     28  C   UNL     1     -11.868 -44.909  28.309  1.00  0.00     0.000 A 
ENDBRANCH  21  23
ENDBRANCH  12  15
ENDBRANCH   4  11
TORSDOF 5
ENDMDL
MODEL 6
REMARK VINA RESULT:    -8.883      4.034      7.056
REMARK INTER + INTRA:         -12.156
REMARK INTER:                 -11.556
REMARK INTRA:                  -0.600
REMARK UNBOUND:                -0.676
REMARK SMILES COc1ccc(NC(=O)C2CCN(C(=O)c3ccccc3)CC2)cc1OC
REMARK SMILES IDX 3 1 4 2 5 3 6 4 24 5 25 6 2 7 1 8 26 9 27 10 7 11 8 12 9 14
REMARK SMILES IDX 10 15 11 16 23 17 12 18 22 19 13 20 14 21 15 22 16 23 17 24
REMARK SMILES IDX 21 25 18 26 20 27 19 28
REMARK H PARENT 7 13
ROOT
ATOM      1  C   UNL     1     -25.073 -40.803  26.654  1.00  0.00     0.160 A 
ATOM      2  C   UNL     1     -24.594 -41.866  25.880  1.00  0.00     0.052 A 
ATOM      3  C   UNL     1     -23.220 -42.066  25.693  1.00  0.00     0.030 A 
ATOM      4  C   UNL     1     -22.294 -41.202  26.271  1.00  0.00     0.045 A 
ATOM      5  C   UNL     1     -22.768 -40.143  27.051  1.00  0.00     0.076 A 
ATOM      6  C   UNL     1     -24.141 -39.951  27.265  1.00  0.00     0.162 A 
ENDROOT
BRANCH   1   7
ATOM      7  O   UNL     1     -26.403 -40.531  26.832  1.00  0.00    -0.493 OA
ATOM      8  C   UNL     1     -27.316 -41.620  26.795  1.00  0.00     0.278 C 
ENDBRANCH   1   7
BRANCH   6   9
ATOM      9  O   UNL     1     -24.419 -38.859  28.051  1.00  0.00    -0.493 OA
ATOM     10  C   UNL     1     -24.448 -37.602  27.384  1.00  0.00     0.278 C 
ENDBRANCH   6   9
BRANCH   4  11
ATOM     11  N   UNL     1     -20.896 -41.318  26.122  1.00  0.00    -0.326 N 
ATOM     12  C   UNL     1     -20.033 -42.113  26.854  1.00  0.00     0.227 C 
ATOM     13  H   UNL     1     -20.491 -40.747  25.392  1.00  0.00     0.169 HD
ATOM     14  O   UNL     1     -20.344 -42.861  27.775  1.00  0.00    -0.274 OA
BRANCH  12  15
ATOM     15  C   UNL     1     -18.571 -42.014  26.425  1.00  0.00     0.082 C 
ATOM     16  C   UNL     1     -17.625 -42.553  27.504  1.00  0.00     0.035 C 
ATOM     17  C   UNL     1     -18.312 -42.709  25.086  1.00  0.00     0.035 C 
ATOM     18  C   UNL     1     -16.173 -42.426  27.060  1.00  0.00     0.120 C 
ATOM     19  C   UNL     1     -16.846 -42.591  24.686  1.00  0.00     0.120 C 
ATOM     20  N   UNL     1     -15.957 -43.052  25.752  1.00  0.00    -0.339 N 
ATOM     21  C   UNL     1     -14.683 -43.480  25.349  1.00  0.00     0.253 C 
ATOM     22  O   UNL     1     -14.304 -43.473  24.180  1.00  0.00    -0.269 OA
BRANCH  21  23
ATOM     23  C   UNL     1     -13.747 -44.001  26.371  1.00  0.00     0.040 A 
ATOM     24  C   UNL     1     -12.795 -43.137  26.920  1.00  0.00     0.014 A 
ATOM     25  C   UNL     1     -13.766 -45.354  26.733  1.00  0.00     0.014 A 
ATOM     26  C   UNL     1     -11.888 -43.618  27.866  1.00  0.00     0.001 A 
ATOM     27  C   UNL     1     -12.857 -45.829  27.679  1.00  0.00     0.001 A 
ATOM     28  C   UNL     1     -11.923 -44.961  28.247  1.00  0.00     0.000 A 
ENDBRANCH  21  23
ENDBRANCH  12  15
ENDBRANCH   4  11
TORSDOF 5
ENDMDL
