MODEL 1
REMARK VINA RESULT:   -11.722      0.000      0.000
REMARK INTER + INTRA:         -15.128
REMARK INTER:                 -15.149
REMARK INTRA:                   0.020
REMARK UNBOUND:                 0.020
REMARK SMILES O=C(NCCNc1c2c(nc3ccccc13)CCCC2)c1ccc(F)cc1
REMARK SMILES IDX 4 1 5 2 6 3 7 5 8 6 16 7 9 8 20 9 15 10 11 11 10 12 17 13
REMARK SMILES IDX 19 14 14 15 12 16 18 17 13 18 3 19 2 20 1 22 21 23 22 24
REMARK SMILES IDX 27 25 23 26 26 27 24 28 25 29
REMARK H PARENT 6 4 3 21
ROOT
ATOM      1  C   UNL     1     -12.701 -45.632  28.667  1.00  0.00     0.137 C 
ENDROOT
BRANCH   1   2
ATOM      2  C   UNL     1     -13.284 -46.122  30.002  1.00  0.00     0.134 C 
BRANCH   2   3
ATOM      3  N   UNL     1     -12.189 -46.476  30.925  1.00  0.00    -0.382 N 
ATOM      4  H   UNL     1     -12.562 -47.014  31.706  1.00  0.00     0.160 HD
BRANCH   3   5
ATOM      5  C   UNL     1     -11.548 -45.304  31.427  1.00  0.00     0.049 A 
ATOM      6  C   UNL     1     -10.161 -45.127  31.307  1.00  0.00    -0.003 A 
ATOM      7  C   UNL     1     -12.307 -44.345  32.153  1.00  0.00     0.024 A 
ATOM      8  C   UNL     1      -9.600 -43.982  31.879  1.00  0.00     0.046 A 
ATOM      9  C   UNL     1      -9.226 -46.048  30.566  1.00  0.00     0.039 C 
ATOM     10  C   UNL     1     -13.708 -44.437  32.333  1.00  0.00     0.012 A 
ATOM     11  C   UNL     1     -11.625 -43.238  32.701  1.00  0.00     0.073 A 
ATOM     12  N   UNL     1     -10.304 -43.057  32.565  1.00  0.00    -0.252 NA
ATOM     13  C   UNL     1      -8.122 -43.746  31.708  1.00  0.00     0.056 C 
ATOM     14  C   UNL     1      -7.930 -46.280  31.347  1.00  0.00     0.005 C 
ATOM     15  C   UNL     1     -14.413 -43.471  33.051  1.00  0.00     0.001 A 
ATOM     16  C   UNL     1     -12.348 -42.289  33.412  1.00  0.00     0.029 A 
ATOM     17  C   UNL     1      -7.335 -45.022  31.993  1.00  0.00     0.007 C 
ATOM     18  C   UNL     1     -13.730 -42.394  33.594  1.00  0.00     0.002 A 
ENDBRANCH   3   5
ENDBRANCH   2   3
ENDBRANCH   1   2
BRANCH   1  19
ATOM     19  N   UNL     1     -13.715 -45.160  27.740  1.00  0.00    -0.350 N 
ATOM     20  C   UNL     1     -13.595 -43.928  27.132  1.00  0.00     0.251 C 
ATOM     21  H   UNL     1     -14.369 -45.837  27.373  1.00  0.00     0.163 HD
ATOM     22  O   UNL     1     -12.663 -43.162  27.348  1.00  0.00    -0.269 OA
BRANCH  20  23
ATOM     23  C   UNL     1     -14.647 -43.569  26.140  1.00  0.00     0.040 A 
ATOM     24  C   UNL     1     -15.799 -42.915  26.601  1.00  0.00     0.017 A 
ATOM     25  C   UNL     1     -14.526 -43.889  24.779  1.00  0.00     0.017 A 
ATOM     26  C   UNL     1     -16.811 -42.562  25.707  1.00  0.00     0.040 A 
ATOM     27  C   UNL     1     -15.542 -43.534  23.888  1.00  0.00     0.040 A 
ATOM     28  C   UNL     1     -16.672 -42.872  24.359  1.00  0.00     0.123 A 
ATOM     29  F   UNL     1     -17.643 -42.535  23.501  1.00  0.00    -0.207 F 
ENDBRANCH  20  23
ENDBRANCH   1  19
TORSDOF 5
ENDMDL
MODEL 2
REMARK VINA RESULT:   -11.557      1.667      4.047
REMARK INTER + INTRA:         -14.915
REMARK INTER:                 -14.346
REMARK INTRA:                  -0.569
REMARK UNBOUND:                 0.020
REMARK SMILES O=C(NCCNc1c2c(nc3ccccc13)CCCC2)c1ccc(F)cc1
REMARK SMILES IDX 4 1 5 2 6 3 7 5 8 6 16 7 9 8 20 9 15 10 11 11 10 12 17 13
REMARK SMILES IDX 19 14 14 15 12 16 18 17 13 18 3 19 2 20 1 22 21 23 22 24
REMARK SMILES IDX 27 25 23 26 26 27 24 28 25 29
REMARK H PARENT 6 4 3 21
ROOT
ATOM      1  C   UNL     1     -13.265 -46.229  30.134  1.00  0.00     0.137 C 
ENDROOT
BRANCH   1   2
ATOM      2  C   UNL     1     -12.216 -45.509  30.996  1.00  0.00     0.134 C 
BRANCH   2   3
ATOM      3  N   UNL     1     -12.327 -44.050  30.802  1.00  0.00    -0.382 N 
ATOM      4  H   UNL     1     -11.558 -43.724  30.218  1.00  0.00     0.160 HD
BRANCH   3   5
ATOM      5  C   UNL     1     -12.288 -43.366  32.054  1.00  0.00     0.049 A 
ATOM      6  C   UNL     1     -13.461 -42.876  32.650  1.00  0.00    -0.003 A 
ATOM      7  C   UNL     1     -11.034 -43.081  32.659  1.00  0.00     0.024 A 
ATOM      8  C   UNL     1     -13.333 -42.163  33.845  1.00  0.00     0.046 A 
ATOM      9  C   UNL     1     -14.859 -43.100  32.135  1.00  0.00     0.039 C 
ATOM     10  C   UNL     1      -9.797 -43.526  32.133  1.00  0.00     0.012 A 
ATOM     11  C   UNL     1     -11.031 -42.335  33.857  1.00  0.00     0.073 A 
ATOM     12  N   UNL     1     -12.153 -41.889  34.440  1.00  0.00    -0.252 NA
ATOM     13  C   UNL     1     -14.586 -41.682  34.531  1.00  0.00     0.056 C 
ATOM     14  C   UNL     1     -15.701 -41.823  32.222  1.00  0.00     0.005 C 
ATOM     15  C   UNL     1      -8.590 -43.225  32.763  1.00  0.00     0.001 A 
ATOM     16  C   UNL     1      -9.816 -42.048  34.466  1.00  0.00     0.029 A 
ATOM     17  C   UNL     1     -15.535 -41.033  33.527  1.00  0.00     0.007 C 
ATOM     18  C   UNL     1      -8.599 -42.481  33.933  1.00  0.00     0.002 A 
ENDBRANCH   3   5
ENDBRANCH   2   3
ENDBRANCH   1   2
BRANCH   1  19
ATOM     19  N   UNL     1     -13.875 -45.366  29.138  1.00  0.00    -0.350 N 
ATOM     20  C   UNL     1     -13.448 -45.392  27.826  1.00  0.00     0.251 C 
ATOM     21  H   UNL     1     -14.759 -44.933  29.368  1.00  0.00     0.163 HD
ATOM     22  O   UNL     1     -12.535 -46.107  27.434  1.00  0.00    -0.269 OA
BRANCH  20  23
ATOM     23  C   UNL     1     -14.190 -44.526  26.868  1.00  0.00     0.040 A 
ATOM     24  C   UNL     1     -14.972 -43.482  27.384  1.00  0.00     0.017 A 
ATOM     25  C   UNL     1     -14.145 -44.742  25.482  1.00  0.00     0.017 A 
ATOM     26  C   UNL     1     -15.684 -42.647  26.522  1.00  0.00     0.040 A 
ATOM     27  C   UNL     1     -14.861 -43.904  24.624  1.00  0.00     0.040 A 
ATOM     28  C   UNL     1     -15.620 -42.863  25.150  1.00  0.00     0.123 A 
ATOM     29  F   UNL     1     -16.304 -42.064  24.323  1.00  0.00    -0.207 F 
ENDBRANCH  20  23
ENDBRANCH   1  19
TORSDOF 5
ENDMDL
MODEL 3
REMARK VINA RESULT:   -11.415      2.314      3.603
REMARK INTER + INTRA:         -14.731
REMARK INTER:                 -13.874
REMARK INTRA:                  -0.857
REMARK UNBOUND:                 0.020
REMARK SMILES O=C(NCCNc1c2c(nc3ccccc13)CCCC2)c1ccc(F)cc1
REMARK SMILES IDX 4 1 5 2 6 3 7 5 8 6 16 7 9 8 20 9 15 10 11 11 10 12 17 13
REMARK SMILES IDX 19 14 14 15 12 16 18 17 13 18 3 19 2 20 1 22 21 23 22 24
REMARK SMILES IDX 27 25 23 26 26 27 24 28 25 29
REMARK H PARENT 6 4 3 21
ROOT
ATOM      1  C   UNL     1     -13.991 -45.001  30.230  1.00  0.00     0.137 C 
ENDROOT
BRANCH   1   2
ATOM      2  C   UNL     1     -12.541 -44.816  30.704  1.00  0.00     0.134 C 
BRANCH   2   3
ATOM      3  N   UNL     1     -12.139 -43.405  30.543  1.00  0.00    -0.382 N 
ATOM      4  H   UNL     1     -12.594 -43.013  29.719  1.00  0.00     0.160 HD
BRANCH   3   5
ATOM      5  C   UNL     1     -10.725 -43.292  30.397  1.00  0.00     0.049 A 
ATOM      6  C   UNL     1      -9.868 -43.424  31.501  1.00  0.00    -0.003 A 
ATOM      7  C   UNL     1     -10.176 -42.938  29.133  1.00  0.00     0.024 A 
ATOM      8  C   UNL     1      -8.500 -43.238  31.287  1.00  0.00     0.046 A 
ATOM      9  C   UNL     1     -10.296 -43.800  32.896  1.00  0.00     0.039 C 
ATOM     10  C   UNL     1     -10.956 -42.777  27.964  1.00  0.00     0.012 A 
ATOM     11  C   UNL     1      -8.779 -42.759  29.045  1.00  0.00     0.073 A 
ATOM     12  N   UNL     1      -7.958 -42.910  30.095  1.00  0.00    -0.252 NA
ATOM     13  C   UNL     1      -7.559 -43.435  32.447  1.00  0.00     0.056 C 
ATOM     14  C   UNL     1      -9.583 -42.949  33.951  1.00  0.00     0.005 C 
ATOM     15  C   UNL     1     -10.374 -42.432  26.745  1.00  0.00     0.001 A 
ATOM     16  C   UNL     1      -8.223 -42.415  27.821  1.00  0.00     0.029 A 
ATOM     17  C   UNL     1      -8.086 -42.729  33.694  1.00  0.00     0.007 C 
ATOM     18  C   UNL     1      -9.002 -42.248  26.673  1.00  0.00     0.002 A 
ENDBRANCH   3   5
ENDBRANCH   2   3
ENDBRANCH   1   2
BRANCH   1  19
ATOM     19  N   UNL     1     -14.274 -44.321  28.978  1.00  0.00    -0.350 N 
ATOM     20  C   UNL     1     -13.920 -44.890  27.772  1.00  0.00     0.251 C 
ATOM     21  H   UNL     1     -14.935 -43.557  28.995  1.00  0.00     0.163 HD
ATOM     22  O   UNL     1     -13.337 -45.964  27.684  1.00  0.00    -0.269 OA
BRANCH  20  23
ATOM     23  C   UNL     1     -14.322 -44.150  26.543  1.00  0.00     0.040 A 
ATOM     24  C   UNL     1     -14.747 -42.819  26.678  1.00  0.00     0.017 A 
ATOM     25  C   UNL     1     -14.310 -44.751  25.275  1.00  0.00     0.017 A 
ATOM     26  C   UNL     1     -15.134 -42.089  25.553  1.00  0.00     0.040 A 
ATOM     27  C   UNL     1     -14.700 -44.016  24.153  1.00  0.00     0.040 A 
ATOM     28  C   UNL     1     -15.104 -42.692  24.302  1.00  0.00     0.123 A 
ATOM     29  F   UNL     1     -15.477 -41.994  23.223  1.00  0.00    -0.207 F 
ENDBRANCH  20  23
ENDBRANCH   1  19
TORSDOF 5
ENDMDL
MODEL 4
REMARK VINA RESULT:   -10.957      3.356      7.534
REMARK INTER + INTRA:         -14.140
REMARK INTER:                 -14.844
REMARK INTRA:                   0.705
REMARK UNBOUND:                 0.020
REMARK SMILES O=C(NCCNc1c2c(nc3ccccc13)CCCC2)c1ccc(F)cc1
REMARK SMILES IDX 4 1 5 2 6 3 7 5 8 6 16 7 9 8 20 9 15 10 11 11 10 12 17 13
REMARK SMILES IDX 19 14 14 15 12 16 18 17 13 18 3 19 2 20 1 22 21 23 22 24
REMARK SMILES IDX 27 25 23 26 26 27 24 28 25 29
REMARK H PARENT 6 4 3 21
ROOT
ATOM      1  C   UNL     1     -13.682 -43.594  32.160  1.00  0.00     0.137 C 
ENDROOT
BRANCH   1   2
ATOM      2  C   UNL     1     -14.241 -44.658  31.202  1.00  0.00     0.134 C 
BRANCH   2   3
ATOM      3  N   UNL     1     -14.961 -44.004  30.093  1.00  0.00    -0.382 N 
ATOM      4  H   UNL     1     -15.956 -44.210  30.165  1.00  0.00     0.160 HD
BRANCH   3   5
ATOM      5  C   UNL     1     -14.476 -44.462  28.832  1.00  0.00     0.049 A 
ATOM      6  C   UNL     1     -13.427 -45.391  28.750  1.00  0.00    -0.003 A 
ATOM      7  C   UNL     1     -14.991 -43.893  27.634  1.00  0.00     0.024 A 
ATOM      8  C   UNL     1     -12.968 -45.742  27.478  1.00  0.00     0.046 A 
ATOM      9  C   UNL     1     -12.784 -46.083  29.924  1.00  0.00     0.039 C 
ATOM     10  C   UNL     1     -16.043 -42.946  27.612  1.00  0.00     0.012 A 
ATOM     11  C   UNL     1     -14.433 -44.314  26.408  1.00  0.00     0.073 A 
ATOM     12  N   UNL     1     -13.449 -45.220  26.330  1.00  0.00    -0.252 NA
ATOM     13  C   UNL     1     -11.884 -46.783  27.369  1.00  0.00     0.056 C 
ATOM     14  C   UNL     1     -11.261 -46.141  29.776  1.00  0.00     0.005 C 
ATOM     15  C   UNL     1     -16.519 -42.417  26.413  1.00  0.00     0.001 A 
ATOM     16  C   UNL     1     -14.923 -43.772  25.227  1.00  0.00     0.029 A 
ATOM     17  C   UNL     1     -10.765 -46.502  28.369  1.00  0.00     0.007 C 
ATOM     18  C   UNL     1     -15.955 -42.829  25.216  1.00  0.00     0.002 A 
ENDBRANCH   3   5
ENDBRANCH   2   3
ENDBRANCH   1   2
BRANCH   1  19
ATOM     19  N   UNL     1     -12.267 -43.765  32.442  1.00  0.00    -0.350 N 
ATOM     20  C   UNL     1     -11.324 -42.977  31.815  1.00  0.00     0.251 C 
ATOM     21  H   UNL     1     -12.011 -44.293  33.264  1.00  0.00     0.163 HD
ATOM     22  O   UNL     1     -11.610 -42.123  30.984  1.00  0.00    -0.269 OA
BRANCH  20  23
ATOM     23  C   UNL     1      -9.907 -43.178  32.229  1.00  0.00     0.040 A 
ATOM     24  C   UNL     1      -9.061 -43.897  31.371  1.00  0.00     0.017 A 
ATOM     25  C   UNL     1      -9.414 -42.694  33.450  1.00  0.00     0.017 A 
ATOM     26  C   UNL     1      -7.726 -44.111  31.721  1.00  0.00     0.040 A 
ATOM     27  C   UNL     1      -8.077 -42.912  33.795  1.00  0.00     0.040 A 
ATOM     28  C   UNL     1      -7.246 -43.614  32.927  1.00  0.00     0.123 A 
ATOM     29  F   UNL     1      -5.967 -43.820  33.263  1.00  0.00    -0.207 F 
ENDBRANCH  20  23
ENDBRANCH   1  19
TORSDOF 5
ENDMDL
MODEL 5
REMARK VINA RESULT:   -10.798      5.803     11.491
REMARK INTER + INTRA:         -13.933
REMARK INTER:                 -12.956
REMARK INTRA:                  -0.977
REMARK UNBOUND:                 0.020
REMARK SMILES O=C(NCCNc1c2c(nc3ccccc13)CCCC2)c1ccc(F)cc1
REMARK SMILES IDX 4 1 5 2 6 3 7 5 8 6 16 7 9 8 20 9 15 10 11 11 10 12 17 13
REMARK SMILES IDX 19 14 14 15 12 16 18 17 13 18 3 19 2 20 1 22 21 23 22 24
REMARK SMILES IDX 27 25 23 26 26 27 24 28 25 29
REMARK H PARENT 6 4 3 21
ROOT
ATOM      1  C   UNL     1     -16.122 -40.986  21.980  1.00  0.00     0.137 C 
ENDROOT
BRANCH   1   2
ATOM      2  C   UNL     1     -17.539 -40.391  21.955  1.00  0.00     0.134 C 
BRANCH   2   3
ATOM      3  N   UNL     1     -18.537 -41.478  21.951  1.00  0.00    -0.382 N 
ATOM      4  H   UNL     1     -18.633 -41.849  21.007  1.00  0.00     0.160 HD
BRANCH   3   5
ATOM      5  C   UNL     1     -19.806 -41.006  22.402  1.00  0.00     0.049 A 
ATOM      6  C   UNL     1     -20.696 -40.366  21.525  1.00  0.00    -0.003 A 
ATOM      7  C   UNL     1     -20.135 -41.089  23.783  1.00  0.00     0.024 A 
ATOM      8  C   UNL     1     -21.892 -39.877  22.056  1.00  0.00     0.046 A 
ATOM      9  C   UNL     1     -20.492 -40.206  20.041  1.00  0.00     0.039 C 
ATOM     10  C   UNL     1     -19.303 -41.709  24.745  1.00  0.00     0.012 A 
ATOM     11  C   UNL     1     -21.366 -40.542  24.204  1.00  0.00     0.073 A 
ATOM     12  N   UNL     1     -22.227 -39.953  23.362  1.00  0.00    -0.252 NA
ATOM     13  C   UNL     1     -22.886 -39.242  21.119  1.00  0.00     0.056 C 
ATOM     14  C   UNL     1     -20.888 -38.805  19.567  1.00  0.00     0.005 C 
ATOM     15  C   UNL     1     -19.668 -41.770  26.089  1.00  0.00     0.001 A 
ATOM     16  C   UNL     1     -21.707 -40.614  25.548  1.00  0.00     0.029 A 
ATOM     17  C   UNL     1     -22.189 -38.265  20.175  1.00  0.00     0.007 C 
ATOM     18  C   UNL     1     -20.874 -41.218  26.493  1.00  0.00     0.002 A 
ENDBRANCH   3   5
ENDBRANCH   2   3
ENDBRANCH   1   2
BRANCH   1  19
ATOM     19  N   UNL     1     -15.740 -41.496  23.285  1.00  0.00    -0.350 N 
ATOM     20  C   UNL     1     -16.065 -42.783  23.662  1.00  0.00     0.251 C 
ATOM     21  H   UNL     1     -15.040 -40.985  23.804  1.00  0.00     0.163 HD
ATOM     22  O   UNL     1     -16.701 -43.549  22.948  1.00  0.00    -0.269 OA
BRANCH  20  23
ATOM     23  C   UNL     1     -15.562 -43.236  24.989  1.00  0.00     0.040 A 
ATOM     24  C   UNL     1     -14.532 -44.189  25.019  1.00  0.00     0.017 A 
ATOM     25  C   UNL     1     -16.102 -42.757  26.192  1.00  0.00     0.017 A 
ATOM     26  C   UNL     1     -14.032 -44.642  26.240  1.00  0.00     0.040 A 
ATOM     27  C   UNL     1     -15.598 -43.215  27.412  1.00  0.00     0.040 A 
ATOM     28  C   UNL     1     -14.566 -44.150  27.424  1.00  0.00     0.123 A 
ATOM     29  F   UNL     1     -14.088 -44.586  28.596  1.00  0.00    -0.207 F 
ENDBRANCH  20  23
ENDBRANCH   1  19
TORSDOF 5
ENDMDL
MODEL 6
REMARK VINA RESULT:   -10.681      6.131      9.436
REMARK INTER + INTRA:         -13.782
REMARK INTER:                 -13.247
REMARK INTRA:                  -0.536
REMARK UNBOUND:                 0.020
REMARK SMILES O=C(NCCNc1c2c(nc3ccccc13)CCCC2)c1ccc(F)cc1
REMARK SMILES IDX 4 1 5 2 6 3 7 5 8 6 16 7 9 8 20 9 15 10 11 11 10 12 17 13
REMARK SMILES IDX 19 14 14 15 12 16 18 17 13 18 3 19 2 20 1 22 21 23 22 24
REMARK SMILES IDX 27 25 23 26 26 27 24 28 25 29
REMARK H PARENT 6 4 3 21
ROOT
ATOM      1  C   UNL     1     -17.807 -40.290  21.625  1.00  0.00     0.137 C 
ENDROOT
BRANCH   1   2
ATOM      2  C   UNL     1     -16.829 -41.281  22.275  1.00  0.00     0.134 C 
BRANCH   2   3
ATOM      3  N   UNL     1     -17.578 -42.405  22.869  1.00  0.00    -0.382 N 
ATOM      4  H   UNL     1     -18.561 -42.333  22.612  1.00  0.00     0.160 HD
BRANCH   3   5
ATOM      5  C   UNL     1     -17.462 -42.400  24.291  1.00  0.00     0.049 A 
ATOM      6  C   UNL     1     -16.287 -42.833  24.925  1.00  0.00    -0.003 A 
ATOM      7  C   UNL     1     -18.588 -42.049  25.085  1.00  0.00     0.024 A 
ATOM      8  C   UNL     1     -16.274 -42.856  26.322  1.00  0.00     0.046 A 
ATOM      9  C   UNL     1     -15.014 -43.230  24.224  1.00  0.00     0.039 C 
ATOM     10  C   UNL     1     -19.817 -41.605  24.540  1.00  0.00     0.012 A 
ATOM     11  C   UNL     1     -18.460 -42.129  26.488  1.00  0.00     0.073 A 
ATOM     12  N   UNL     1     -17.329 -42.519  27.094  1.00  0.00    -0.252 NA
ATOM     13  C   UNL     1     -15.002 -43.260  27.021  1.00  0.00     0.056 C 
ATOM     14  C   UNL     1     -14.398 -44.486  24.847  1.00  0.00     0.005 C 
ATOM     15  C   UNL     1     -20.895 -41.269  25.358  1.00  0.00     0.001 A 
ATOM     16  C   UNL     1     -19.547 -41.789  27.281  1.00  0.00     0.029 A 
ATOM     17  C   UNL     1     -14.411 -44.514  26.381  1.00  0.00     0.007 C 
ATOM     18  C   UNL     1     -20.760 -41.363  26.734  1.00  0.00     0.002 A 
ENDBRANCH   3   5
ENDBRANCH   2   3
ENDBRANCH   1   2
BRANCH   1  19
ATOM     19  N   UNL     1     -19.074 -40.898  21.255  1.00  0.00    -0.350 N 
ATOM     20  C   UNL     1     -19.786 -40.436  20.167  1.00  0.00     0.251 C 
ATOM     21  H   UNL     1     -19.299 -41.798  21.654  1.00  0.00     0.163 HD
ATOM     22  O   UNL     1     -19.417 -39.493  19.477  1.00  0.00    -0.269 OA
BRANCH  20  23
ATOM     23  C   UNL     1     -21.033 -41.175  19.825  1.00  0.00     0.040 A 
ATOM     24  C   UNL     1     -21.085 -42.551  20.095  1.00  0.00     0.017 A 
ATOM     25  C   UNL     1     -22.131 -40.541  19.224  1.00  0.00     0.017 A 
ATOM     26  C   UNL     1     -22.234 -43.282  19.790  1.00  0.00     0.040 A 
ATOM     27  C   UNL     1     -23.278 -41.279  18.919  1.00  0.00     0.040 A 
ATOM     28  C   UNL     1     -23.320 -42.640  19.208  1.00  0.00     0.123 A 
ATOM     29  F   UNL     1     -24.421 -43.342  18.912  1.00  0.00    -0.207 F 
ENDBRANCH  20  23
ENDBRANCH   1  19
TORSDOF 5
ENDMDL
MODEL 7
REMARK VINA RESULT:   -10.292      6.193     10.105
REMARK INTER + INTRA:         -13.280
REMARK INTER:                 -12.848
REMARK INTRA:                  -0.433
REMARK UNBOUND:                 0.020
REMARK SMILES O=C(NCCNc1c2c(nc3ccccc13)CCCC2)c1ccc(F)cc1
REMARK SMILES IDX 4 1 5 2 6 3 7 5 8 6 16 7 9 8 20 9 15 10 11 11 10 12 17 13
REMARK SMILES IDX 19 14 14 15 12 16 18 17 13 18 3 19 2 20 1 22 21 23 22 24
REMARK SMILES IDX 27 25 23 26 26 27 24 28 25 29
REMARK H PARENT 6 4 3 21
ROOT
ATOM      1  C   UNL     1     -17.829 -40.281  21.654  1.00  0.00     0.137 C 
ENDROOT
BRANCH   1   2
ATOM      2  C   UNL     1     -16.822 -41.252  22.290  1.00  0.00     0.134 C 
BRANCH   2   3
ATOM      3  N   UNL     1     -17.519 -42.476  22.731  1.00  0.00    -0.382 N 
ATOM      4  H   UNL     1     -18.473 -42.473  22.374  1.00  0.00     0.160 HD
BRANCH   3   5
ATOM      5  C   UNL     1     -17.551 -42.559  24.155  1.00  0.00     0.049 A 
ATOM      6  C   UNL     1     -18.739 -42.337  24.869  1.00  0.00    -0.003 A 
ATOM      7  C   UNL     1     -16.341 -42.766  24.873  1.00  0.00     0.024 A 
ATOM      8  C   UNL     1     -18.676 -42.374  26.264  1.00  0.00     0.046 A 
ATOM      9  C   UNL     1     -20.096 -42.110  24.252  1.00  0.00     0.039 C 
ATOM     10  C   UNL     1     -15.093 -42.993  24.246  1.00  0.00     0.012 A 
ATOM     11  C   UNL     1     -16.400 -42.764  26.284  1.00  0.00     0.073 A 
ATOM     12  N   UNL     1     -17.540 -42.577  26.964  1.00  0.00    -0.252 NA
ATOM     13  C   UNL     1     -19.953 -42.198  27.044  1.00  0.00     0.056 C 
ATOM     14  C   UNL     1     -20.858 -40.991  24.967  1.00  0.00     0.005 C 
ATOM     15  C   UNL     1     -13.932 -43.195  24.992  1.00  0.00     0.001 A 
ATOM     16  C   UNL     1     -15.231 -42.967  27.004  1.00  0.00     0.029 A 
ATOM     17  C   UNL     1     -20.761 -41.025  26.498  1.00  0.00     0.007 C 
ATOM     18  C   UNL     1     -14.001 -43.179  26.376  1.00  0.00     0.002 A 
ENDBRANCH   3   5
ENDBRANCH   2   3
ENDBRANCH   1   2
BRANCH   1  19
ATOM     19  N   UNL     1     -19.084 -40.917  21.291  1.00  0.00    -0.350 N 
ATOM     20  C   UNL     1     -19.801 -40.485  20.195  1.00  0.00     0.251 C 
ATOM     21  H   UNL     1     -19.294 -41.815  21.704  1.00  0.00     0.163 HD
ATOM     22  O   UNL     1     -19.447 -39.547  19.491  1.00  0.00    -0.269 OA
BRANCH  20  23
ATOM     23  C   UNL     1     -21.035 -41.251  19.862  1.00  0.00     0.040 A 
ATOM     24  C   UNL     1     -22.077 -40.579  19.205  1.00  0.00     0.017 A 
ATOM     25  C   UNL     1     -21.187 -42.602  20.208  1.00  0.00     0.017 A 
ATOM     26  C   UNL     1     -23.251 -41.258  18.876  1.00  0.00     0.040 A 
ATOM     27  C   UNL     1     -22.365 -43.277  19.877  1.00  0.00     0.040 A 
ATOM     28  C   UNL     1     -23.383 -42.600  19.212  1.00  0.00     0.123 A 
ATOM     29  F   UNL     1     -24.510 -43.251  18.898  1.00  0.00    -0.207 F 
ENDBRANCH  20  23
ENDBRANCH   1  19
TORSDOF 5
ENDMDL
MODEL 8
REMARK VINA RESULT:   -10.206      5.921     11.725
REMARK INTER + INTRA:         -13.169
REMARK INTER:                 -12.179
REMARK INTRA:                  -0.990
REMARK UNBOUND:                 0.020
REMARK SMILES O=C(NCCNc1c2c(nc3ccccc13)CCCC2)c1ccc(F)cc1
REMARK SMILES IDX 4 1 5 2 6 3 7 5 8 6 16 7 9 8 20 9 15 10 11 11 10 12 17 13
REMARK SMILES IDX 19 14 14 15 12 16 18 17 13 18 3 19 2 20 1 22 21 23 22 24
REMARK SMILES IDX 27 25 23 26 26 27 24 28 25 29
REMARK H PARENT 6 4 3 21
ROOT
ATOM      1  C   UNL     1     -16.203 -40.907  21.862  1.00  0.00     0.137 C 
ENDROOT
BRANCH   1   2
ATOM      2  C   UNL     1     -17.527 -40.131  21.953  1.00  0.00     0.134 C 
BRANCH   2   3
ATOM      3  N   UNL     1     -18.654 -41.028  21.634  1.00  0.00    -0.382 N 
ATOM      4  H   UNL     1     -18.743 -41.118  20.623  1.00  0.00     0.160 HD
BRANCH   3   5
ATOM      5  C   UNL     1     -19.876 -40.521  22.170  1.00  0.00     0.049 A 
ATOM      6  C   UNL     1     -20.308 -40.879  23.457  1.00  0.00    -0.003 A 
ATOM      7  C   UNL     1     -20.723 -39.724  21.353  1.00  0.00     0.024 A 
ATOM      8  C   UNL     1     -21.545 -40.391  23.886  1.00  0.00     0.046 A 
ATOM      9  C   UNL     1     -19.523 -41.709  24.440  1.00  0.00     0.039 C 
ATOM     10  C   UNL     1     -20.379 -39.315  20.042  1.00  0.00     0.012 A 
ATOM     11  C   UNL     1     -21.959 -39.305  21.891  1.00  0.00     0.073 A 
ATOM     12  N   UNL     1     -22.360 -39.626  23.129  1.00  0.00    -0.252 NA
ATOM     13  C   UNL     1     -21.997 -40.714  25.286  1.00  0.00     0.056 C 
ATOM     14  C   UNL     1     -20.415 -42.732  25.149  1.00  0.00     0.005 C 
ATOM     15  C   UNL     1     -21.241 -38.530  19.277  1.00  0.00     0.001 A 
ATOM     16  C   UNL     1     -22.800 -38.524  21.109  1.00  0.00     0.029 A 
ATOM     17  C   UNL     1     -21.782 -42.194  25.593  1.00  0.00     0.007 C 
ATOM     18  C   UNL     1     -22.457 -38.134  19.812  1.00  0.00     0.002 A 
ENDBRANCH   3   5
ENDBRANCH   2   3
ENDBRANCH   1   2
BRANCH   1  19
ATOM     19  N   UNL     1     -15.776 -41.459  23.136  1.00  0.00    -0.350 N 
ATOM     20  C   UNL     1     -16.193 -42.712  23.536  1.00  0.00     0.251 C 
ATOM     21  H   UNL     1     -14.994 -41.020  23.601  1.00  0.00     0.163 HD
ATOM     22  O   UNL     1     -16.949 -43.410  22.871  1.00  0.00    -0.269 OA
BRANCH  20  23
ATOM     23  C   UNL     1     -15.638 -43.219  24.822  1.00  0.00     0.040 A 
ATOM     24  C   UNL     1     -16.168 -42.714  26.019  1.00  0.00     0.017 A 
ATOM     25  C   UNL     1     -14.595 -44.157  24.864  1.00  0.00     0.017 A 
ATOM     26  C   UNL     1     -15.677 -43.160  27.247  1.00  0.00     0.040 A 
ATOM     27  C   UNL     1     -14.107 -44.600  26.096  1.00  0.00     0.040 A 
ATOM     28  C   UNL     1     -14.654 -44.100  27.274  1.00  0.00     0.123 A 
ATOM     29  F   UNL     1     -14.181 -44.527  28.451  1.00  0.00    -0.207 F 
ENDBRANCH  20  23
ENDBRANCH   1  19
TORSDOF 5
ENDMDL
MODEL 9
REMARK VINA RESULT:   -10.150      3.505      8.360
REMARK INTER + INTRA:         -13.097
REMARK INTER:                 -13.325
REMARK INTRA:                   0.228
REMARK UNBOUND:                 0.020
REMARK SMILES O=C(NCCNc1c2c(nc3ccccc13)CCCC2)c1ccc(F)cc1
REMARK SMILES IDX 4 1 5 2 6 3 7 5 8 6 16 7 9 8 20 9 15 10 11 11 10 12 17 13
REMARK SMILES IDX 19 14 14 15 12 16 18 17 13 18 3 19 2 20 1 22 21 23 22 24
REMARK SMILES IDX 27 25 23 26 26 27 24 28 25 29
REMARK H PARENT 6 4 3 21
ROOT
ATOM      1  C   UNL     1     -15.055 -43.569  30.669  1.00  0.00     0.137 C 
ENDROOT
BRANCH   1   2
ATOM      2  C   UNL     1     -15.828 -43.877  29.377  1.00  0.00     0.134 C 
BRANCH   2   3
ATOM      3  N   UNL     1     -16.462 -42.645  28.868  1.00  0.00    -0.382 N 
ATOM      4  H   UNL     1     -17.356 -42.503  29.337  1.00  0.00     0.160 HD
BRANCH   3   5
ATOM      5  C   UNL     1     -16.677 -42.728  27.460  1.00  0.00     0.049 A 
ATOM      6  C   UNL     1     -15.650 -43.125  26.590  1.00  0.00    -0.003 A 
ATOM      7  C   UNL     1     -17.920 -42.303  26.915  1.00  0.00     0.024 A 
ATOM      8  C   UNL     1     -15.921 -43.120  25.220  1.00  0.00     0.046 A 
ATOM      9  C   UNL     1     -14.286 -43.606  27.015  1.00  0.00     0.039 C 
ATOM     10  C   UNL     1     -19.014 -41.880  27.707  1.00  0.00     0.012 A 
ATOM     11  C   UNL     1     -18.069 -42.325  25.511  1.00  0.00     0.073 A 
ATOM     12  N   UNL     1     -17.096 -42.728  24.683  1.00  0.00    -0.252 NA
ATOM     13  C   UNL     1     -14.850 -43.601  24.275  1.00  0.00     0.056 C 
ATOM     14  C   UNL     1     -13.182 -43.012  26.137  1.00  0.00     0.005 C 
ATOM     15  C   UNL     1     -20.216 -41.475  27.129  1.00  0.00     0.001 A 
ATOM     16  C   UNL     1     -19.275 -41.916  24.959  1.00  0.00     0.029 A 
ATOM     17  C   UNL     1     -13.499 -42.988  24.635  1.00  0.00     0.007 C 
ATOM     18  C   UNL     1     -20.346 -41.490  25.749  1.00  0.00     0.002 A 
ENDBRANCH   3   5
ENDBRANCH   2   3
ENDBRANCH   1   2
BRANCH   1  19
ATOM     19  N   UNL     1     -13.715 -44.131  30.680  1.00  0.00    -0.350 N 
ATOM     20  C   UNL     1     -12.856 -43.883  31.731  1.00  0.00     0.251 C 
ATOM     21  H   UNL     1     -13.515 -44.884  30.038  1.00  0.00     0.163 HD
ATOM     22  O   UNL     1     -13.151 -43.172  32.683  1.00  0.00    -0.269 OA
BRANCH  20  23
ATOM     23  C   UNL     1     -11.533 -44.566  31.684  1.00  0.00     0.040 A 
ATOM     24  C   UNL     1     -10.403 -43.857  32.119  1.00  0.00     0.017 A 
ATOM     25  C   UNL     1     -11.389 -45.875  31.199  1.00  0.00     0.017 A 
ATOM     26  C   UNL     1      -9.144 -44.459  32.092  1.00  0.00     0.040 A 
ATOM     27  C   UNL     1     -10.126 -46.472  31.173  1.00  0.00     0.040 A 
ATOM     28  C   UNL     1      -9.017 -45.760  31.622  1.00  0.00     0.123 A 
ATOM     29  F   UNL     1      -7.810 -46.337  31.594  1.00  0.00    -0.207 F 
ENDBRANCH  20  23
ENDBRANCH   1  19
TORSDOF 5
ENDMDL
