MODEL 1
REMARK VINA RESULT:   -11.833      0.000      0.000
REMARK INTER + INTRA:         -18.376
REMARK INTER:                 -18.058
REMARK INTRA:                  -0.318
REMARK UNBOUND:                -0.318
REMARK SMILES O=C(Nc1cncc(OC[C@H]2CC[N@@H+](Cc3ccccc3)CC2)c1)c1ccnc(NC(=O)C2CC2)c1
REMARK SMILES IDX 8 1 7 2 24 3 6 4 4 5 5 6 9 7 10 8 11 9 13 10 14 11 12 12
REMARK SMILES IDX 22 13 23 14 15 16 16 17 17 18 21 19 18 20 20 21 19 22 3 23
REMARK SMILES IDX 2 24 1 26 25 27 26 28 36 29 27 30 29 31 28 32 30 33 31 34
REMARK SMILES IDX 32 36 33 37 34 38 35 39
REMARK H PARENT 14 15 3 25 30 35
ROOT
ATOM      1  C   UNL     1     -14.419 -42.781  26.050  1.00  0.00     0.139 A 
ATOM      2  C   UNL     1     -14.051 -43.040  24.738  1.00  0.00     0.157 A 
ATOM      3  C   UNL     1     -15.775 -42.639  26.338  1.00  0.00     0.075 A 
ATOM      4  N   UNL     1     -14.927 -43.116  23.717  1.00  0.00    -0.259 NA
ATOM      5  C   UNL     1     -16.720 -42.717  25.310  1.00  0.00     0.063 A 
ATOM      6  C   UNL     1     -16.241 -42.956  24.022  1.00  0.00     0.137 A 
ENDROOT
BRANCH   1   7
ATOM      7  O   UNL     1     -13.534 -42.717  27.089  1.00  0.00    -0.492 OA
BRANCH   7   8
ATOM      8  C   UNL     1     -12.627 -43.823  27.136  1.00  0.00     0.233 C 
BRANCH   8   9
ATOM      9  C   UNL     1     -13.346 -45.111  27.589  1.00  0.00     0.038 C 
ATOM     10  C   UNL     1     -11.495 -46.160  29.007  1.00  0.00     0.262 C 
ATOM     11  N   UNL     1     -12.388 -46.007  30.210  1.00  0.00    -0.331 N 
ATOM     12  C   UNL     1     -12.355 -46.275  27.750  1.00  0.00     0.069 C 
ATOM     13  C   UNL     1     -13.279 -44.792  30.111  1.00  0.00     0.262 C 
ATOM     14  C   UNL     1     -14.162 -44.930  28.881  1.00  0.00     0.069 C 
ATOM     15  H   UNL     1     -13.010 -46.825  30.216  1.00  0.00     0.348 HD
BRANCH  11  16
ATOM     16  C   UNL     1     -11.644 -46.104  31.531  1.00  0.00     0.299 C 
BRANCH  16  17
ATOM     17  C   UNL     1     -10.203 -45.669  31.505  1.00  0.00     0.006 A 
ATOM     18  C   UNL     1      -9.867 -44.321  31.723  1.00  0.00     0.009 A 
ATOM     19  C   UNL     1      -9.172 -46.591  31.266  1.00  0.00     0.009 A 
ATOM     20  C   UNL     1      -8.535 -43.906  31.686  1.00  0.00     0.001 A 
ATOM     21  C   UNL     1      -7.839 -46.171  31.233  1.00  0.00     0.001 A 
ATOM     22  C   UNL     1      -7.522 -44.829  31.439  1.00  0.00     0.000 A 
ENDBRANCH  16  17
ENDBRANCH  11  16
ENDBRANCH   8   9
ENDBRANCH   7   8
ENDBRANCH   1   7
BRANCH   5  23
ATOM     23  N   UNL     1     -18.081 -42.533  25.646  1.00  0.00    -0.320 N 
ATOM     24  C   UNL     1     -18.587 -42.349  26.920  1.00  0.00     0.255 C 
ATOM     25  H   UNL     1     -18.732 -42.468  24.873  1.00  0.00     0.170 HD
ATOM     26  O   UNL     1     -17.937 -42.252  27.952  1.00  0.00    -0.269 OA
BRANCH  24  27
ATOM     27  C   UNL     1     -20.067 -42.241  27.000  1.00  0.00     0.045 A 
ATOM     28  C   UNL     1     -20.703 -41.003  26.903  1.00  0.00     0.034 A 
ATOM     29  C   UNL     1     -20.818 -43.411  27.125  1.00  0.00     0.061 A 
ATOM     30  C   UNL     1     -22.082 -40.995  26.959  1.00  0.00     0.114 A 
ATOM     31  C   UNL     1     -22.196 -43.300  27.178  1.00  0.00     0.133 A 
ATOM     32  N   UNL     1     -22.831 -42.108  27.104  1.00  0.00    -0.239 NA
BRANCH  31  33
ATOM     33  N   UNL     1     -23.073 -44.377  27.305  1.00  0.00    -0.310 N 
ATOM     34  C   UNL     1     -23.535 -44.966  28.452  1.00  0.00     0.228 C 
ATOM     35  H   UNL     1     -23.377 -44.731  26.410  1.00  0.00     0.171 HD
ATOM     36  O   UNL     1     -23.278 -44.624  29.596  1.00  0.00    -0.274 OA
BRANCH  34  37
ATOM     37  C   UNL     1     -24.447 -46.137  28.258  1.00  0.00     0.079 C 
ATOM     38  C   UNL     1     -25.951 -46.014  28.331  1.00  0.00     0.014 C 
ATOM     39  C   UNL     1     -25.213 -46.778  29.392  1.00  0.00     0.014 C 
ENDBRANCH  34  37
ENDBRANCH  31  33
ENDBRANCH  24  27
ENDBRANCH   5  23
TORSDOF 9
ENDMDL
MODEL 2
REMARK VINA RESULT:   -11.830      2.022      3.395
REMARK INTER + INTRA:         -18.371
REMARK INTER:                 -17.674
REMARK INTRA:                  -0.697
REMARK UNBOUND:                -0.318
REMARK SMILES O=C(Nc1cncc(OC[C@H]2CC[N@@H+](Cc3ccccc3)CC2)c1)c1ccnc(NC(=O)C2CC2)c1
REMARK SMILES IDX 8 1 7 2 24 3 6 4 4 5 5 6 9 7 10 8 11 9 13 10 14 11 12 12
REMARK SMILES IDX 22 13 23 14 15 16 16 17 17 18 21 19 18 20 20 21 19 22 3 23
REMARK SMILES IDX 2 24 1 26 25 27 26 28 36 29 27 30 29 31 28 32 30 33 31 34
REMARK SMILES IDX 32 36 33 37 34 38 35 39
REMARK H PARENT 14 15 3 25 30 35
ROOT
ATOM      1  C   UNL     1     -14.409 -42.761  26.124  1.00  0.00     0.139 A 
ATOM      2  C   UNL     1     -14.112 -42.870  24.773  1.00  0.00     0.157 A 
ATOM      3  C   UNL     1     -15.750 -42.727  26.503  1.00  0.00     0.075 A 
ATOM      4  N   UNL     1     -15.046 -42.899  23.803  1.00  0.00    -0.259 NA
ATOM      5  C   UNL     1     -16.753 -42.761  25.529  1.00  0.00     0.063 A 
ATOM      6  C   UNL     1     -16.345 -42.846  24.198  1.00  0.00     0.137 A 
ENDROOT
BRANCH   1   7
ATOM      7  O   UNL     1     -13.464 -42.747  27.111  1.00  0.00    -0.492 OA
BRANCH   7   8
ATOM      8  C   UNL     1     -12.583 -43.873  27.074  1.00  0.00     0.233 C 
BRANCH   8   9
ATOM      9  C   UNL     1     -13.301 -45.153  27.552  1.00  0.00     0.038 C 
ATOM     10  C   UNL     1     -11.416 -46.221  28.910  1.00  0.00     0.262 C 
ATOM     11  N   UNL     1     -12.269 -46.058  30.142  1.00  0.00    -0.331 N 
ATOM     12  C   UNL     1     -12.317 -46.328  27.682  1.00  0.00     0.069 C 
ATOM     13  C   UNL     1     -13.150 -44.834  30.071  1.00  0.00     0.262 C 
ATOM     14  C   UNL     1     -14.073 -44.963  28.869  1.00  0.00     0.069 C 
ATOM     15  H   UNL     1     -12.899 -46.869  30.168  1.00  0.00     0.348 HD
BRANCH  11  16
ATOM     16  C   UNL     1     -11.484 -46.162  31.438  1.00  0.00     0.299 C 
BRANCH  16  17
ATOM     17  C   UNL     1     -10.083 -45.611  31.403  1.00  0.00     0.006 A 
ATOM     18  C   UNL     1      -9.864 -44.228  31.537  1.00  0.00     0.009 A 
ATOM     19  C   UNL     1      -8.975 -46.457  31.238  1.00  0.00     0.009 A 
ATOM     20  C   UNL     1      -8.570 -43.706  31.490  1.00  0.00     0.001 A 
ATOM     21  C   UNL     1      -7.681 -45.929  31.195  1.00  0.00     0.001 A 
ATOM     22  C   UNL     1      -7.480 -44.555  31.317  1.00  0.00     0.000 A 
ENDBRANCH  16  17
ENDBRANCH  11  16
ENDBRANCH   8   9
ENDBRANCH   7   8
ENDBRANCH   1   7
BRANCH   5  23
ATOM     23  N   UNL     1     -18.097 -42.689  25.960  1.00  0.00    -0.320 N 
ATOM     24  C   UNL     1     -19.126 -42.029  25.314  1.00  0.00     0.255 C 
ATOM     25  H   UNL     1     -18.335 -43.225  26.786  1.00  0.00     0.170 HD
ATOM     26  O   UNL     1     -19.056 -41.456  24.234  1.00  0.00    -0.269 OA
BRANCH  24  27
ATOM     27  C   UNL     1     -20.434 -42.060  26.017  1.00  0.00     0.045 A 
ATOM     28  C   UNL     1     -21.017 -43.269  26.399  1.00  0.00     0.034 A 
ATOM     29  C   UNL     1     -21.052 -40.849  26.335  1.00  0.00     0.061 A 
ATOM     30  C   UNL     1     -22.219 -43.206  27.072  1.00  0.00     0.114 A 
ATOM     31  C   UNL     1     -22.260 -40.889  27.009  1.00  0.00     0.133 A 
ATOM     32  N   UNL     1     -22.850 -42.051  27.371  1.00  0.00    -0.239 NA
BRANCH  31  33
ATOM     33  N   UNL     1     -22.992 -39.764  27.390  1.00  0.00    -0.310 N 
ATOM     34  C   UNL     1     -23.819 -38.989  26.621  1.00  0.00     0.228 C 
ATOM     35  H   UNL     1     -22.863 -39.535  28.364  1.00  0.00     0.171 HD
ATOM     36  O   UNL     1     -24.092 -39.168  25.444  1.00  0.00    -0.274 OA
BRANCH  34  37
ATOM     37  C   UNL     1     -24.441 -37.818  27.316  1.00  0.00     0.079 C 
ATOM     38  C   UNL     1     -23.859 -36.425  27.234  1.00  0.00     0.014 C 
ATOM     39  C   UNL     1     -23.833 -37.170  28.538  1.00  0.00     0.014 C 
ENDBRANCH  34  37
ENDBRANCH  31  33
ENDBRANCH  24  27
ENDBRANCH   5  23
TORSDOF 9
ENDMDL
MODEL 3
REMARK VINA RESULT:   -11.696      3.153      4.721
REMARK INTER + INTRA:         -18.167
REMARK INTER:                 -17.847
REMARK INTRA:                  -0.320
REMARK UNBOUND:                -0.318
REMARK SMILES O=C(Nc1cncc(OC[C@H]2CC[N@@H+](Cc3ccccc3)CC2)c1)c1ccnc(NC(=O)C2CC2)c1
REMARK SMILES IDX 8 1 7 2 24 3 6 4 4 5 5 6 9 7 10 8 11 9 13 10 14 11 12 12
REMARK SMILES IDX 22 13 23 14 15 16 16 17 17 18 21 19 18 20 20 21 19 22 3 23
REMARK SMILES IDX 2 24 1 26 25 27 26 28 36 29 27 30 29 31 28 32 30 33 31 34
REMARK SMILES IDX 32 36 33 37 34 38 35 39
REMARK H PARENT 14 15 3 25 30 35
ROOT
ATOM      1  C   UNL     1     -14.955 -43.150  25.924  1.00  0.00     0.139 A 
ATOM      2  C   UNL     1     -14.415 -43.707  24.775  1.00  0.00     0.157 A 
ATOM      3  C   UNL     1     -16.239 -42.612  25.855  1.00  0.00     0.075 A 
ATOM      4  N   UNL     1     -15.043 -43.716  23.583  1.00  0.00    -0.259 NA
ATOM      5  C   UNL     1     -16.930 -42.606  24.640  1.00  0.00     0.063 A 
ATOM      6  C   UNL     1     -16.286 -43.170  23.539  1.00  0.00     0.137 A 
ENDROOT
BRANCH   1   7
ATOM      7  O   UNL     1     -14.326 -43.152  27.138  1.00  0.00    -0.492 OA
BRANCH   7   8
ATOM      8  C   UNL     1     -14.198 -44.455  27.713  1.00  0.00     0.233 C 
BRANCH   8   9
ATOM      9  C   UNL     1     -12.765 -45.001  27.532  1.00  0.00     0.038 C 
ATOM     10  C   UNL     1     -11.622 -43.870  29.520  1.00  0.00     0.262 C 
ATOM     11  N   UNL     1     -11.377 -45.239  30.102  1.00  0.00    -0.331 N 
ATOM     12  C   UNL     1     -11.717 -43.978  28.000  1.00  0.00     0.069 C 
ATOM     13  C   UNL     1     -12.470 -46.217  29.746  1.00  0.00     0.262 C 
ATOM     14  C   UNL     1     -12.534 -46.350  28.232  1.00  0.00     0.069 C 
ATOM     15  H   UNL     1     -10.517 -45.591  29.664  1.00  0.00     0.348 HD
BRANCH  11  16
ATOM     16  C   UNL     1     -11.049 -45.214  31.585  1.00  0.00     0.299 C 
BRANCH  16  17
ATOM     17  C   UNL     1      -9.658 -44.761  31.942  1.00  0.00     0.006 A 
ATOM     18  C   UNL     1      -8.546 -45.540  31.576  1.00  0.00     0.009 A 
ATOM     19  C   UNL     1      -9.442 -43.562  32.638  1.00  0.00     0.009 A 
ATOM     20  C   UNL     1      -7.253 -45.136  31.915  1.00  0.00     0.001 A 
ATOM     21  C   UNL     1      -8.146 -43.160  32.974  1.00  0.00     0.001 A 
ATOM     22  C   UNL     1      -7.053 -43.949  32.615  1.00  0.00     0.000 A 
ENDBRANCH  16  17
ENDBRANCH  11  16
ENDBRANCH   8   9
ENDBRANCH   7   8
ENDBRANCH   1   7
BRANCH   5  23
ATOM     23  N   UNL     1     -18.216 -42.019  24.612  1.00  0.00    -0.320 N 
ATOM     24  C   UNL     1     -19.059 -41.854  25.696  1.00  0.00     0.255 C 
ATOM     25  H   UNL     1     -18.516 -41.630  23.726  1.00  0.00     0.170 HD
ATOM     26  O   UNL     1     -18.805 -42.128  26.862  1.00  0.00    -0.269 OA
BRANCH  24  27
ATOM     27  C   UNL     1     -20.383 -41.261  25.379  1.00  0.00     0.045 A 
ATOM     28  C   UNL     1     -21.329 -41.037  26.379  1.00  0.00     0.034 A 
ATOM     29  C   UNL     1     -20.649 -40.884  24.061  1.00  0.00     0.061 A 
ATOM     30  C   UNL     1     -22.523 -40.457  26.002  1.00  0.00     0.114 A 
ATOM     31  C   UNL     1     -21.879 -40.314  23.780  1.00  0.00     0.133 A 
ATOM     32  N   UNL     1     -22.816 -40.105  24.733  1.00  0.00    -0.239 NA
BRANCH  31  33
ATOM     33  N   UNL     1     -22.285 -39.891  22.515  1.00  0.00    -0.310 N 
ATOM     34  C   UNL     1     -21.600 -39.115  21.618  1.00  0.00     0.228 C 
ATOM     35  H   UNL     1     -23.206 -40.228  22.275  1.00  0.00     0.171 HD
ATOM     36  O   UNL     1     -20.471 -38.668  21.760  1.00  0.00    -0.274 OA
BRANCH  34  37
ATOM     37  C   UNL     1     -22.323 -38.801  20.345  1.00  0.00     0.079 C 
ATOM     38  C   UNL     1     -22.246 -39.694  19.128  1.00  0.00     0.014 C 
ATOM     39  C   UNL     1     -21.618 -38.330  19.095  1.00  0.00     0.014 C 
ENDBRANCH  34  37
ENDBRANCH  31  33
ENDBRANCH  24  27
ENDBRANCH   5  23
TORSDOF 9
ENDMDL
MODEL 4
REMARK VINA RESULT:   -11.593      1.978      3.268
REMARK INTER + INTRA:         -18.010
REMARK INTER:                 -17.601
REMARK INTRA:                  -0.409
REMARK UNBOUND:                -0.318
REMARK SMILES O=C(Nc1cncc(OC[C@H]2CC[N@@H+](Cc3ccccc3)CC2)c1)c1ccnc(NC(=O)C2CC2)c1
REMARK SMILES IDX 8 1 7 2 24 3 6 4 4 5 5 6 9 7 10 8 11 9 13 10 14 11 12 12
REMARK SMILES IDX 22 13 23 14 15 16 16 17 17 18 21 19 18 20 20 21 19 22 3 23
REMARK SMILES IDX 2 24 1 26 25 27 26 28 36 29 27 30 29 31 28 32 30 33 31 34
REMARK SMILES IDX 32 36 33 37 34 38 35 39
REMARK H PARENT 14 15 3 25 30 35
ROOT
ATOM      1  C   UNL     1     -14.878 -42.912  26.037  1.00  0.00     0.139 A 
ATOM      2  C   UNL     1     -14.365 -42.957  24.749  1.00  0.00     0.157 A 
ATOM      3  C   UNL     1     -16.252 -42.737  26.193  1.00  0.00     0.075 A 
ATOM      4  N   UNL     1     -15.113 -42.795  23.640  1.00  0.00    -0.259 NA
ATOM      5  C   UNL     1     -17.068 -42.572  25.069  1.00  0.00     0.063 A 
ATOM      6  C   UNL     1     -16.447 -42.608  23.821  1.00  0.00     0.137 A 
ENDROOT
BRANCH   1   7
ATOM      7  O   UNL     1     -14.123 -43.090  27.162  1.00  0.00    -0.492 OA
BRANCH   7   8
ATOM      8  C   UNL     1     -14.158 -44.427  27.668  1.00  0.00     0.233 C 
BRANCH   8   9
ATOM      9  C   UNL     1     -12.768 -45.091  27.575  1.00  0.00     0.038 C 
ATOM     10  C   UNL     1     -11.579 -43.862  29.477  1.00  0.00     0.262 C 
ATOM     11  N   UNL     1     -11.448 -45.183  30.190  1.00  0.00    -0.331 N 
ATOM     12  C   UNL     1     -11.654 -44.107  27.971  1.00  0.00     0.069 C 
ATOM     13  C   UNL     1     -12.605 -46.109  29.900  1.00  0.00     0.262 C 
ATOM     14  C   UNL     1     -12.651 -46.381  28.404  1.00  0.00     0.069 C 
ATOM     15  H   UNL     1     -10.609 -45.637  29.809  1.00  0.00     0.348 HD
BRANCH  11  16
ATOM     16  C   UNL     1     -11.146 -45.041  31.672  1.00  0.00     0.299 C 
BRANCH  16  17
ATOM     17  C   UNL     1      -9.741 -44.626  32.018  1.00  0.00     0.006 A 
ATOM     18  C   UNL     1      -8.651 -45.421  31.622  1.00  0.00     0.009 A 
ATOM     19  C   UNL     1      -9.489 -43.446  32.735  1.00  0.00     0.009 A 
ATOM     20  C   UNL     1      -7.345 -45.052  31.951  1.00  0.00     0.001 A 
ATOM     21  C   UNL     1      -8.180 -43.079  33.060  1.00  0.00     0.001 A 
ATOM     22  C   UNL     1      -7.109 -43.884  32.671  1.00  0.00     0.000 A 
ENDBRANCH  16  17
ENDBRANCH  11  16
ENDBRANCH   8   9
ENDBRANCH   7   8
ENDBRANCH   1   7
BRANCH   5  23
ATOM     23  N   UNL     1     -18.450 -42.364  25.280  1.00  0.00    -0.320 N 
ATOM     24  C   UNL     1     -19.080 -42.261  26.507  1.00  0.00     0.255 C 
ATOM     25  H   UNL     1     -19.016 -42.215  24.453  1.00  0.00     0.170 HD
ATOM     26  O   UNL     1     -18.538 -42.268  27.604  1.00  0.00    -0.269 OA
BRANCH  24  27
ATOM     27  C   UNL     1     -20.556 -42.104  26.445  1.00  0.00     0.045 A 
ATOM     28  C   UNL     1     -21.368 -43.129  25.958  1.00  0.00     0.034 A 
ATOM     29  C   UNL     1     -21.125 -40.926  26.931  1.00  0.00     0.061 A 
ATOM     30  C   UNL     1     -22.731 -42.912  25.962  1.00  0.00     0.114 A 
ATOM     31  C   UNL     1     -22.503 -40.799  26.888  1.00  0.00     0.133 A 
ATOM     32  N   UNL     1     -23.305 -41.773  26.403  1.00  0.00    -0.239 NA
BRANCH  31  33
ATOM     33  N   UNL     1     -23.209 -39.682  27.334  1.00  0.00    -0.310 N 
ATOM     34  C   UNL     1     -24.029 -39.576  28.426  1.00  0.00     0.228 C 
ATOM     35  H   UNL     1     -23.064 -38.876  26.745  1.00  0.00     0.171 HD
ATOM     36  O   UNL     1     -24.269 -40.456  29.240  1.00  0.00    -0.274 OA
BRANCH  34  37
ATOM     37  C   UNL     1     -24.678 -38.242  28.623  1.00  0.00     0.079 C 
ATOM     38  C   UNL     1     -23.997 -37.110  29.358  1.00  0.00     0.014 C 
ATOM     39  C   UNL     1     -25.202 -37.773  29.961  1.00  0.00     0.014 C 
ENDBRANCH  34  37
ENDBRANCH  31  33
ENDBRANCH  24  27
ENDBRANCH   5  23
TORSDOF 9
ENDMDL
MODEL 5
REMARK VINA RESULT:   -11.465      2.741      3.422
REMARK INTER + INTRA:         -17.816
REMARK INTER:                 -17.063
REMARK INTRA:                  -0.752
REMARK UNBOUND:                -0.318
REMARK SMILES O=C(Nc1cncc(OC[C@H]2CC[N@@H+](Cc3ccccc3)CC2)c1)c1ccnc(NC(=O)C2CC2)c1
REMARK SMILES IDX 8 1 7 2 24 3 6 4 4 5 5 6 9 7 10 8 11 9 13 10 14 11 12 12
REMARK SMILES IDX 22 13 23 14 15 16 16 17 17 18 21 19 18 20 20 21 19 22 3 23
REMARK SMILES IDX 2 24 1 26 25 27 26 28 36 29 27 30 29 31 28 32 30 33 31 34
REMARK SMILES IDX 32 36 33 37 34 38 35 39
REMARK H PARENT 14 15 3 25 30 35
ROOT
ATOM      1  C   UNL     1     -14.976 -42.961  25.947  1.00  0.00     0.139 A 
ATOM      2  C   UNL     1     -14.300 -43.210  24.762  1.00  0.00     0.157 A 
ATOM      3  C   UNL     1     -16.359 -42.795  25.895  1.00  0.00     0.075 A 
ATOM      4  N   UNL     1     -14.898 -43.254  23.556  1.00  0.00    -0.259 NA
ATOM      5  C   UNL     1     -17.022 -42.840  24.664  1.00  0.00     0.063 A 
ATOM      6  C   UNL     1     -16.244 -43.071  23.530  1.00  0.00     0.137 A 
ENDROOT
BRANCH   1   7
ATOM      7  O   UNL     1     -14.374 -42.930  27.174  1.00  0.00    -0.492 OA
BRANCH   7   8
ATOM      8  C   UNL     1     -14.251 -44.219  27.783  1.00  0.00     0.233 C 
BRANCH   8   9
ATOM      9  C   UNL     1     -12.860 -44.829  27.508  1.00  0.00     0.038 C 
ATOM     10  C   UNL     1     -11.585 -43.921  29.529  1.00  0.00     0.262 C 
ATOM     11  N   UNL     1     -11.403 -45.341  29.999  1.00  0.00    -0.331 N 
ATOM     12  C   UNL     1     -11.737 -43.906  28.010  1.00  0.00     0.069 C 
ATOM     13  C   UNL     1     -12.564 -46.225  29.613  1.00  0.00     0.262 C 
ATOM     14  C   UNL     1     -12.687 -46.239  28.097  1.00  0.00     0.069 C 
ATOM     15  H   UNL     1     -10.580 -45.707  29.504  1.00  0.00     0.348 HD
BRANCH  11  16
ATOM     16  C   UNL     1     -11.024 -45.448  31.466  1.00  0.00     0.299 C 
BRANCH  16  17
ATOM     17  C   UNL     1      -9.679 -44.884  31.839  1.00  0.00     0.006 A 
ATOM     18  C   UNL     1      -8.503 -45.568  31.486  1.00  0.00     0.009 A 
ATOM     19  C   UNL     1      -9.570 -43.671  32.538  1.00  0.00     0.009 A 
ATOM     20  C   UNL     1      -7.251 -45.061  31.840  1.00  0.00     0.001 A 
ATOM     21  C   UNL     1      -8.315 -43.166  32.889  1.00  0.00     0.001 A 
ATOM     22  C   UNL     1      -7.157 -43.862  32.542  1.00  0.00     0.000 A 
ENDBRANCH  16  17
ENDBRANCH  11  16
ENDBRANCH   8   9
ENDBRANCH   7   8
ENDBRANCH   1   7
BRANCH   5  23
ATOM     23  N   UNL     1     -18.420 -42.633  24.658  1.00  0.00    -0.320 N 
ATOM     24  C   UNL     1     -19.121 -41.835  23.771  1.00  0.00     0.255 C 
ATOM     25  H   UNL     1     -18.960 -43.170  25.326  1.00  0.00     0.170 HD
ATOM     26  O   UNL     1     -18.655 -41.232  22.813  1.00  0.00    -0.269 OA
BRANCH  24  27
ATOM     27  C   UNL     1     -20.582 -41.744  24.026  1.00  0.00     0.045 A 
ATOM     28  C   UNL     1     -21.475 -42.618  23.409  1.00  0.00     0.034 A 
ATOM     29  C   UNL     1     -21.044 -40.793  24.938  1.00  0.00     0.061 A 
ATOM     30  C   UNL     1     -22.812 -42.483  23.722  1.00  0.00     0.114 A 
ATOM     31  C   UNL     1     -22.405 -40.730  25.183  1.00  0.00     0.133 A 
ATOM     32  N   UNL     1     -23.288 -41.557  24.581  1.00  0.00    -0.239 NA
BRANCH  31  33
ATOM     33  N   UNL     1     -23.010 -39.833  26.064  1.00  0.00    -0.310 N 
ATOM     34  C   UNL     1     -23.403 -40.048  27.358  1.00  0.00     0.228 C 
ATOM     35  H   UNL     1     -23.153 -38.925  25.648  1.00  0.00     0.171 HD
ATOM     36  O   UNL     1     -23.263 -41.081  27.996  1.00  0.00    -0.274 OA
BRANCH  34  37
ATOM     37  C   UNL     1     -24.061 -38.888  28.037  1.00  0.00     0.079 C 
ATOM     38  C   UNL     1     -25.561 -38.699  28.047  1.00  0.00     0.014 C 
ATOM     39  C   UNL     1     -24.693 -37.743  27.280  1.00  0.00     0.014 C 
ENDBRANCH  34  37
ENDBRANCH  31  33
ENDBRANCH  24  27
ENDBRANCH   5  23
TORSDOF 9
ENDMDL
MODEL 6
REMARK VINA RESULT:   -11.224      5.314     12.410
REMARK INTER + INTRA:         -17.447
REMARK INTER:                 -16.384
REMARK INTRA:                  -1.063
REMARK UNBOUND:                -0.318
REMARK SMILES O=C(Nc1cncc(OC[C@H]2CC[N@@H+](Cc3ccccc3)CC2)c1)c1ccnc(NC(=O)C2CC2)c1
REMARK SMILES IDX 8 1 7 2 24 3 6 4 4 5 5 6 9 7 10 8 11 9 13 10 14 11 12 12
REMARK SMILES IDX 22 13 23 14 15 16 16 17 17 18 21 19 18 20 20 21 19 22 3 23
REMARK SMILES IDX 2 24 1 26 25 27 26 28 36 29 27 30 29 31 28 32 30 33 31 34
REMARK SMILES IDX 32 36 33 37 34 38 35 39
REMARK H PARENT 14 15 3 25 30 35
ROOT
ATOM      1  C   UNL     1     -17.623 -42.255  23.644  1.00  0.00     0.139 A 
ATOM      2  C   UNL     1     -16.862 -41.542  22.730  1.00  0.00     0.157 A 
ATOM      3  C   UNL     1     -16.977 -42.812  24.746  1.00  0.00     0.075 A 
ATOM      4  N   UNL     1     -15.526 -41.396  22.822  1.00  0.00    -0.259 NA
ATOM      5  C   UNL     1     -15.591 -42.680  24.886  1.00  0.00     0.063 A 
ATOM      6  C   UNL     1     -14.918 -41.964  23.896  1.00  0.00     0.137 A 
ENDROOT
BRANCH   1   7
ATOM      7  O   UNL     1     -18.980 -42.393  23.561  1.00  0.00    -0.492 OA
BRANCH   7   8
ATOM      8  C   UNL     1     -19.534 -41.861  22.354  1.00  0.00     0.233 C 
BRANCH   8   9
ATOM      9  C   UNL     1     -20.592 -40.779  22.661  1.00  0.00     0.038 C 
ATOM     10  C   UNL     1     -20.102 -39.147  20.754  1.00  0.00     0.262 C 
ATOM     11  N   UNL     1     -21.482 -39.427  20.217  1.00  0.00    -0.331 N 
ATOM     12  C   UNL     1     -20.090 -39.381  22.264  1.00  0.00     0.069 C 
ATOM     13  C   UNL     1     -21.930 -40.841  20.499  1.00  0.00     0.262 C 
ATOM     14  C   UNL     1     -21.955 -41.057  22.004  1.00  0.00     0.069 C 
ATOM     15  H   UNL     1     -22.124 -38.810  20.730  1.00  0.00     0.348 HD
BRANCH  11  16
ATOM     16  C   UNL     1     -21.660 -39.015  18.766  1.00  0.00     0.299 C 
BRANCH  16  17
ATOM     17  C   UNL     1     -22.541 -37.818  18.528  1.00  0.00     0.006 A 
ATOM     18  C   UNL     1     -22.960 -37.022  19.608  1.00  0.00     0.009 A 
ATOM     19  C   UNL     1     -22.959 -37.472  17.233  1.00  0.00     0.009 A 
ATOM     20  C   UNL     1     -23.789 -35.918  19.399  1.00  0.00     0.001 A 
ATOM     21  C   UNL     1     -23.787 -36.365  17.028  1.00  0.00     0.001 A 
ATOM     22  C   UNL     1     -24.204 -35.591  18.111  1.00  0.00     0.000 A 
ENDBRANCH  16  17
ENDBRANCH  11  16
ENDBRANCH   8   9
ENDBRANCH   7   8
ENDBRANCH   1   7
BRANCH   5  23
ATOM     23  N   UNL     1     -14.977 -43.291  26.002  1.00  0.00    -0.320 N 
ATOM     24  C   UNL     1     -14.355 -44.526  26.015  1.00  0.00     0.255 C 
ATOM     25  H   UNL     1     -14.937 -42.742  26.853  1.00  0.00     0.170 HD
ATOM     26  O   UNL     1     -14.178 -45.260  25.050  1.00  0.00    -0.269 OA
BRANCH  24  27
ATOM     27  C   UNL     1     -13.844 -44.961  27.340  1.00  0.00     0.045 A 
ATOM     28  C   UNL     1     -12.814 -45.896  27.442  1.00  0.00     0.034 A 
ATOM     29  C   UNL     1     -14.381 -44.376  28.489  1.00  0.00     0.061 A 
ATOM     30  C   UNL     1     -12.380 -46.223  28.711  1.00  0.00     0.114 A 
ATOM     31  C   UNL     1     -13.883 -44.773  29.718  1.00  0.00     0.133 A 
ATOM     32  N   UNL     1     -12.898 -45.692  29.838  1.00  0.00    -0.239 NA
BRANCH  31  33
ATOM     33  N   UNL     1     -14.322 -44.281  30.946  1.00  0.00    -0.310 N 
ATOM     34  C   UNL     1     -13.639 -43.503  31.843  1.00  0.00     0.228 C 
ATOM     35  H   UNL     1     -15.270 -44.558  31.154  1.00  0.00     0.171 HD
ATOM     36  O   UNL     1     -12.505 -43.068  31.708  1.00  0.00    -0.274 OA
BRANCH  34  37
ATOM     37  C   UNL     1     -14.376 -43.162  33.100  1.00  0.00     0.079 C 
ATOM     38  C   UNL     1     -15.169 -41.884  33.253  1.00  0.00     0.014 C 
ATOM     39  C   UNL     1     -13.915 -42.086  34.056  1.00  0.00     0.014 C 
ENDBRANCH  34  37
ENDBRANCH  31  33
ENDBRANCH  24  27
ENDBRANCH   5  23
TORSDOF 9
ENDMDL
MODEL 7
REMARK VINA RESULT:   -10.916      2.950     10.717
REMARK INTER + INTRA:         -16.977
REMARK INTER:                 -16.156
REMARK INTRA:                  -0.820
REMARK UNBOUND:                -0.318
REMARK SMILES O=C(Nc1cncc(OC[C@H]2CC[N@@H+](Cc3ccccc3)CC2)c1)c1ccnc(NC(=O)C2CC2)c1
REMARK SMILES IDX 8 1 7 2 24 3 6 4 4 5 5 6 9 7 10 8 11 9 13 10 14 11 12 12
REMARK SMILES IDX 22 13 23 14 15 16 16 17 17 18 21 19 18 20 20 21 19 22 3 23
REMARK SMILES IDX 2 24 1 26 25 27 26 28 36 29 27 30 29 31 28 32 30 33 31 34
REMARK SMILES IDX 32 36 33 37 34 38 35 39
REMARK H PARENT 14 15 3 25 30 35
ROOT
ATOM      1  C   UNL     1     -17.666 -42.229  24.286  1.00  0.00     0.139 A 
ATOM      2  C   UNL     1     -16.976 -41.879  23.135  1.00  0.00     0.157 A 
ATOM      3  C   UNL     1     -16.941 -42.754  25.354  1.00  0.00     0.075 A 
ATOM      4  N   UNL     1     -15.651 -42.062  22.973  1.00  0.00    -0.259 NA
ATOM      5  C   UNL     1     -15.562 -42.954  25.233  1.00  0.00     0.063 A 
ATOM      6  C   UNL     1     -14.971 -42.592  24.023  1.00  0.00     0.137 A 
ENDROOT
BRANCH   1   7
ATOM      7  O   UNL     1     -19.007 -42.032  24.458  1.00  0.00    -0.492 OA
BRANCH   7   8
ATOM      8  C   UNL     1     -19.694 -43.183  24.961  1.00  0.00     0.233 C 
BRANCH   8   9
ATOM      9  C   UNL     1     -20.045 -43.008  26.453  1.00  0.00     0.038 C 
ATOM     10  C   UNL     1     -21.430 -40.863  26.320  1.00  0.00     0.262 C 
ATOM     11  N   UNL     1     -22.622 -41.653  26.796  1.00  0.00    -0.331 N 
ATOM     12  C   UNL     1     -20.150 -41.521  26.831  1.00  0.00     0.069 C 
ATOM     13  C   UNL     1     -22.584 -43.087  26.324  1.00  0.00     0.262 C 
ATOM     14  C   UNL     1     -21.328 -43.750  26.868  1.00  0.00     0.069 C 
ATOM     15  H   UNL     1     -22.560 -41.683  27.821  1.00  0.00     0.348 HD
BRANCH  11  16
ATOM     16  C   UNL     1     -23.949 -40.964  26.529  1.00  0.00     0.299 C 
BRANCH  16  17
ATOM     17  C   UNL     1     -24.129 -39.616  27.173  1.00  0.00     0.006 A 
ATOM     18  C   UNL     1     -24.107 -38.449  26.388  1.00  0.00     0.009 A 
ATOM     19  C   UNL     1     -24.323 -39.493  28.557  1.00  0.00     0.009 A 
ATOM     20  C   UNL     1     -24.258 -37.192  26.977  1.00  0.00     0.001 A 
ATOM     21  C   UNL     1     -24.476 -38.233  29.143  1.00  0.00     0.001 A 
ATOM     22  C   UNL     1     -24.440 -37.084  28.354  1.00  0.00     0.000 A 
ENDBRANCH  16  17
ENDBRANCH  11  16
ENDBRANCH   8   9
ENDBRANCH   7   8
ENDBRANCH   1   7
BRANCH   5  23
ATOM     23  N   UNL     1     -14.877 -43.521  26.331  1.00  0.00    -0.320 N 
ATOM     24  C   UNL     1     -14.189 -44.721  26.331  1.00  0.00     0.255 C 
ATOM     25  H   UNL     1     -14.835 -42.962  27.175  1.00  0.00     0.170 HD
ATOM     26  O   UNL     1     -14.008 -45.454  25.367  1.00  0.00    -0.269 OA
BRANCH  24  27
ATOM     27  C   UNL     1     -13.608 -45.114  27.640  1.00  0.00     0.045 A 
ATOM     28  C   UNL     1     -12.519 -45.983  27.712  1.00  0.00     0.034 A 
ATOM     29  C   UNL     1     -14.142 -44.557  28.804  1.00  0.00     0.061 A 
ATOM     30  C   UNL     1     -12.023 -46.274  28.966  1.00  0.00     0.114 A 
ATOM     31  C   UNL     1     -13.580 -44.915  30.017  1.00  0.00     0.133 A 
ATOM     32  N   UNL     1     -12.536 -45.770  30.108  1.00  0.00    -0.239 NA
BRANCH  31  33
ATOM     33  N   UNL     1     -14.008 -44.443  31.257  1.00  0.00    -0.310 N 
ATOM     34  C   UNL     1     -13.465 -43.442  32.019  1.00  0.00     0.228 C 
ATOM     35  H   UNL     1     -14.825 -44.931  31.592  1.00  0.00     0.171 HD
ATOM     36  O   UNL     1     -12.503 -42.749  31.725  1.00  0.00    -0.274 OA
BRANCH  34  37
ATOM     37  C   UNL     1     -14.137 -43.189  33.333  1.00  0.00     0.079 C 
ATOM     38  C   UNL     1     -15.103 -42.046  33.541  1.00  0.00     0.014 C 
ATOM     39  C   UNL     1     -13.770 -42.033  34.233  1.00  0.00     0.014 C 
ENDBRANCH  34  37
ENDBRANCH  31  33
ENDBRANCH  24  27
ENDBRANCH   5  23
TORSDOF 9
ENDMDL
MODEL 8
REMARK VINA RESULT:   -10.865      3.469     10.656
REMARK INTER + INTRA:         -16.900
REMARK INTER:                 -16.428
REMARK INTRA:                  -0.472
REMARK UNBOUND:                -0.318
REMARK SMILES O=C(Nc1cncc(OC[C@H]2CC[N@@H+](Cc3ccccc3)CC2)c1)c1ccnc(NC(=O)C2CC2)c1
REMARK SMILES IDX 8 1 7 2 24 3 6 4 4 5 5 6 9 7 10 8 11 9 13 10 14 11 12 12
REMARK SMILES IDX 22 13 23 14 15 16 16 17 17 18 21 19 18 20 20 21 19 22 3 23
REMARK SMILES IDX 2 24 1 26 25 27 26 28 36 29 27 30 29 31 28 32 30 33 31 34
REMARK SMILES IDX 32 36 33 37 34 38 35 39
REMARK H PARENT 14 15 3 25 30 35
ROOT
ATOM      1  C   UNL     1     -16.807 -42.772  24.779  1.00  0.00     0.139 A 
ATOM      2  C   UNL     1     -16.126 -43.045  23.602  1.00  0.00     0.157 A 
ATOM      3  C   UNL     1     -16.193 -43.096  25.987  1.00  0.00     0.075 A 
ATOM      4  N   UNL     1     -14.922 -43.649  23.559  1.00  0.00    -0.259 NA
ATOM      5  C   UNL     1     -14.940 -43.718  25.990  1.00  0.00     0.063 A 
ATOM      6  C   UNL     1     -14.353 -43.971  24.751  1.00  0.00     0.137 A 
ENDROOT
BRANCH   1   7
ATOM      7  O   UNL     1     -18.022 -42.147  24.825  1.00  0.00    -0.492 OA
BRANCH   7   8
ATOM      8  C   UNL     1     -18.546 -42.016  26.150  1.00  0.00     0.233 C 
BRANCH   8   9
ATOM      9  C   UNL     1     -19.893 -42.757  26.288  1.00  0.00     0.038 C 
ATOM     10  C   UNL     1     -21.486 -40.885  25.581  1.00  0.00     0.262 C 
ATOM     11  N   UNL     1     -21.880 -41.727  24.395  1.00  0.00    -0.331 N 
ATOM     12  C   UNL     1     -21.016 -41.796  26.713  1.00  0.00     0.069 C 
ATOM     13  C   UNL     1     -20.741 -42.584  23.896  1.00  0.00     0.262 C 
ATOM     14  C   UNL     1     -20.303 -43.516  25.015  1.00  0.00     0.069 C 
ATOM     15  H   UNL     1     -22.607 -42.373  24.726  1.00  0.00     0.348 HD
BRANCH  11  16
ATOM     16  C   UNL     1     -22.567 -40.937  23.294  1.00  0.00     0.299 C 
BRANCH  16  17
ATOM     17  C   UNL     1     -21.691 -40.516  22.145  1.00  0.00     0.006 A 
ATOM     18  C   UNL     1     -20.796 -39.441  22.295  1.00  0.00     0.009 A 
ATOM     19  C   UNL     1     -21.746 -41.181  20.910  1.00  0.00     0.009 A 
ATOM     20  C   UNL     1     -19.990 -39.034  21.230  1.00  0.00     0.001 A 
ATOM     21  C   UNL     1     -20.935 -40.771  19.848  1.00  0.00     0.001 A 
ATOM     22  C   UNL     1     -20.061 -39.696  20.007  1.00  0.00     0.000 A 
ENDBRANCH  16  17
ENDBRANCH  11  16
ENDBRANCH   8   9
ENDBRANCH   7   8
ENDBRANCH   1   7
BRANCH   5  23
ATOM     23  N   UNL     1     -14.373 -44.058  27.239  1.00  0.00    -0.320 N 
ATOM     24  C   UNL     1     -13.603 -45.175  27.507  1.00  0.00     0.255 C 
ATOM     25  H   UNL     1     -14.493 -43.385  27.987  1.00  0.00     0.170 HD
ATOM     26  O   UNL     1     -13.234 -46.014  26.695  1.00  0.00    -0.269 OA
BRANCH  24  27
ATOM     27  C   UNL     1     -13.181 -45.324  28.923  1.00  0.00     0.045 A 
ATOM     28  C   UNL     1     -12.080 -46.108  29.267  1.00  0.00     0.034 A 
ATOM     29  C   UNL     1     -13.881 -44.623  29.907  1.00  0.00     0.061 A 
ATOM     30  C   UNL     1     -11.740 -46.170  30.603  1.00  0.00     0.114 A 
ATOM     31  C   UNL     1     -13.468 -44.753  31.222  1.00  0.00     0.133 A 
ATOM     32  N   UNL     1     -12.414 -45.523  31.577  1.00  0.00    -0.239 NA
BRANCH  31  33
ATOM     33  N   UNL     1     -14.069 -44.118  32.307  1.00  0.00    -0.310 N 
ATOM     34  C   UNL     1     -13.813 -42.870  32.810  1.00  0.00     0.228 C 
ATOM     35  H   UNL     1     -14.777 -44.690  32.743  1.00  0.00     0.171 HD
ATOM     36  O   UNL     1     -13.012 -42.061  32.366  1.00  0.00    -0.274 OA
BRANCH  34  37
ATOM     37  C   UNL     1     -14.607 -42.480  34.017  1.00  0.00     0.079 C 
ATOM     38  C   UNL     1     -15.605 -41.345  33.999  1.00  0.00     0.014 C 
ATOM     39  C   UNL     1     -14.343 -41.217  34.802  1.00  0.00     0.014 C 
ENDBRANCH  34  37
ENDBRANCH  31  33
ENDBRANCH  24  27
ENDBRANCH   5  23
TORSDOF 9
ENDMDL
MODEL 9
REMARK VINA RESULT:   -10.634      2.999     11.700
REMARK INTER + INTRA:         -16.547
REMARK INTER:                 -15.867
REMARK INTRA:                  -0.680
REMARK UNBOUND:                -0.318
REMARK SMILES O=C(Nc1cncc(OC[C@H]2CC[N@@H+](Cc3ccccc3)CC2)c1)c1ccnc(NC(=O)C2CC2)c1
REMARK SMILES IDX 8 1 7 2 24 3 6 4 4 5 5 6 9 7 10 8 11 9 13 10 14 11 12 12
REMARK SMILES IDX 22 13 23 14 15 16 16 17 17 18 21 19 18 20 20 21 19 22 3 23
REMARK SMILES IDX 2 24 1 26 25 27 26 28 36 29 27 30 29 31 28 32 30 33 31 34
REMARK SMILES IDX 32 36 33 37 34 38 35 39
REMARK H PARENT 14 15 3 25 30 35
ROOT
ATOM      1  C   UNL     1     -16.602 -42.783  25.056  1.00  0.00     0.139 A 
ATOM      2  C   UNL     1     -15.884 -42.331  23.958  1.00  0.00     0.157 A 
ATOM      3  C   UNL     1     -15.892 -43.211  26.176  1.00  0.00     0.075 A 
ATOM      4  N   UNL     1     -14.539 -42.325  23.896  1.00  0.00    -0.259 NA
ATOM      5  C   UNL     1     -14.493 -43.216  26.158  1.00  0.00     0.063 A 
ATOM      6  C   UNL     1     -13.871 -42.765  24.995  1.00  0.00     0.137 A 
ENDROOT
BRANCH   1   7
ATOM      7  O   UNL     1     -17.966 -42.776  25.127  1.00  0.00    -0.492 OA
BRANCH   7   8
ATOM      8  C   UNL     1     -18.476 -42.061  26.257  1.00  0.00     0.233 C 
BRANCH   8   9
ATOM      9  C   UNL     1     -19.875 -42.580  26.654  1.00  0.00     0.038 C 
ATOM     10  C   UNL     1     -21.325 -40.773  25.572  1.00  0.00     0.262 C 
ATOM     11  N   UNL     1     -21.898 -41.834  24.669  1.00  0.00    -0.331 N 
ATOM     12  C   UNL     1     -20.857 -41.417  26.876  1.00  0.00     0.069 C 
ATOM     13  C   UNL     1     -20.895 -42.916  24.349  1.00  0.00     0.262 C 
ATOM     14  C   UNL     1     -20.462 -43.582  25.646  1.00  0.00     0.069 C 
ATOM     15  H   UNL     1     -22.656 -42.285  25.195  1.00  0.00     0.348 HD
BRANCH  11  16
ATOM     16  C   UNL     1     -22.591 -41.271  23.440  1.00  0.00     0.299 C 
BRANCH  16  17
ATOM     17  C   UNL     1     -21.684 -40.770  22.348  1.00  0.00     0.006 A 
ATOM     18  C   UNL     1     -21.438 -41.563  21.213  1.00  0.00     0.009 A 
ATOM     19  C   UNL     1     -21.071 -39.510  22.436  1.00  0.00     0.009 A 
ATOM     20  C   UNL     1     -20.586 -41.113  20.202  1.00  0.00     0.001 A 
ATOM     21  C   UNL     1     -20.221 -39.063  21.420  1.00  0.00     0.001 A 
ATOM     22  C   UNL     1     -19.977 -39.865  20.306  1.00  0.00     0.000 A 
ENDBRANCH  16  17
ENDBRANCH  11  16
ENDBRANCH   8   9
ENDBRANCH   7   8
ENDBRANCH   1   7
BRANCH   5  23
ATOM     23  N   UNL     1     -13.818 -43.691  27.305  1.00  0.00    -0.320 N 
ATOM     24  C   UNL     1     -13.352 -44.978  27.501  1.00  0.00     0.255 C 
ATOM     25  H   UNL     1     -13.604 -43.005  28.020  1.00  0.00     0.170 HD
ATOM     26  O   UNL     1     -13.390 -45.895  26.691  1.00  0.00    -0.269 OA
BRANCH  24  27
ATOM     27  C   UNL     1     -12.730 -45.228  28.827  1.00  0.00     0.045 A 
ATOM     28  C   UNL     1     -13.418 -45.917  29.826  1.00  0.00     0.034 A 
ATOM     29  C   UNL     1     -11.418 -44.801  29.043  1.00  0.00     0.061 A 
ATOM     30  C   UNL     1     -12.757 -46.130  31.018  1.00  0.00     0.114 A 
ATOM     31  C   UNL     1     -10.842 -45.056  30.274  1.00  0.00     0.133 A 
ATOM     32  N   UNL     1     -11.499 -45.707  31.261  1.00  0.00    -0.239 NA
BRANCH  31  33
ATOM     33  N   UNL     1      -9.545 -44.688  30.633  1.00  0.00    -0.310 N 
ATOM     34  C   UNL     1      -9.150 -43.820  31.617  1.00  0.00     0.228 C 
ATOM     35  H   UNL     1      -8.846 -45.147  30.068  1.00  0.00     0.171 HD
ATOM     36  O   UNL     1      -9.881 -43.223  32.392  1.00  0.00    -0.274 OA
BRANCH  34  37
ATOM     37  C   UNL     1      -7.674 -43.604  31.736  1.00  0.00     0.079 C 
ATOM     38  C   UNL     1      -6.776 -44.545  32.507  1.00  0.00     0.014 C 
ATOM     39  C   UNL     1      -7.011 -43.151  33.016  1.00  0.00     0.014 C 
ENDBRANCH  34  37
ENDBRANCH  31  33
ENDBRANCH  24  27
ENDBRANCH   5  23
TORSDOF 9
ENDMDL
