MODEL 1
REMARK VINA RESULT:   -11.161      0.000      0.000
REMARK INTER + INTRA:         -15.841
REMARK INTER:                 -15.076
REMARK INTRA:                  -0.765
REMARK UNBOUND:                -0.765
REMARK SMILES O=C(NCCCNc1c2c(nc3ccccc13)CCCC2)c1ccc(F)cc1
REMARK SMILES IDX 4 1 3 2 2 3 1 4 22 6 23 7 28 8 24 9 27 10 25 11 26 12 5 13
REMARK SMILES IDX 6 14 7 15 8 17 9 18 17 19 10 20 21 21 16 22 12 23 11 24
REMARK SMILES IDX 18 25 20 26 15 27 13 28 19 29 14 30
REMARK H PARENT 3 5 7 16
ROOT
ATOM      1  C   UNL     1     -13.045 -46.060  28.124  1.00  0.00     0.118 C 
ENDROOT
BRANCH   1   2
ATOM      2  N   UNL     1     -13.570 -45.308  27.012  1.00  0.00    -0.352 N 
ATOM      3  C   UNL     1     -14.480 -44.231  27.126  1.00  0.00     0.251 C 
ATOM      4  O   UNL     1     -14.852 -43.915  28.305  1.00  0.00    -0.269 OA
ATOM      5  H   UNL     1     -13.269 -45.560  26.034  1.00  0.00     0.163 HD
BRANCH   3   6
ATOM      6  C   UNL     1     -15.005 -43.482  25.997  1.00  0.00     0.040 A 
ATOM      7  C   UNL     1     -14.240 -43.044  24.941  1.00  0.00     0.017 A 
ATOM      8  C   UNL     1     -16.357 -43.170  25.950  1.00  0.00     0.017 A 
ATOM      9  C   UNL     1     -14.773 -42.326  23.873  1.00  0.00     0.040 A 
ATOM     10  C   UNL     1     -16.926 -42.463  24.915  1.00  0.00     0.040 A 
ATOM     11  C   UNL     1     -16.129 -42.048  23.886  1.00  0.00     0.123 A 
ATOM     12  F   UNL     1     -16.690 -41.352  22.865  1.00  0.00    -0.207 F 
ENDBRANCH   3   6
ENDBRANCH   1   2
BRANCH   1  13
ATOM     13  C   UNL     1     -11.554 -46.140  28.032  1.00  0.00     0.042 C 
BRANCH  13  14
ATOM     14  C   UNL     1     -10.865 -45.093  28.914  1.00  0.00     0.115 C 
BRANCH  14  15
ATOM     15  N   UNL     1     -11.052 -45.518  30.287  1.00  0.00    -0.384 N 
ATOM     16  H   UNL     1     -11.132 -46.506  30.591  1.00  0.00     0.160 HD
BRANCH  15  17
ATOM     17  C   UNL     1     -11.130 -44.481  31.268  1.00  0.00     0.049 A 
ATOM     18  C   UNL     1     -12.307 -43.916  31.545  1.00  0.00    -0.003 A 
ATOM     19  C   UNL     1      -9.997 -44.047  31.953  1.00  0.00     0.024 A 
ATOM     20  C   UNL     1     -12.350 -42.834  32.585  1.00  0.00     0.046 A 
ATOM     21  C   UNL     1     -13.701 -44.751  31.430  1.00  0.00     0.039 C 
ATOM     22  C   UNL     1      -8.785 -44.639  31.657  1.00  0.00     0.012 A 
ATOM     23  C   UNL     1     -10.045 -43.050  32.912  1.00  0.00     0.073 A 
ATOM     24  N   UNL     1     -11.262 -42.480  33.185  1.00  0.00    -0.252 NA
ATOM     25  C   UNL     1     -13.722 -42.424  32.565  1.00  0.00     0.056 C 
ATOM     26  C   UNL     1     -13.881 -44.841  32.948  1.00  0.00     0.005 C 
ATOM     27  C   UNL     1      -7.648 -44.222  32.327  1.00  0.00     0.001 A 
ATOM     28  C   UNL     1      -8.937 -42.609  33.600  1.00  0.00     0.029 A 
ATOM     29  C   UNL     1     -14.580 -43.426  33.304  1.00  0.00     0.007 C 
ATOM     30  C   UNL     1      -7.728 -43.216  33.289  1.00  0.00     0.002 A 
ENDBRANCH  15  17
ENDBRANCH  14  15
ENDBRANCH  13  14
ENDBRANCH   1  13
TORSDOF 6
ENDMDL
MODEL 2
REMARK VINA RESULT:   -11.091      1.276      1.732
REMARK INTER + INTRA:         -15.746
REMARK INTER:                 -14.872
REMARK INTRA:                  -0.874
REMARK UNBOUND:                -0.765
REMARK SMILES O=C(NCCCNc1c2c(nc3ccccc13)CCCC2)c1ccc(F)cc1
REMARK SMILES IDX 4 1 3 2 2 3 1 4 22 6 23 7 28 8 24 9 27 10 25 11 26 12 5 13
REMARK SMILES IDX 6 14 7 15 8 17 9 18 17 19 10 20 21 21 16 22 12 23 11 24
REMARK SMILES IDX 18 25 20 26 15 27 13 28 19 29 14 30
REMARK H PARENT 3 5 7 16
ROOT
ATOM      1  C   UNL     1     -12.064 -45.309  27.709  1.00  0.00     0.118 C 
ENDROOT
BRANCH   1   2
ATOM      2  N   UNL     1     -13.378 -44.923  27.260  1.00  0.00    -0.352 N 
ATOM      3  C   UNL     1     -13.750 -43.609  26.894  1.00  0.00     0.251 C 
ATOM      4  O   UNL     1     -12.845 -42.712  26.973  1.00  0.00    -0.269 OA
ATOM      5  H   UNL     1     -14.132 -45.655  27.192  1.00  0.00     0.163 HD
BRANCH   3   6
ATOM      6  C   UNL     1     -15.079 -43.231  26.445  1.00  0.00     0.040 A 
ATOM      7  C   UNL     1     -16.104 -42.872  27.289  1.00  0.00     0.017 A 
ATOM      8  C   UNL     1     -15.367 -43.220  25.087  1.00  0.00     0.017 A 
ATOM      9  C   UNL     1     -17.368 -42.514  26.828  1.00  0.00     0.040 A 
ATOM     10  C   UNL     1     -16.602 -42.874  24.586  1.00  0.00     0.040 A 
ATOM     11  C   UNL     1     -17.591 -42.524  25.461  1.00  0.00     0.123 A 
ATOM     12  F   UNL     1     -18.808 -42.182  24.968  1.00  0.00    -0.207 F 
ENDBRANCH   3   6
ENDBRANCH   1   2
BRANCH   1  13
ATOM     13  C   UNL     1     -12.166 -46.424  28.700  1.00  0.00     0.042 C 
BRANCH  13  14
ATOM     14  C   UNL     1     -13.241 -46.158  29.759  1.00  0.00     0.115 C 
BRANCH  14  15
ATOM     15  N   UNL     1     -12.591 -46.275  31.049  1.00  0.00    -0.384 N 
ATOM     16  H   UNL     1     -12.478 -47.164  31.572  1.00  0.00     0.160 HD
BRANCH  15  17
ATOM     17  C   UNL     1     -12.081 -45.065  31.616  1.00  0.00     0.049 A 
ATOM     18  C   UNL     1     -12.924 -44.094  31.974  1.00  0.00    -0.003 A 
ATOM     19  C   UNL     1     -10.715 -44.878  31.813  1.00  0.00     0.024 A 
ATOM     20  C   UNL     1     -12.352 -42.841  32.570  1.00  0.00     0.046 A 
ATOM     21  C   UNL     1     -14.432 -44.422  32.494  1.00  0.00     0.039 C 
ATOM     22  C   UNL     1      -9.854 -45.891  31.438  1.00  0.00     0.012 A 
ATOM     23  C   UNL     1     -10.197 -43.720  32.365  1.00  0.00     0.073 A 
ATOM     24  N   UNL     1     -11.074 -42.731  32.727  1.00  0.00    -0.252 NA
ATOM     25  C   UNL     1     -13.509 -42.017  32.757  1.00  0.00     0.056 C 
ATOM     26  C   UNL     1     -14.106 -44.075  33.949  1.00  0.00     0.005 C 
ATOM     27  C   UNL     1      -8.493 -45.724  31.627  1.00  0.00     0.001 A 
ATOM     28  C   UNL     1      -8.850 -43.517  32.568  1.00  0.00     0.029 A 
ATOM     29  C   UNL     1     -14.283 -42.467  33.976  1.00  0.00     0.007 C 
ATOM     30  C   UNL     1      -7.999 -44.546  32.186  1.00  0.00     0.002 A 
ENDBRANCH  15  17
ENDBRANCH  14  15
ENDBRANCH  13  14
ENDBRANCH   1  13
TORSDOF 6
ENDMDL
MODEL 3
REMARK VINA RESULT:   -10.847      1.634      3.749
REMARK INTER + INTRA:         -15.417
REMARK INTER:                 -14.983
REMARK INTRA:                  -0.434
REMARK UNBOUND:                -0.765
REMARK SMILES O=C(NCCCNc1c2c(nc3ccccc13)CCCC2)c1ccc(F)cc1
REMARK SMILES IDX 4 1 3 2 2 3 1 4 22 6 23 7 28 8 24 9 27 10 25 11 26 12 5 13
REMARK SMILES IDX 6 14 7 15 8 17 9 18 17 19 10 20 21 21 16 22 12 23 11 24
REMARK SMILES IDX 18 25 20 26 15 27 13 28 19 29 14 30
REMARK H PARENT 3 5 7 16
ROOT
ATOM      1  C   UNL     1     -12.279 -44.366  27.923  1.00  0.00     0.118 C 
ENDROOT
BRANCH   1   2
ATOM      2  N   UNL     1     -13.662 -43.967  27.861  1.00  0.00    -0.352 N 
ATOM      3  C   UNL     1     -14.287 -43.404  26.724  1.00  0.00     0.251 C 
ATOM      4  O   UNL     1     -13.560 -43.245  25.687  1.00  0.00    -0.269 OA
ATOM      5  H   UNL     1     -14.271 -44.094  28.711  1.00  0.00     0.163 HD
BRANCH   3   6
ATOM      6  C   UNL     1     -15.683 -43.003  26.673  1.00  0.00     0.040 A 
ATOM      7  C   UNL     1     -16.444 -42.720  27.784  1.00  0.00     0.017 A 
ATOM      8  C   UNL     1     -16.319 -42.887  25.445  1.00  0.00     0.017 A 
ATOM      9  C   UNL     1     -17.780 -42.338  27.703  1.00  0.00     0.040 A 
ATOM     10  C   UNL     1     -17.638 -42.513  25.318  1.00  0.00     0.040 A 
ATOM     11  C   UNL     1     -18.356 -42.241  26.448  1.00  0.00     0.123 A 
ATOM     12  F   UNL     1     -19.656 -41.872  26.322  1.00  0.00    -0.207 F 
ENDBRANCH   3   6
ENDBRANCH   1   2
BRANCH   1  13
ATOM     13  C   UNL     1     -12.175 -45.798  28.343  1.00  0.00     0.042 C 
BRANCH  13  14
ATOM     14  C   UNL     1     -13.071 -46.112  29.546  1.00  0.00     0.115 C 
BRANCH  14  15
ATOM     15  N   UNL     1     -12.189 -46.466  30.640  1.00  0.00    -0.384 N 
ATOM     16  H   UNL     1     -11.975 -47.438  30.931  1.00  0.00     0.160 HD
BRANCH  15  17
ATOM     17  C   UNL     1     -11.588 -45.379  31.349  1.00  0.00     0.049 A 
ATOM     18  C   UNL     1     -10.258 -45.305  31.444  1.00  0.00    -0.003 A 
ATOM     19  C   UNL     1     -12.362 -44.384  31.941  1.00  0.00     0.024 A 
ATOM     20  C   UNL     1      -9.663 -44.148  32.192  1.00  0.00     0.046 A 
ATOM     21  C   UNL     1      -9.286 -45.880  30.272  1.00  0.00     0.039 C 
ATOM     22  C   UNL     1     -13.737 -44.473  31.834  1.00  0.00     0.012 A 
ATOM     23  C   UNL     1     -11.805 -43.319  32.626  1.00  0.00     0.073 A 
ATOM     24  N   UNL     1     -10.439 -43.256  32.717  1.00  0.00    -0.252 NA
ATOM     25  C   UNL     1      -8.259 -44.429  32.154  1.00  0.00     0.056 C 
ATOM     26  C   UNL     1      -8.891 -44.483  29.785  1.00  0.00     0.005 C 
ATOM     27  C   UNL     1     -14.523 -43.493  32.415  1.00  0.00     0.001 A 
ATOM     28  C   UNL     1     -12.554 -42.326  33.217  1.00  0.00     0.029 A 
ATOM     29  C   UNL     1      -7.692 -44.084  30.795  1.00  0.00     0.007 C 
ATOM     30  C   UNL     1     -13.933 -42.432  33.100  1.00  0.00     0.002 A 
ENDBRANCH  15  17
ENDBRANCH  14  15
ENDBRANCH  13  14
ENDBRANCH   1  13
TORSDOF 6
ENDMDL
MODEL 4
REMARK VINA RESULT:   -10.391      4.473     10.320
REMARK INTER + INTRA:         -14.801
REMARK INTER:                 -14.171
REMARK INTRA:                  -0.630
REMARK UNBOUND:                -0.765
REMARK SMILES O=C(NCCCNc1c2c(nc3ccccc13)CCCC2)c1ccc(F)cc1
REMARK SMILES IDX 4 1 3 2 2 3 1 4 22 6 23 7 28 8 24 9 27 10 25 11 26 12 5 13
REMARK SMILES IDX 6 14 7 15 8 17 9 18 17 19 10 20 21 21 16 22 12 23 11 24
REMARK SMILES IDX 18 25 20 26 15 27 13 28 19 29 14 30
REMARK H PARENT 3 5 7 16
ROOT
ATOM      1  C   UNL     1     -15.028 -41.911  24.382  1.00  0.00     0.118 C 
ENDROOT
BRANCH   1   2
ATOM      2  N   UNL     1     -14.169 -42.894  24.993  1.00  0.00    -0.352 N 
ATOM      3  C   UNL     1     -14.172 -43.220  26.369  1.00  0.00     0.251 C 
ATOM      4  O   UNL     1     -15.001 -42.591  27.108  1.00  0.00    -0.269 OA
ATOM      5  H   UNL     1     -13.482 -43.419  24.393  1.00  0.00     0.163 HD
BRANCH   3   6
ATOM      6  C   UNL     1     -13.300 -44.212  26.976  1.00  0.00     0.040 A 
ATOM      7  C   UNL     1     -13.440 -45.570  26.804  1.00  0.00     0.017 A 
ATOM      8  C   UNL     1     -12.250 -43.798  27.784  1.00  0.00     0.017 A 
ATOM      9  C   UNL     1     -12.588 -46.495  27.400  1.00  0.00     0.040 A 
ATOM     10  C   UNL     1     -11.383 -44.678  28.393  1.00  0.00     0.040 A 
ATOM     11  C   UNL     1     -11.560 -46.018  28.195  1.00  0.00     0.123 A 
ATOM     12  F   UNL     1     -10.705 -46.885  28.795  1.00  0.00    -0.207 F 
ENDBRANCH   3   6
ENDBRANCH   1   2
BRANCH   1  13
ATOM     13  C   UNL     1     -15.708 -42.496  23.185  1.00  0.00     0.042 C 
BRANCH  13  14
ATOM     14  C   UNL     1     -16.770 -41.555  22.608  1.00  0.00     0.115 C 
BRANCH  14  15
ATOM     15  N   UNL     1     -18.024 -42.281  22.627  1.00  0.00    -0.384 N 
ATOM     16  H   UNL     1     -18.160 -43.229  22.229  1.00  0.00     0.160 HD
BRANCH  15  17
ATOM     17  C   UNL     1     -19.132 -41.620  23.243  1.00  0.00     0.049 A 
ATOM     18  C   UNL     1     -19.962 -40.884  22.501  1.00  0.00    -0.003 A 
ATOM     19  C   UNL     1     -19.372 -41.732  24.611  1.00  0.00     0.024 A 
ATOM     20  C   UNL     1     -21.116 -40.209  23.182  1.00  0.00     0.046 A 
ATOM     21  C   UNL     1     -20.260 -41.247  20.942  1.00  0.00     0.039 C 
ATOM     22  C   UNL     1     -18.505 -42.497  25.368  1.00  0.00     0.012 A 
ATOM     23  C   UNL     1     -20.440 -41.109  25.231  1.00  0.00     0.073 A 
ATOM     24  N   UNL     1     -21.284 -40.356  24.456  1.00  0.00    -0.252 NA
ATOM     25  C   UNL     1     -21.730 -39.471  22.119  1.00  0.00     0.056 C 
ATOM     26  C   UNL     1     -21.674 -41.756  21.234  1.00  0.00     0.005 C 
ATOM     27  C   UNL     1     -18.728 -42.621  26.728  1.00  0.00     0.001 A 
ATOM     28  C   UNL     1     -20.694 -41.209  26.581  1.00  0.00     0.029 A 
ATOM     29  C   UNL     1     -22.545 -40.393  21.241  1.00  0.00     0.007 C 
ATOM     30  C   UNL     1     -19.813 -41.981  27.325  1.00  0.00     0.002 A 
ENDBRANCH  15  17
ENDBRANCH  14  15
ENDBRANCH  13  14
ENDBRANCH   1  13
TORSDOF 6
ENDMDL
MODEL 5
REMARK VINA RESULT:    -9.991      4.390     10.342
REMARK INTER + INTRA:         -14.261
REMARK INTER:                 -13.481
REMARK INTRA:                  -0.780
REMARK UNBOUND:                -0.765
REMARK SMILES O=C(NCCCNc1c2c(nc3ccccc13)CCCC2)c1ccc(F)cc1
REMARK SMILES IDX 4 1 3 2 2 3 1 4 22 6 23 7 28 8 24 9 27 10 25 11 26 12 5 13
REMARK SMILES IDX 6 14 7 15 8 17 9 18 17 19 10 20 21 21 16 22 12 23 11 24
REMARK SMILES IDX 18 25 20 26 15 27 13 28 19 29 14 30
REMARK H PARENT 3 5 7 16
ROOT
ATOM      1  C   UNL     1     -15.100 -42.502  24.483  1.00  0.00     0.118 C 
ENDROOT
BRANCH   1   2
ATOM      2  N   UNL     1     -14.061 -43.240  25.156  1.00  0.00    -0.352 N 
ATOM      3  C   UNL     1     -14.109 -43.644  26.510  1.00  0.00     0.251 C 
ATOM      4  O   UNL     1     -15.154 -43.325  27.170  1.00  0.00    -0.269 OA
ATOM      5  H   UNL     1     -13.194 -43.509  24.621  1.00  0.00     0.163 HD
BRANCH   3   6
ATOM      6  C   UNL     1     -13.054 -44.386  27.180  1.00  0.00     0.040 A 
ATOM      7  C   UNL     1     -12.028 -43.800  27.885  1.00  0.00     0.017 A 
ATOM      8  C   UNL     1     -13.049 -45.773  27.124  1.00  0.00     0.017 A 
ATOM      9  C   UNL     1     -11.031 -44.538  28.516  1.00  0.00     0.040 A 
ATOM     10  C   UNL     1     -12.083 -46.543  27.733  1.00  0.00     0.040 A 
ATOM     11  C   UNL     1     -11.083 -45.918  28.423  1.00  0.00     0.123 A 
ATOM     12  F   UNL     1     -10.132 -46.678  29.023  1.00  0.00    -0.207 F 
ENDBRANCH   3   6
ENDBRANCH   1   2
BRANCH   1  13
ATOM     13  C   UNL     1     -15.945 -43.430  23.669  1.00  0.00     0.042 C 
BRANCH  13  14
ATOM     14  C   UNL     1     -16.906 -42.675  22.746  1.00  0.00     0.115 C 
BRANCH  14  15
ATOM     15  N   UNL     1     -17.468 -41.591  23.527  1.00  0.00    -0.384 N 
ATOM     16  H   UNL     1     -16.918 -40.806  23.924  1.00  0.00     0.160 HD
BRANCH  15  17
ATOM     17  C   UNL     1     -18.880 -41.633  23.750  1.00  0.00     0.049 A 
ATOM     18  C   UNL     1     -19.374 -42.400  24.725  1.00  0.00    -0.003 A 
ATOM     19  C   UNL     1     -19.758 -40.882  22.973  1.00  0.00     0.024 A 
ATOM     20  C   UNL     1     -20.860 -42.415  24.933  1.00  0.00     0.046 A 
ATOM     21  C   UNL     1     -18.532 -42.694  26.088  1.00  0.00     0.039 C 
ATOM     22  C   UNL     1     -19.233 -40.093  21.968  1.00  0.00     0.012 A 
ATOM     23  C   UNL     1     -21.127 -40.900  23.173  1.00  0.00     0.073 A 
ATOM     24  N   UNL     1     -21.620 -41.692  24.177  1.00  0.00    -0.252 NA
ATOM     25  C   UNL     1     -21.028 -43.374  25.983  1.00  0.00     0.056 C 
ATOM     26  C   UNL     1     -19.423 -41.790  26.944  1.00  0.00     0.005 C 
ATOM     27  C   UNL     1     -20.090 -39.339  21.186  1.00  0.00     0.001 A 
ATOM     28  C   UNL     1     -22.011 -40.163  22.416  1.00  0.00     0.029 A 
ATOM     29  C   UNL     1     -20.660 -42.764  27.316  1.00  0.00     0.007 C 
ATOM     30  C   UNL     1     -21.466 -39.377  21.410  1.00  0.00     0.002 A 
ENDBRANCH  15  17
ENDBRANCH  14  15
ENDBRANCH  13  14
ENDBRANCH   1  13
TORSDOF 6
ENDMDL
MODEL 6
REMARK VINA RESULT:    -9.969      3.867      9.662
REMARK INTER + INTRA:         -14.231
REMARK INTER:                 -13.891
REMARK INTRA:                  -0.340
REMARK UNBOUND:                -0.765
REMARK SMILES O=C(NCCCNc1c2c(nc3ccccc13)CCCC2)c1ccc(F)cc1
REMARK SMILES IDX 4 1 3 2 2 3 1 4 22 6 23 7 28 8 24 9 27 10 25 11 26 12 5 13
REMARK SMILES IDX 6 14 7 15 8 17 9 18 17 19 10 20 21 21 16 22 12 23 11 24
REMARK SMILES IDX 18 25 20 26 15 27 13 28 19 29 14 30
REMARK H PARENT 3 5 7 16
ROOT
ATOM      1  C   UNL     1     -14.494 -44.165  26.478  1.00  0.00     0.118 C 
ENDROOT
BRANCH   1   2
ATOM      2  N   UNL     1     -13.536 -44.438  27.520  1.00  0.00    -0.352 N 
ATOM      3  C   UNL     1     -12.792 -45.635  27.635  1.00  0.00     0.251 C 
ATOM      4  O   UNL     1     -12.995 -46.527  26.745  1.00  0.00    -0.269 OA
ATOM      5  H   UNL     1     -13.361 -43.709  28.259  1.00  0.00     0.163 HD
BRANCH   3   6
ATOM      6  C   UNL     1     -11.830 -45.900  28.691  1.00  0.00     0.040 A 
ATOM      7  C   UNL     1     -10.525 -46.273  28.468  1.00  0.00     0.017 A 
ATOM      8  C   UNL     1     -12.218 -45.780  30.019  1.00  0.00     0.017 A 
ATOM      9  C   UNL     1      -9.626 -46.522  29.502  1.00  0.00     0.040 A 
ATOM     10  C   UNL     1     -11.364 -46.016  31.073  1.00  0.00     0.040 A 
ATOM     11  C   UNL     1     -10.076 -46.384  30.804  1.00  0.00     0.123 A 
ATOM     12  F   UNL     1      -9.233 -46.616  31.843  1.00  0.00    -0.207 F 
ENDBRANCH   3   6
ENDBRANCH   1   2
BRANCH   1  13
ATOM     13  C   UNL     1     -14.881 -42.720  26.500  1.00  0.00     0.042 C 
BRANCH  13  14
ATOM     14  C   UNL     1     -16.382 -42.529  26.742  1.00  0.00     0.115 C 
BRANCH  14  15
ATOM     15  N   UNL     1     -17.068 -43.282  25.711  1.00  0.00    -0.384 N 
ATOM     16  H   UNL     1     -16.865 -44.271  25.472  1.00  0.00     0.160 HD
BRANCH  15  17
ATOM     17  C   UNL     1     -18.091 -42.589  24.992  1.00  0.00     0.049 A 
ATOM     18  C   UNL     1     -19.346 -42.602  25.447  1.00  0.00    -0.003 A 
ATOM     19  C   UNL     1     -17.806 -41.890  23.822  1.00  0.00     0.024 A 
ATOM     20  C   UNL     1     -20.392 -41.859  24.668  1.00  0.00     0.046 A 
ATOM     21  C   UNL     1     -19.675 -42.691  27.039  1.00  0.00     0.039 C 
ATOM     22  C   UNL     1     -16.503 -41.885  23.362  1.00  0.00     0.012 A 
ATOM     23  C   UNL     1     -18.776 -41.206  23.111  1.00  0.00     0.073 A 
ATOM     24  N   UNL     1     -20.060 -41.228  23.590  1.00  0.00    -0.252 NA
ATOM     25  C   UNL     1     -21.595 -42.146  25.391  1.00  0.00     0.056 C 
ATOM     26  C   UNL     1     -20.123 -41.229  27.124  1.00  0.00     0.005 C 
ATOM     27  C   UNL     1     -16.200 -41.194  22.202  1.00  0.00     0.001 A 
ATOM     28  C   UNL     1     -18.513 -40.508  21.953  1.00  0.00     0.029 A 
ATOM     29  C   UNL     1     -21.666 -41.306  26.646  1.00  0.00     0.007 C 
ATOM     30  C   UNL     1     -17.199 -40.514  21.506  1.00  0.00     0.002 A 
ENDBRANCH  15  17
ENDBRANCH  14  15
ENDBRANCH  13  14
ENDBRANCH   1  13
TORSDOF 6
ENDMDL
MODEL 7
REMARK VINA RESULT:    -9.341      6.740     10.565
REMARK INTER + INTRA:         -13.383
REMARK INTER:                 -12.674
REMARK INTRA:                  -0.708
REMARK UNBOUND:                -0.765
REMARK SMILES O=C(NCCCNc1c2c(nc3ccccc13)CCCC2)c1ccc(F)cc1
REMARK SMILES IDX 4 1 3 2 2 3 1 4 22 6 23 7 28 8 24 9 27 10 25 11 26 12 5 13
REMARK SMILES IDX 6 14 7 15 8 17 9 18 17 19 10 20 21 21 16 22 12 23 11 24
REMARK SMILES IDX 18 25 20 26 15 27 13 28 19 29 14 30
REMARK H PARENT 3 5 7 16
ROOT
ATOM      1  C   UNL     1     -20.032 -39.519  22.008  1.00  0.00     0.118 C 
ENDROOT
BRANCH   1   2
ATOM      2  N   UNL     1     -20.636 -38.663  21.017  1.00  0.00    -0.352 N 
ATOM      3  C   UNL     1     -21.965 -38.786  20.551  1.00  0.00     0.251 C 
ATOM      4  O   UNL     1     -22.667 -39.726  21.052  1.00  0.00    -0.269 OA
ATOM      5  H   UNL     1     -20.065 -37.884  20.597  1.00  0.00     0.163 HD
BRANCH   3   6
ATOM      6  C   UNL     1     -22.563 -37.918  19.550  1.00  0.00     0.040 A 
ATOM      7  C   UNL     1     -23.269 -36.775  19.845  1.00  0.00     0.017 A 
ATOM      8  C   UNL     1     -22.432 -38.232  18.204  1.00  0.00     0.017 A 
ATOM      9  C   UNL     1     -23.832 -35.964  18.863  1.00  0.00     0.040 A 
ATOM     10  C   UNL     1     -22.971 -37.459  17.200  1.00  0.00     0.040 A 
ATOM     11  C   UNL     1     -23.666 -36.332  17.539  1.00  0.00     0.123 A 
ATOM     12  F   UNL     1     -24.196 -35.570  16.548  1.00  0.00    -0.207 F 
ENDBRANCH   3   6
ENDBRANCH   1   2
BRANCH   1  13
ATOM     13  C   UNL     1     -19.172 -40.547  21.343  1.00  0.00     0.042 C 
BRANCH  13  14
ATOM     14  C   UNL     1     -17.898 -40.837  22.144  1.00  0.00     0.115 C 
BRANCH  14  15
ATOM     15  N   UNL     1     -18.061 -42.157  22.719  1.00  0.00    -0.384 N 
ATOM     16  H   UNL     1     -18.267 -43.015  22.174  1.00  0.00     0.160 HD
BRANCH  15  17
ATOM     17  C   UNL     1     -17.923 -42.253  24.139  1.00  0.00     0.049 A 
ATOM     18  C   UNL     1     -18.961 -41.963  24.927  1.00  0.00    -0.003 A 
ATOM     19  C   UNL     1     -16.724 -42.652  24.724  1.00  0.00     0.024 A 
ATOM     20  C   UNL     1     -18.779 -42.080  26.413  1.00  0.00     0.046 A 
ATOM     21  C   UNL     1     -20.495 -42.219  24.446  1.00  0.00     0.039 C 
ATOM     22  C   UNL     1     -15.658 -42.950  23.897  1.00  0.00     0.012 A 
ATOM     23  C   UNL     1     -16.566 -42.760  26.095  1.00  0.00     0.073 A 
ATOM     24  N   UNL     1     -17.640 -42.458  26.892  1.00  0.00    -0.252 NA
ATOM     25  C   UNL     1     -20.040 -41.633  26.926  1.00  0.00     0.056 C 
ATOM     26  C   UNL     1     -20.685 -43.420  25.376  1.00  0.00     0.005 C 
ATOM     27  C   UNL     1     -14.458 -43.349  24.460  1.00  0.00     0.001 A 
ATOM     28  C   UNL     1     -15.389 -43.154  26.691  1.00  0.00     0.029 A 
ATOM     29  C   UNL     1     -21.081 -42.719  26.779  1.00  0.00     0.007 C 
ATOM     30  C   UNL     1     -14.329 -43.448  25.845  1.00  0.00     0.002 A 
ENDBRANCH  15  17
ENDBRANCH  14  15
ENDBRANCH  13  14
ENDBRANCH   1  13
TORSDOF 6
ENDMDL
MODEL 8
REMARK VINA RESULT:    -9.190      6.774     11.081
REMARK INTER + INTRA:         -13.179
REMARK INTER:                 -11.267
REMARK INTRA:                  -1.912
REMARK UNBOUND:                -0.765
REMARK SMILES O=C(NCCCNc1c2c(nc3ccccc13)CCCC2)c1ccc(F)cc1
REMARK SMILES IDX 4 1 3 2 2 3 1 4 22 6 23 7 28 8 24 9 27 10 25 11 26 12 5 13
REMARK SMILES IDX 6 14 7 15 8 17 9 18 17 19 10 20 21 21 16 22 12 23 11 24
REMARK SMILES IDX 18 25 20 26 15 27 13 28 19 29 14 30
REMARK H PARENT 3 5 7 16
ROOT
ATOM      1  C   UNL     1     -19.201 -41.325  22.024  1.00  0.00     0.118 C 
ENDROOT
BRANCH   1   2
ATOM      2  N   UNL     1     -18.924 -41.429  23.435  1.00  0.00    -0.352 N 
ATOM      3  C   UNL     1     -17.984 -42.317  24.006  1.00  0.00     0.251 C 
ATOM      4  O   UNL     1     -17.343 -43.073  23.203  1.00  0.00    -0.269 OA
ATOM      5  H   UNL     1     -19.447 -40.810  24.107  1.00  0.00     0.163 HD
BRANCH   3   6
ATOM      6  C   UNL     1     -17.714 -42.416  25.431  1.00  0.00     0.040 A 
ATOM      7  C   UNL     1     -18.665 -42.239  26.409  1.00  0.00     0.017 A 
ATOM      8  C   UNL     1     -16.428 -42.704  25.867  1.00  0.00     0.017 A 
ATOM      9  C   UNL     1     -18.376 -42.340  27.767  1.00  0.00     0.040 A 
ATOM     10  C   UNL     1     -16.096 -42.813  27.199  1.00  0.00     0.040 A 
ATOM     11  C   UNL     1     -17.073 -42.630  28.137  1.00  0.00     0.123 A 
ATOM     12  F   UNL     1     -16.747 -42.738  29.450  1.00  0.00    -0.207 F 
ENDBRANCH   3   6
ENDBRANCH   1   2
BRANCH   1  13
ATOM     13  C   UNL     1     -20.598 -40.837  21.809  1.00  0.00     0.042 C 
BRANCH  13  14
ATOM     14  C   UNL     1     -21.188 -40.202  23.073  1.00  0.00     0.115 C 
BRANCH  14  15
ATOM     15  N   UNL     1     -22.307 -41.032  23.471  1.00  0.00    -0.384 N 
ATOM     16  H   UNL     1     -23.004 -41.433  22.815  1.00  0.00     0.160 HD
BRANCH  15  17
ATOM     17  C   UNL     1     -22.435 -41.299  24.870  1.00  0.00     0.049 A 
ATOM     18  C   UNL     1     -22.904 -40.352  25.685  1.00  0.00    -0.003 A 
ATOM     19  C   UNL     1     -22.085 -42.536  25.405  1.00  0.00     0.024 A 
ATOM     20  C   UNL     1     -23.028 -40.671  27.147  1.00  0.00     0.046 A 
ATOM     21  C   UNL     1     -23.986 -39.247  25.175  1.00  0.00     0.039 C 
ATOM     22  C   UNL     1     -21.600 -43.507  24.550  1.00  0.00     0.012 A 
ATOM     23  C   UNL     1     -22.205 -42.823  26.753  1.00  0.00     0.073 A 
ATOM     24  N   UNL     1     -22.688 -41.841  27.579  1.00  0.00    -0.252 NA
ATOM     25  C   UNL     1     -23.482 -39.433  27.708  1.00  0.00     0.056 C 
ATOM     26  C   UNL     1     -25.140 -39.878  25.958  1.00  0.00     0.005 C 
ATOM     27  C   UNL     1     -21.248 -44.743  25.063  1.00  0.00     0.001 A 
ATOM     28  C   UNL     1     -21.865 -44.040  27.300  1.00  0.00     0.029 A 
ATOM     29  C   UNL     1     -24.956 -39.241  27.433  1.00  0.00     0.007 C 
ATOM     30  C   UNL     1     -21.380 -45.003  26.426  1.00  0.00     0.002 A 
ENDBRANCH  15  17
ENDBRANCH  14  15
ENDBRANCH  13  14
ENDBRANCH   1  13
TORSDOF 6
ENDMDL
MODEL 9
REMARK VINA RESULT:    -9.137      4.464     10.187
REMARK INTER + INTRA:         -13.107
REMARK INTER:                 -12.764
REMARK INTRA:                  -0.342
REMARK UNBOUND:                -0.765
REMARK SMILES O=C(NCCCNc1c2c(nc3ccccc13)CCCC2)c1ccc(F)cc1
REMARK SMILES IDX 4 1 3 2 2 3 1 4 22 6 23 7 28 8 24 9 27 10 25 11 26 12 5 13
REMARK SMILES IDX 6 14 7 15 8 17 9 18 17 19 10 20 21 21 16 22 12 23 11 24
REMARK SMILES IDX 18 25 20 26 15 27 13 28 19 29 14 30
REMARK H PARENT 3 5 7 16
ROOT
ATOM      1  C   UNL     1     -16.372 -42.533  27.013  1.00  0.00     0.118 C 
ENDROOT
BRANCH   1   2
ATOM      2  N   UNL     1     -15.249 -43.297  27.498  1.00  0.00    -0.352 N 
ATOM      3  C   UNL     1     -14.384 -44.061  26.682  1.00  0.00     0.251 C 
ATOM      4  O   UNL     1     -14.627 -44.065  25.430  1.00  0.00    -0.269 OA
ATOM      5  H   UNL     1     -15.039 -43.301  28.530  1.00  0.00     0.163 HD
BRANCH   3   6
ATOM      6  C   UNL     1     -13.256 -44.829  27.182  1.00  0.00     0.040 A 
ATOM      7  C   UNL     1     -13.038 -46.156  26.891  1.00  0.00     0.017 A 
ATOM      8  C   UNL     1     -12.322 -44.218  28.008  1.00  0.00     0.017 A 
ATOM      9  C   UNL     1     -11.947 -46.866  27.386  1.00  0.00     0.040 A 
ATOM     10  C   UNL     1     -11.229 -44.881  28.520  1.00  0.00     0.040 A 
ATOM     11  C   UNL     1     -11.052 -46.198  28.204  1.00  0.00     0.123 A 
ATOM     12  F   UNL     1      -9.974 -46.851  28.709  1.00  0.00    -0.207 F 
ENDBRANCH   3   6
ENDBRANCH   1   2
BRANCH   1  13
ATOM     13  C   UNL     1     -17.536 -42.685  27.940  1.00  0.00     0.042 C 
BRANCH  13  14
ATOM     14  C   UNL     1     -18.811 -42.051  27.373  1.00  0.00     0.115 C 
BRANCH  14  15
ATOM     15  N   UNL     1     -19.197 -42.848  26.227  1.00  0.00    -0.384 N 
ATOM     16  H   UNL     1     -18.947 -43.847  26.093  1.00  0.00     0.160 HD
BRANCH  15  17
ATOM     17  C   UNL     1     -19.976 -42.188  25.226  1.00  0.00     0.049 A 
ATOM     18  C   UNL     1     -21.292 -42.045  25.398  1.00  0.00    -0.003 A 
ATOM     19  C   UNL     1     -19.388 -41.679  24.070  1.00  0.00     0.024 A 
ATOM     20  C   UNL     1     -22.076 -41.342  24.328  1.00  0.00     0.046 A 
ATOM     21  C   UNL     1     -21.946 -41.888  26.881  1.00  0.00     0.039 C 
ATOM     22  C   UNL     1     -18.025 -41.834  23.905  1.00  0.00     0.012 A 
ATOM     23  C   UNL     1     -20.118 -41.030  23.090  1.00  0.00     0.073 A 
ATOM     24  N   UNL     1     -21.469 -40.891  23.280  1.00  0.00    -0.252 NA
ATOM     25  C   UNL     1     -23.424 -41.436  24.804  1.00  0.00     0.056 C 
ATOM     26  C   UNL     1     -22.252 -40.400  26.692  1.00  0.00     0.005 C 
ATOM     27  C   UNL     1     -17.423 -41.335  22.764  1.00  0.00     0.001 A 
ATOM     28  C   UNL     1     -19.555 -40.520  21.942  1.00  0.00     0.029 A 
ATOM     29  C   UNL     1     -23.664 -40.428  25.904  1.00  0.00     0.007 C 
ATOM     30  C   UNL     1     -18.184 -40.685  21.793  1.00  0.00     0.002 A 
ENDBRANCH  15  17
ENDBRANCH  14  15
ENDBRANCH  13  14
ENDBRANCH   1  13
TORSDOF 6
ENDMDL
