MODEL 1
REMARK VINA RESULT:   -12.672      0.000      0.000
REMARK INTER + INTRA:         -16.933
REMARK INTER:                 -16.375
REMARK INTRA:                  -0.557
REMARK UNBOUND:                -0.557
REMARK SMILES O=C1CC(=NCCNc2c3c(nc4cc(Cl)ccc24)CCCC3)C(=O)c2ccccc21
REMARK SMILES IDX 6 1 5 2 4 3 3 4 2 5 31 6 24 7 30 8 26 9 29 10 27 11 28 12
REMARK SMILES IDX 1 13 25 14 7 15 8 16 9 18 10 19 19 20 11 21 23 22 18 23
REMARK SMILES IDX 13 24 12 25 20 26 22 27 17 28 14 29 21 30 15 31 16 32
REMARK H PARENT 8 17
ROOT
ATOM      1  C   UNL     1     -13.077 -45.605  28.336  1.00  0.00     0.163 C 
ENDROOT
BRANCH   1   2
ATOM      2  N   UNL     1     -14.156 -44.627  28.513  1.00  0.00    -0.283 NA
BRANCH   2   3
ATOM      3  C   UNL     1     -14.538 -43.899  27.519  1.00  0.00     0.091 C 
ATOM      4  C   UNL     1     -13.798 -43.683  26.238  1.00  0.00     0.141 C 
ATOM      5  C   UNL     1     -14.646 -43.436  25.025  1.00  0.00     0.169 C 
ATOM      6  C   UNL     1     -16.051 -43.000  25.195  1.00  0.00     0.029 A 
ATOM      7  C   UNL     1     -15.846 -43.151  27.672  1.00  0.00     0.207 C 
ATOM      8  C   UNL     1     -16.817 -42.715  24.056  1.00  0.00     0.012 A 
ATOM      9  C   UNL     1     -16.615 -42.841  26.459  1.00  0.00     0.035 A 
ATOM     10  C   UNL     1     -18.133 -42.269  24.185  1.00  0.00     0.001 A 
ATOM     11  C   UNL     1     -17.934 -42.384  26.588  1.00  0.00     0.013 A 
ATOM     12  C   UNL     1     -18.690 -42.100  25.451  1.00  0.00     0.001 A 
ATOM     13  O   UNL     1     -14.179 -43.549  23.895  1.00  0.00    -0.294 OA
ATOM     14  O   UNL     1     -16.244 -42.834  28.784  1.00  0.00    -0.287 OA
ENDBRANCH   2   3
ENDBRANCH   1   2
BRANCH   1  15
ATOM     15  C   UNL     1     -11.798 -45.039  28.981  1.00  0.00     0.136 C 
BRANCH  15  16
ATOM     16  N   UNL     1     -11.673 -45.587  30.347  1.00  0.00    -0.382 N 
ATOM     17  H   UNL     1     -10.947 -46.307  30.316  1.00  0.00     0.160 HD
BRANCH  16  18
ATOM     18  C   UNL     1     -11.297 -44.580  31.285  1.00  0.00     0.049 A 
ATOM     19  C   UNL     1      -9.931 -44.412  31.585  1.00  0.00    -0.003 A 
ATOM     20  C   UNL     1     -12.275 -43.810  31.979  1.00  0.00     0.024 A 
ATOM     21  C   UNL     1      -9.591 -43.486  32.571  1.00  0.00     0.046 A 
ATOM     22  C   UNL     1      -8.871 -45.230  30.886  1.00  0.00     0.039 C 
ATOM     23  C   UNL     1     -13.676 -43.903  31.766  1.00  0.00     0.014 A 
ATOM     24  C   UNL     1     -11.806 -42.894  32.943  1.00  0.00     0.074 A 
ATOM     25  N   UNL     1     -10.507 -42.737  33.230  1.00  0.00    -0.252 NA
ATOM     26  C   UNL     1      -8.156 -43.202  32.931  1.00  0.00     0.056 C 
ATOM     27  C   UNL     1      -7.458 -44.666  31.037  1.00  0.00     0.005 C 
ATOM     28  C   UNL     1     -14.573 -43.110  32.481  1.00  0.00     0.021 A 
ATOM     29  C   UNL     1     -12.713 -42.114  33.644  1.00  0.00     0.049 A 
ATOM     30  C   UNL     1      -7.190 -44.295  32.488  1.00  0.00     0.007 C 
ATOM     31  C   UNL     1     -14.083 -42.216  33.419  1.00  0.00     0.043 A 
ATOM     32  Cl  UNL     1     -15.175 -41.230  34.312  1.00  0.00    -0.084 Cl
ENDBRANCH  16  18
ENDBRANCH  15  16
ENDBRANCH   1  15
TORSDOF 5
ENDMDL
MODEL 2
REMARK VINA RESULT:   -12.149      1.796      3.740
REMARK INTER + INTRA:         -16.257
REMARK INTER:                 -15.853
REMARK INTRA:                  -0.404
REMARK UNBOUND:                -0.557
REMARK SMILES O=C1CC(=NCCNc2c3c(nc4cc(Cl)ccc24)CCCC3)C(=O)c2ccccc21
REMARK SMILES IDX 6 1 5 2 4 3 3 4 2 5 31 6 24 7 30 8 26 9 29 10 27 11 28 12
REMARK SMILES IDX 1 13 25 14 7 15 8 16 9 18 10 19 19 20 11 21 23 22 18 23
REMARK SMILES IDX 13 24 12 25 20 26 22 27 17 28 14 29 21 30 15 31 16 32
REMARK H PARENT 8 17
ROOT
ATOM      1  C   UNL     1     -13.148 -45.075  28.298  1.00  0.00     0.163 C 
ENDROOT
BRANCH   1   2
ATOM      2  N   UNL     1     -14.400 -44.310  28.275  1.00  0.00    -0.283 NA
BRANCH   2   3
ATOM      3  C   UNL     1     -14.777 -43.718  27.192  1.00  0.00     0.091 C 
ATOM      4  C   UNL     1     -14.056 -43.718  25.882  1.00  0.00     0.141 C 
ATOM      5  C   UNL     1     -14.921 -43.615  24.660  1.00  0.00     0.169 C 
ATOM      6  C   UNL     1     -16.305 -43.105  24.787  1.00  0.00     0.029 A 
ATOM      7  C   UNL     1     -16.052 -42.904  27.256  1.00  0.00     0.207 C 
ATOM      8  C   UNL     1     -17.084 -42.956  23.630  1.00  0.00     0.012 A 
ATOM      9  C   UNL     1     -16.835 -42.742  26.023  1.00  0.00     0.035 A 
ATOM     10  C   UNL     1     -18.380 -42.444  23.715  1.00  0.00     0.001 A 
ATOM     11  C   UNL     1     -18.133 -42.220  26.105  1.00  0.00     0.013 A 
ATOM     12  C   UNL     1     -18.903 -42.073  24.951  1.00  0.00     0.001 A 
ATOM     13  O   UNL     1     -14.482 -43.909  23.550  1.00  0.00    -0.294 OA
ATOM     14  O   UNL     1     -16.414 -42.415  28.316  1.00  0.00    -0.287 OA
ENDBRANCH   2   3
ENDBRANCH   1   2
BRANCH   1  15
ATOM     15  C   UNL     1     -12.136 -44.321  29.180  1.00  0.00     0.136 C 
BRANCH  15  16
ATOM     16  N   UNL     1     -11.878 -45.119  30.396  1.00  0.00    -0.382 N 
ATOM     17  H   UNL     1     -11.095 -45.742  30.185  1.00  0.00     0.160 HD
BRANCH  16  18
ATOM     18  C   UNL     1     -11.535 -44.291  31.506  1.00  0.00     0.049 A 
ATOM     19  C   UNL     1     -12.566 -43.624  32.196  1.00  0.00    -0.003 A 
ATOM     20  C   UNL     1     -10.176 -44.063  31.870  1.00  0.00     0.024 A 
ATOM     21  C   UNL     1     -12.203 -42.748  33.219  1.00  0.00     0.046 A 
ATOM     22  C   UNL     1     -14.015 -43.823  31.820  1.00  0.00     0.039 C 
ATOM     23  C   UNL     1      -9.059 -44.671  31.239  1.00  0.00     0.014 A 
ATOM     24  C   UNL     1      -9.937 -43.167  32.932  1.00  0.00     0.074 A 
ATOM     25  N   UNL     1     -10.917 -42.530  33.585  1.00  0.00    -0.252 NA
ATOM     26  C   UNL     1     -13.234 -42.022  34.045  1.00  0.00     0.056 C 
ATOM     27  C   UNL     1     -15.000 -43.347  32.886  1.00  0.00     0.005 C 
ATOM     28  C   UNL     1      -7.755 -44.402  31.655  1.00  0.00     0.021 A 
ATOM     29  C   UNL     1      -8.633 -42.912  33.332  1.00  0.00     0.049 A 
ATOM     30  C   UNL     1     -14.608 -41.965  33.388  1.00  0.00     0.007 C 
ATOM     31  C   UNL     1      -7.550 -43.522  32.705  1.00  0.00     0.043 A 
ATOM     32  Cl  UNL     1      -5.949 -43.176  33.231  1.00  0.00    -0.084 Cl
ENDBRANCH  16  18
ENDBRANCH  15  16
ENDBRANCH   1  15
TORSDOF 5
ENDMDL
MODEL 3
REMARK VINA RESULT:   -11.011      2.017      4.214
REMARK INTER + INTRA:         -14.786
REMARK INTER:                 -14.180
REMARK INTRA:                  -0.606
REMARK UNBOUND:                -0.557
REMARK SMILES O=C1CC(=NCCNc2c3c(nc4cc(Cl)ccc24)CCCC3)C(=O)c2ccccc21
REMARK SMILES IDX 6 1 5 2 4 3 3 4 2 5 31 6 24 7 30 8 26 9 29 10 27 11 28 12
REMARK SMILES IDX 1 13 25 14 7 15 8 16 9 18 10 19 19 20 11 21 23 22 18 23
REMARK SMILES IDX 13 24 12 25 20 26 22 27 17 28 14 29 21 30 15 31 16 32
REMARK H PARENT 8 17
ROOT
ATOM      1  C   UNL     1     -12.398 -45.831  28.797  1.00  0.00     0.163 C 
ENDROOT
BRANCH   1   2
ATOM      2  N   UNL     1     -12.719 -44.517  28.228  1.00  0.00    -0.283 NA
BRANCH   2   3
ATOM      3  C   UNL     1     -13.896 -44.288  27.754  1.00  0.00     0.091 C 
ATOM      4  C   UNL     1     -15.077 -43.777  28.516  1.00  0.00     0.141 C 
ATOM      5  C   UNL     1     -16.053 -42.948  27.733  1.00  0.00     0.169 C 
ATOM      6  C   UNL     1     -16.056 -43.028  26.255  1.00  0.00     0.029 A 
ATOM      7  C   UNL     1     -14.128 -44.603  26.292  1.00  0.00     0.207 C 
ATOM      8  C   UNL     1     -17.011 -42.295  25.536  1.00  0.00     0.012 A 
ATOM      9  C   UNL     1     -15.153 -43.838  25.569  1.00  0.00     0.035 A 
ATOM     10  C   UNL     1     -17.061 -42.378  24.144  1.00  0.00     0.001 A 
ATOM     11  C   UNL     1     -15.211 -43.927  24.171  1.00  0.00     0.013 A 
ATOM     12  C   UNL     1     -16.164 -43.197  23.462  1.00  0.00     0.001 A 
ATOM     13  O   UNL     1     -16.876 -42.236  28.304  1.00  0.00    -0.294 OA
ATOM     14  O   UNL     1     -13.460 -45.465  25.738  1.00  0.00    -0.287 OA
ENDBRANCH   2   3
ENDBRANCH   1   2
BRANCH   1  15
ATOM     15  C   UNL     1     -11.035 -45.732  29.506  1.00  0.00     0.136 C 
BRANCH  15  16
ATOM     16  N   UNL     1     -11.215 -46.071  30.932  1.00  0.00    -0.382 N 
ATOM     17  H   UNL     1     -10.545 -46.813  31.151  1.00  0.00     0.160 HD
BRANCH  16  18
ATOM     18  C   UNL     1     -10.964 -44.947  31.775  1.00  0.00     0.049 A 
ATOM     19  C   UNL     1     -12.059 -44.182  32.224  1.00  0.00    -0.003 A 
ATOM     20  C   UNL     1      -9.636 -44.542  32.097  1.00  0.00     0.024 A 
ATOM     21  C   UNL     1     -11.787 -43.036  32.971  1.00  0.00     0.046 A 
ATOM     22  C   UNL     1     -13.477 -44.570  31.880  1.00  0.00     0.039 C 
ATOM     23  C   UNL     1      -8.462 -45.229  31.691  1.00  0.00     0.014 A 
ATOM     24  C   UNL     1      -9.492 -43.373  32.873  1.00  0.00     0.074 A 
ATOM     25  N   UNL     1     -10.532 -42.644  33.296  1.00  0.00    -0.252 NA
ATOM     26  C   UNL     1     -12.890 -42.177  33.534  1.00  0.00     0.056 C 
ATOM     27  C   UNL     1     -14.531 -43.880  32.745  1.00  0.00     0.005 C 
ATOM     28  C   UNL     1      -7.194 -44.773  32.050  1.00  0.00     0.021 A 
ATOM     29  C   UNL     1      -8.222 -42.936  33.220  1.00  0.00     0.049 A 
ATOM     30  C   UNL     1     -14.236 -42.392  32.851  1.00  0.00     0.007 C 
ATOM     31  C   UNL     1      -7.082 -43.625  32.817  1.00  0.00     0.043 A 
ATOM     32  Cl  UNL     1      -5.526 -43.046  33.269  1.00  0.00    -0.084 Cl
ENDBRANCH  16  18
ENDBRANCH  15  16
ENDBRANCH   1  15
TORSDOF 5
ENDMDL
MODEL 4
REMARK VINA RESULT:   -10.972      6.055      9.750
REMARK INTER + INTRA:         -14.736
REMARK INTER:                 -14.120
REMARK INTRA:                  -0.616
REMARK UNBOUND:                -0.557
REMARK SMILES O=C1CC(=NCCNc2c3c(nc4cc(Cl)ccc24)CCCC3)C(=O)c2ccccc21
REMARK SMILES IDX 6 1 5 2 4 3 3 4 2 5 31 6 24 7 30 8 26 9 29 10 27 11 28 12
REMARK SMILES IDX 1 13 25 14 7 15 8 16 9 18 10 19 19 20 11 21 23 22 18 23
REMARK SMILES IDX 13 24 12 25 20 26 22 27 17 28 14 29 21 30 15 31 16 32
REMARK H PARENT 8 17
ROOT
ATOM      1  C   UNL     1     -18.113 -40.131  21.818  1.00  0.00     0.163 C 
ENDROOT
BRANCH   1   2
ATOM      2  N   UNL     1     -18.630 -40.276  20.452  1.00  0.00    -0.283 NA
BRANCH   2   3
ATOM      3  C   UNL     1     -19.866 -40.006  20.197  1.00  0.00     0.091 C 
ATOM      4  C   UNL     1     -20.434 -38.660  19.877  1.00  0.00     0.141 C 
ATOM      5  C   UNL     1     -21.629 -38.654  18.969  1.00  0.00     0.169 C 
ATOM      6  C   UNL     1     -22.420 -39.894  18.796  1.00  0.00     0.029 A 
ATOM      7  C   UNL     1     -20.853 -41.151  20.268  1.00  0.00     0.207 C 
ATOM      8  C   UNL     1     -23.569 -39.861  17.993  1.00  0.00     0.012 A 
ATOM      9  C   UNL     1     -22.063 -41.079  19.436  1.00  0.00     0.035 A 
ATOM     10  C   UNL     1     -24.353 -41.005  17.839  1.00  0.00     0.001 A 
ATOM     11  C   UNL     1     -22.856 -42.224  19.288  1.00  0.00     0.013 A 
ATOM     12  C   UNL     1     -23.999 -42.186  18.489  1.00  0.00     0.001 A 
ATOM     13  O   UNL     1     -21.985 -37.624  18.402  1.00  0.00    -0.294 OA
ATOM     14  O   UNL     1     -20.628 -42.110  20.993  1.00  0.00    -0.287 OA
ENDBRANCH   2   3
ENDBRANCH   1   2
BRANCH   1  15
ATOM     15  C   UNL     1     -17.124 -41.281  22.085  1.00  0.00     0.136 C 
BRANCH  15  16
ATOM     16  N   UNL     1     -17.857 -42.406  22.700  1.00  0.00    -0.382 N 
ATOM     17  H   UNL     1     -17.387 -43.266  22.406  1.00  0.00     0.160 HD
BRANCH  16  18
ATOM     18  C   UNL     1     -17.844 -42.326  24.124  1.00  0.00     0.049 A 
ATOM     19  C   UNL     1     -16.708 -42.788  24.817  1.00  0.00    -0.003 A 
ATOM     20  C   UNL     1     -18.982 -41.871  24.853  1.00  0.00     0.024 A 
ATOM     21  C   UNL     1     -16.752 -42.786  26.211  1.00  0.00     0.046 A 
ATOM     22  C   UNL     1     -15.496 -43.301  24.076  1.00  0.00     0.039 C 
ATOM     23  C   UNL     1     -20.180 -41.393  24.261  1.00  0.00     0.014 A 
ATOM     24  C   UNL     1     -18.898 -41.902  26.260  1.00  0.00     0.074 A 
ATOM     25  N   UNL     1     -17.819 -42.346  26.918  1.00  0.00    -0.252 NA
ATOM     26  C   UNL     1     -15.571 -43.220  27.042  1.00  0.00     0.056 C 
ATOM     27  C   UNL     1     -14.239 -43.395  24.941  1.00  0.00     0.005 C 
ATOM     28  C   UNL     1     -21.252 -40.958  25.041  1.00  0.00     0.021 A 
ATOM     29  C   UNL     1     -19.974 -41.465  27.019  1.00  0.00     0.049 A 
ATOM     30  C   UNL     1     -14.561 -44.061  26.270  1.00  0.00     0.007 C 
ATOM     31  C   UNL     1     -21.140 -40.996  26.421  1.00  0.00     0.043 A 
ATOM     32  Cl  UNL     1     -22.452 -40.465  27.400  1.00  0.00    -0.084 Cl
ENDBRANCH  16  18
ENDBRANCH  15  16
ENDBRANCH   1  15
TORSDOF 5
ENDMDL
MODEL 5
REMARK VINA RESULT:   -10.751      6.067     10.359
REMARK INTER + INTRA:         -14.450
REMARK INTER:                 -13.730
REMARK INTRA:                  -0.720
REMARK UNBOUND:                -0.557
REMARK SMILES O=C1CC(=NCCNc2c3c(nc4cc(Cl)ccc24)CCCC3)C(=O)c2ccccc21
REMARK SMILES IDX 6 1 5 2 4 3 3 4 2 5 31 6 24 7 30 8 26 9 29 10 27 11 28 12
REMARK SMILES IDX 1 13 25 14 7 15 8 16 9 18 10 19 19 20 11 21 23 22 18 23
REMARK SMILES IDX 13 24 12 25 20 26 22 27 17 28 14 29 21 30 15 31 16 32
REMARK H PARENT 8 17
ROOT
ATOM      1  C   UNL     1     -18.164 -40.007  21.677  1.00  0.00     0.163 C 
ENDROOT
BRANCH   1   2
ATOM      2  N   UNL     1     -18.777 -40.353  20.389  1.00  0.00    -0.283 NA
BRANCH   2   3
ATOM      3  C   UNL     1     -19.999 -40.021  20.145  1.00  0.00     0.091 C 
ATOM      4  C   UNL     1     -20.512 -38.640  19.889  1.00  0.00     0.141 C 
ATOM      5  C   UNL     1     -21.703 -38.542  18.982  1.00  0.00     0.169 C 
ATOM      6  C   UNL     1     -22.541 -39.739  18.747  1.00  0.00     0.029 A 
ATOM      7  C   UNL     1     -21.032 -41.128  20.159  1.00  0.00     0.207 C 
ATOM      8  C   UNL     1     -23.685 -39.622  17.944  1.00  0.00     0.012 A 
ATOM      9  C   UNL     1     -22.234 -40.967  19.330  1.00  0.00     0.035 A 
ATOM     10  C   UNL     1     -24.514 -40.725  17.734  1.00  0.00     0.001 A 
ATOM     11  C   UNL     1     -23.073 -42.072  19.124  1.00  0.00     0.013 A 
ATOM     12  C   UNL     1     -24.210 -41.948  18.327  1.00  0.00     0.001 A 
ATOM     13  O   UNL     1     -22.015 -37.472  18.464  1.00  0.00    -0.294 OA
ATOM     14  O   UNL     1     -20.848 -42.129  20.837  1.00  0.00    -0.287 OA
ENDBRANCH   2   3
ENDBRANCH   1   2
BRANCH   1  15
ATOM     15  C   UNL     1     -17.211 -41.147  22.082  1.00  0.00     0.136 C 
BRANCH  15  16
ATOM     16  N   UNL     1     -18.012 -42.276  22.596  1.00  0.00    -0.382 N 
ATOM     17  H   UNL     1     -17.623 -43.130  22.187  1.00  0.00     0.160 HD
BRANCH  16  18
ATOM     18  C   UNL     1     -17.948 -42.363  24.018  1.00  0.00     0.049 A 
ATOM     19  C   UNL     1     -19.073 -41.973  24.770  1.00  0.00    -0.003 A 
ATOM     20  C   UNL     1     -16.749 -42.752  24.685  1.00  0.00     0.024 A 
ATOM     21  C   UNL     1     -18.958 -41.978  26.160  1.00  0.00     0.046 A 
ATOM     22  C   UNL     1     -20.349 -41.531  24.095  1.00  0.00     0.039 C 
ATOM     23  C   UNL     1     -15.555 -43.154  24.030  1.00  0.00     0.014 A 
ATOM     24  C   UNL     1     -16.763 -42.731  26.094  1.00  0.00     0.074 A 
ATOM     25  N   UNL     1     -17.832 -42.357  26.809  1.00  0.00    -0.252 NA
ATOM     26  C   UNL     1     -20.119 -41.620  27.052  1.00  0.00     0.056 C 
ATOM     27  C   UNL     1     -21.564 -41.517  25.023  1.00  0.00     0.005 C 
ATOM     28  C   UNL     1     -14.422 -43.527  24.752  1.00  0.00     0.021 A 
ATOM     29  C   UNL     1     -15.626 -43.106  26.795  1.00  0.00     0.049 A 
ATOM     30  C   UNL     1     -21.216 -40.837  26.339  1.00  0.00     0.007 C 
ATOM     31  C   UNL     1     -14.465 -43.502  26.136  1.00  0.00     0.043 A 
ATOM     32  Cl  UNL     1     -13.076 -43.957  27.044  1.00  0.00    -0.084 Cl
ENDBRANCH  16  18
ENDBRANCH  15  16
ENDBRANCH   1  15
TORSDOF 5
ENDMDL
MODEL 6
REMARK VINA RESULT:   -10.450      6.208      9.958
REMARK INTER + INTRA:         -14.062
REMARK INTER:                 -12.699
REMARK INTRA:                  -1.363
REMARK UNBOUND:                -0.557
REMARK SMILES O=C1CC(=NCCNc2c3c(nc4cc(Cl)ccc24)CCCC3)C(=O)c2ccccc21
REMARK SMILES IDX 6 1 5 2 4 3 3 4 2 5 31 6 24 7 30 8 26 9 29 10 27 11 28 12
REMARK SMILES IDX 1 13 25 14 7 15 8 16 9 18 10 19 19 20 11 21 23 22 18 23
REMARK SMILES IDX 13 24 12 25 20 26 22 27 17 28 14 29 21 30 15 31 16 32
REMARK H PARENT 8 17
ROOT
ATOM      1  C   UNL     1     -18.194 -40.011  21.703  1.00  0.00     0.163 C 
ENDROOT
BRANCH   1   2
ATOM      2  N   UNL     1     -18.897 -40.319  20.452  1.00  0.00    -0.283 NA
BRANCH   2   3
ATOM      3  C   UNL     1     -20.164 -40.561  20.465  1.00  0.00     0.091 C 
ATOM      4  C   UNL     1     -20.829 -41.837  20.057  1.00  0.00     0.141 C 
ATOM      5  C   UNL     1     -22.109 -42.164  20.769  1.00  0.00     0.169 C 
ATOM      6  C   UNL     1     -22.849 -41.090  21.469  1.00  0.00     0.029 A 
ATOM      7  C   UNL     1     -21.080 -39.435  20.894  1.00  0.00     0.207 C 
ATOM      8  C   UNL     1     -24.074 -41.394  22.080  1.00  0.00     0.012 A 
ATOM      9  C   UNL     1     -22.369 -39.783  21.507  1.00  0.00     0.035 A 
ATOM     10  C   UNL     1     -24.811 -40.395  22.718  1.00  0.00     0.001 A 
ATOM     11  C   UNL     1     -23.115 -38.778  22.140  1.00  0.00     0.013 A 
ATOM     12  C   UNL     1     -24.333 -39.087  22.744  1.00  0.00     0.001 A 
ATOM     13  O   UNL     1     -22.572 -43.302  20.743  1.00  0.00    -0.294 OA
ATOM     14  O   UNL     1     -20.734 -38.272  20.740  1.00  0.00    -0.287 OA
ENDBRANCH   2   3
ENDBRANCH   1   2
BRANCH   1  15
ATOM     15  C   UNL     1     -17.241 -41.178  22.023  1.00  0.00     0.136 C 
BRANCH  15  16
ATOM     16  N   UNL     1     -18.032 -42.307  22.553  1.00  0.00    -0.382 N 
ATOM     17  H   UNL     1     -17.639 -43.162  22.152  1.00  0.00     0.160 HD
BRANCH  16  18
ATOM     18  C   UNL     1     -17.959 -42.377  23.976  1.00  0.00     0.049 A 
ATOM     19  C   UNL     1     -19.085 -41.992  24.730  1.00  0.00    -0.003 A 
ATOM     20  C   UNL     1     -16.753 -42.745  24.641  1.00  0.00     0.024 A 
ATOM     21  C   UNL     1     -18.963 -41.982  26.119  1.00  0.00     0.046 A 
ATOM     22  C   UNL     1     -20.370 -41.573  24.057  1.00  0.00     0.039 C 
ATOM     23  C   UNL     1     -15.558 -43.140  23.984  1.00  0.00     0.014 A 
ATOM     24  C   UNL     1     -16.759 -42.709  26.050  1.00  0.00     0.074 A 
ATOM     25  N   UNL     1     -17.829 -42.340  26.766  1.00  0.00    -0.252 NA
ATOM     26  C   UNL     1     -20.124 -41.628  27.014  1.00  0.00     0.056 C 
ATOM     27  C   UNL     1     -21.580 -41.564  24.991  1.00  0.00     0.005 C 
ATOM     28  C   UNL     1     -14.416 -43.491  24.703  1.00  0.00     0.021 A 
ATOM     29  C   UNL     1     -15.614 -43.063  26.749  1.00  0.00     0.049 A 
ATOM     30  C   UNL     1     -21.233 -40.866  26.298  1.00  0.00     0.007 C 
ATOM     31  C   UNL     1     -14.453 -43.452  26.088  1.00  0.00     0.043 A 
ATOM     32  Cl  UNL     1     -13.053 -43.881  26.993  1.00  0.00    -0.084 Cl
ENDBRANCH  16  18
ENDBRANCH  15  16
ENDBRANCH   1  15
TORSDOF 5
ENDMDL
MODEL 7
REMARK VINA RESULT:    -9.977      3.698      9.948
REMARK INTER + INTRA:         -13.451
REMARK INTER:                 -13.086
REMARK INTRA:                  -0.365
REMARK UNBOUND:                -0.557
REMARK SMILES O=C1CC(=NCCNc2c3c(nc4cc(Cl)ccc24)CCCC3)C(=O)c2ccccc21
REMARK SMILES IDX 6 1 5 2 4 3 3 4 2 5 31 6 24 7 30 8 26 9 29 10 27 11 28 12
REMARK SMILES IDX 1 13 25 14 7 15 8 16 9 18 10 19 19 20 11 21 23 22 18 23
REMARK SMILES IDX 13 24 12 25 20 26 22 27 17 28 14 29 21 30 15 31 16 32
REMARK H PARENT 8 17
ROOT
ATOM      1  C   UNL     1     -15.855 -43.089  25.500  1.00  0.00     0.163 C 
ENDROOT
BRANCH   1   2
ATOM      2  N   UNL     1     -15.178 -42.932  26.792  1.00  0.00    -0.283 NA
BRANCH   2   3
ATOM      3  C   UNL     1     -14.663 -43.957  27.381  1.00  0.00     0.091 C 
ATOM      4  C   UNL     1     -13.961 -45.101  26.723  1.00  0.00     0.141 C 
ATOM      5  C   UNL     1     -12.885 -45.762  27.533  1.00  0.00     0.169 C 
ATOM      6  C   UNL     1     -12.858 -45.574  29.002  1.00  0.00     0.029 A 
ATOM      7  C   UNL     1     -14.816 -44.040  28.885  1.00  0.00     0.207 C 
ATOM      8  C   UNL     1     -11.884 -46.244  29.756  1.00  0.00     0.012 A 
ATOM      9  C   UNL     1     -13.796 -44.771  29.648  1.00  0.00     0.035 A 
ATOM     10  C   UNL     1     -11.856 -46.113  31.145  1.00  0.00     0.001 A 
ATOM     11  C   UNL     1     -13.771 -44.648  31.045  1.00  0.00     0.013 A 
ATOM     12  C   UNL     1     -12.801 -45.318  31.790  1.00  0.00     0.001 A 
ATOM     13  O   UNL     1     -12.052 -46.491  27.000  1.00  0.00    -0.294 OA
ATOM     14  O   UNL     1     -15.763 -43.495  29.436  1.00  0.00    -0.287 OA
ENDBRANCH   2   3
ENDBRANCH   1   2
BRANCH   1  15
ATOM     15  C   UNL     1     -17.269 -42.489  25.617  1.00  0.00     0.136 C 
BRANCH  15  16
ATOM     16  N   UNL     1     -18.118 -43.061  24.553  1.00  0.00    -0.382 N 
ATOM     17  H   UNL     1     -18.206 -44.062  24.745  1.00  0.00     0.160 HD
BRANCH  16  18
ATOM     18  C   UNL     1     -19.416 -42.469  24.541  1.00  0.00     0.049 A 
ATOM     19  C   UNL     1     -19.682 -41.442  23.614  1.00  0.00    -0.003 A 
ATOM     20  C   UNL     1     -20.409 -42.836  25.496  1.00  0.00     0.024 A 
ATOM     21  C   UNL     1     -20.926 -40.814  23.679  1.00  0.00     0.046 A 
ATOM     22  C   UNL     1     -18.644 -41.011  22.606  1.00  0.00     0.039 C 
ATOM     23  C   UNL     1     -20.247 -43.847  26.479  1.00  0.00     0.014 A 
ATOM     24  C   UNL     1     -21.633 -42.139  25.451  1.00  0.00     0.074 A 
ATOM     25  N   UNL     1     -21.884 -41.160  24.572  1.00  0.00    -0.252 NA
ATOM     26  C   UNL     1     -21.321 -39.735  22.704  1.00  0.00     0.056 C 
ATOM     27  C   UNL     1     -19.210 -40.182  21.454  1.00  0.00     0.005 C 
ATOM     28  C   UNL     1     -21.268 -44.155  27.378  1.00  0.00     0.021 A 
ATOM     29  C   UNL     1     -22.637 -42.459  26.353  1.00  0.00     0.049 A 
ATOM     30  C   UNL     1     -20.135 -39.099  21.988  1.00  0.00     0.007 C 
ATOM     31  C   UNL     1     -22.462 -43.457  27.308  1.00  0.00     0.043 A 
ATOM     32  Cl  UNL     1     -23.733 -43.821  28.409  1.00  0.00    -0.084 Cl
ENDBRANCH  16  18
ENDBRANCH  15  16
ENDBRANCH   1  15
TORSDOF 5
ENDMDL
MODEL 8
REMARK VINA RESULT:    -9.854      6.679     10.524
REMARK INTER + INTRA:         -13.292
REMARK INTER:                 -12.537
REMARK INTRA:                  -0.755
REMARK UNBOUND:                -0.557
REMARK SMILES O=C1CC(=NCCNc2c3c(nc4cc(Cl)ccc24)CCCC3)C(=O)c2ccccc21
REMARK SMILES IDX 6 1 5 2 4 3 3 4 2 5 31 6 24 7 30 8 26 9 29 10 27 11 28 12
REMARK SMILES IDX 1 13 25 14 7 15 8 16 9 18 10 19 19 20 11 21 23 22 18 23
REMARK SMILES IDX 13 24 12 25 20 26 22 27 17 28 14 29 21 30 15 31 16 32
REMARK H PARENT 8 17
ROOT
ATOM      1  C   UNL     1     -19.182 -40.469  20.746  1.00  0.00     0.163 C 
ENDROOT
BRANCH   1   2
ATOM      2  N   UNL     1     -20.103 -39.397  21.141  1.00  0.00    -0.283 NA
BRANCH   2   3
ATOM      3  C   UNL     1     -21.308 -39.379  20.681  1.00  0.00     0.091 C 
ATOM      4  C   UNL     1     -22.344 -40.442  20.860  1.00  0.00     0.141 C 
ATOM      5  C   UNL     1     -23.768 -39.970  20.892  1.00  0.00     0.169 C 
ATOM      6  C   UNL     1     -24.107 -38.638  20.342  1.00  0.00     0.029 A 
ATOM      7  C   UNL     1     -21.710 -38.186  19.840  1.00  0.00     0.207 C 
ATOM      8  C   UNL     1     -25.449 -38.231  20.322  1.00  0.00     0.012 A 
ATOM      9  C   UNL     1     -23.127 -37.798  19.817  1.00  0.00     0.035 A 
ATOM     10  C   UNL     1     -25.803 -36.995  19.777  1.00  0.00     0.001 A 
ATOM     11  C   UNL     1     -23.485 -36.561  19.262  1.00  0.00     0.013 A 
ATOM     12  C   UNL     1     -24.822 -36.163  19.244  1.00  0.00     0.001 A 
ATOM     13  O   UNL     1     -24.662 -40.690  21.331  1.00  0.00    -0.294 OA
ATOM     14  O   UNL     1     -20.863 -37.564  19.214  1.00  0.00    -0.287 OA
ENDBRANCH   2   3
ENDBRANCH   1   2
BRANCH   1  15
ATOM     15  C   UNL     1     -18.176 -40.689  21.891  1.00  0.00     0.136 C 
BRANCH  15  16
ATOM     16  N   UNL     1     -18.374 -42.043  22.446  1.00  0.00    -0.382 N 
ATOM     17  H   UNL     1     -17.634 -42.636  22.061  1.00  0.00     0.160 HD
BRANCH  16  18
ATOM     18  C   UNL     1     -18.289 -42.047  23.869  1.00  0.00     0.049 A 
ATOM     19  C   UNL     1     -17.115 -42.536  24.474  1.00  0.00    -0.003 A 
ATOM     20  C   UNL     1     -19.391 -41.648  24.681  1.00  0.00     0.024 A 
ATOM     21  C   UNL     1     -17.086 -42.616  25.867  1.00  0.00     0.046 A 
ATOM     22  C   UNL     1     -15.938 -42.990  23.644  1.00  0.00     0.039 C 
ATOM     23  C   UNL     1     -20.623 -41.151  24.180  1.00  0.00     0.014 A 
ATOM     24  C   UNL     1     -19.235 -41.762  26.077  1.00  0.00     0.074 A 
ATOM     25  N   UNL     1     -18.120 -42.230  26.652  1.00  0.00    -0.252 NA
ATOM     26  C   UNL     1     -15.861 -43.084  26.609  1.00  0.00     0.056 C 
ATOM     27  C   UNL     1     -14.638 -43.120  24.436  1.00  0.00     0.005 C 
ATOM     28  C   UNL     1     -21.656 -40.774  25.038  1.00  0.00     0.021 A 
ATOM     29  C   UNL     1     -20.273 -41.382  26.915  1.00  0.00     0.049 A 
ATOM     30  C   UNL     1     -14.885 -43.867  25.738  1.00  0.00     0.007 C 
ATOM     31  C   UNL     1     -21.473 -40.892  26.406  1.00  0.00     0.043 A 
ATOM     32  Cl  UNL     1     -22.737 -40.435  27.480  1.00  0.00    -0.084 Cl
ENDBRANCH  16  18
ENDBRANCH  15  16
ENDBRANCH   1  15
TORSDOF 5
ENDMDL
MODEL 9
REMARK VINA RESULT:    -9.708      6.131     10.456
REMARK INTER + INTRA:         -13.103
REMARK INTER:                 -13.306
REMARK INTRA:                   0.203
REMARK UNBOUND:                -0.557
REMARK SMILES O=C1CC(=NCCNc2c3c(nc4cc(Cl)ccc24)CCCC3)C(=O)c2ccccc21
REMARK SMILES IDX 6 1 5 2 4 3 3 4 2 5 31 6 24 7 30 8 26 9 29 10 27 11 28 12
REMARK SMILES IDX 1 13 25 14 7 15 8 16 9 18 10 19 19 20 11 21 23 22 18 23
REMARK SMILES IDX 13 24 12 25 20 26 22 27 17 28 14 29 21 30 15 31 16 32
REMARK H PARENT 8 17
ROOT
ATOM      1  C   UNL     1     -18.976 -40.305  21.622  1.00  0.00     0.163 C 
ENDROOT
BRANCH   1   2
ATOM      2  N   UNL     1     -19.742 -41.365  20.957  1.00  0.00    -0.283 NA
BRANCH   2   3
ATOM      3  C   UNL     1     -20.733 -41.062  20.190  1.00  0.00     0.091 C 
ATOM      4  C   UNL     1     -21.968 -41.876  19.969  1.00  0.00     0.141 C 
ATOM      5  C   UNL     1     -23.215 -41.103  19.658  1.00  0.00     0.169 C 
ATOM      6  C   UNL     1     -23.106 -39.708  19.174  1.00  0.00     0.029 A 
ATOM      7  C   UNL     1     -20.627 -39.777  19.397  1.00  0.00     0.207 C 
ATOM      8  C   UNL     1     -24.275 -39.014  18.830  1.00  0.00     0.012 A 
ATOM      9  C   UNL     1     -21.869 -39.085  19.026  1.00  0.00     0.035 A 
ATOM     10  C   UNL     1     -24.201 -37.710  18.337  1.00  0.00     0.001 A 
ATOM     11  C   UNL     1     -21.796 -37.778  18.523  1.00  0.00     0.013 A 
ATOM     12  C   UNL     1     -22.962 -37.094  18.180  1.00  0.00     0.001 A 
ATOM     13  O   UNL     1     -24.323 -41.624  19.760  1.00  0.00    -0.294 OA
ATOM     14  O   UNL     1     -19.529 -39.333  19.093  1.00  0.00    -0.287 OA
ENDBRANCH   2   3
ENDBRANCH   1   2
BRANCH   1  15
ATOM     15  C   UNL     1     -17.718 -40.936  22.247  1.00  0.00     0.136 C 
BRANCH  15  16
ATOM     16  N   UNL     1     -18.055 -42.289  22.733  1.00  0.00    -0.382 N 
ATOM     17  H   UNL     1     -17.398 -42.938  22.292  1.00  0.00     0.160 HD
BRANCH  16  18
ATOM     18  C   UNL     1     -17.933 -42.386  24.150  1.00  0.00     0.049 A 
ATOM     19  C   UNL     1     -19.036 -42.027  24.950  1.00  0.00    -0.003 A 
ATOM     20  C   UNL     1     -16.701 -42.753  24.766  1.00  0.00     0.024 A 
ATOM     21  C   UNL     1     -18.867 -42.041  26.334  1.00  0.00     0.046 A 
ATOM     22  C   UNL     1     -20.348 -41.609  24.329  1.00  0.00     0.039 C 
ATOM     23  C   UNL     1     -15.525 -43.122  24.062  1.00  0.00     0.014 A 
ATOM     24  C   UNL     1     -16.659 -42.743  26.176  1.00  0.00     0.074 A 
ATOM     25  N   UNL     1     -17.708 -42.399  26.935  1.00  0.00    -0.252 NA
ATOM     26  C   UNL     1     -20.000 -41.717  27.274  1.00  0.00     0.056 C 
ATOM     27  C   UNL     1     -21.525 -41.631  25.304  1.00  0.00     0.005 C 
ATOM     28  C   UNL     1     -14.356 -43.475  24.735  1.00  0.00     0.021 A 
ATOM     29  C   UNL     1     -15.488 -43.098  26.828  1.00  0.00     0.049 A 
ATOM     30  C   UNL     1     -21.141 -40.954  26.611  1.00  0.00     0.007 C 
ATOM     31  C   UNL     1     -14.345 -43.461  26.120  1.00  0.00     0.043 A 
ATOM     32  Cl  UNL     1     -12.912 -43.892  26.969  1.00  0.00    -0.084 Cl
ENDBRANCH  16  18
ENDBRANCH  15  16
ENDBRANCH   1  15
TORSDOF 5
ENDMDL
