MODEL 1
REMARK VINA RESULT:   -10.716      0.000      0.000
REMARK INTER + INTRA:         -16.891
REMARK INTER:                 -16.040
REMARK INTRA:                  -0.851
REMARK UNBOUND:                -0.851
REMARK SMILES COc1cc2c(cc1OC)S[C@@H](C(O)=CCc1cc[n+](Cc3ccccc3)cc1)C2
REMARK SMILES IDX 15 1 13 2 14 3 12 5 30 6 11 7 5 8 6 9 4 10 7 11 3 12 8 13
REMARK SMILES IDX 2 14 1 15 9 16 10 17 16 18 17 19 18 20 29 21 19 22 28 23
REMARK SMILES IDX 20 24 21 25 22 26 23 27 27 28 24 29 26 30 25 31
REMARK H PARENT 14 4
ROOT
ATOM      1  C   UNL     1     -11.958 -45.497  28.078  1.00  0.00     0.020 C 
ENDROOT
BRANCH   1   2
ATOM      2  C   UNL     1     -11.126 -46.159  28.896  1.00  0.00     0.102 C 
BRANCH   2   3
ATOM      3  O   UNL     1      -9.895 -46.527  28.362  1.00  0.00    -0.511 OA
ATOM      4  H   UNL     1      -9.843 -46.176  27.450  1.00  0.00     0.293 HD
ENDBRANCH   2   3
BRANCH   2   5
ATOM      5  C   UNL     1     -11.381 -46.521  30.353  1.00  0.00     0.121 C 
ATOM      6  C   UNL     1     -10.444 -45.782  31.333  1.00  0.00     0.059 C 
ATOM      7  S   UNL     1     -13.097 -46.075  30.807  1.00  0.00    -0.114 SA
ATOM      8  C   UNL     1     -11.199 -44.629  31.933  1.00  0.00    -0.029 A 
ATOM      9  C   UNL     1     -12.580 -44.690  31.774  1.00  0.00     0.015 A 
ATOM     10  C   UNL     1     -10.618 -43.584  32.651  1.00  0.00     0.055 A 
ATOM     11  C   UNL     1     -13.403 -43.719  32.316  1.00  0.00     0.065 A 
ATOM     12  C   UNL     1     -11.431 -42.581  33.202  1.00  0.00     0.161 A 
ATOM     13  C   UNL     1     -12.832 -42.672  33.051  1.00  0.00     0.161 A 
BRANCH  12  14
ATOM     14  O   UNL     1     -10.943 -41.493  33.876  1.00  0.00    -0.493 OA
ATOM     15  C   UNL     1      -9.810 -41.674  34.713  1.00  0.00     0.278 C 
ENDBRANCH  12  14
BRANCH  13  16
ATOM     16  O   UNL     1     -13.746 -41.761  33.517  1.00  0.00    -0.493 OA
ATOM     17  C   UNL     1     -15.052 -41.874  32.956  1.00  0.00     0.278 C 
ENDBRANCH  13  16
ENDBRANCH   2   5
ENDBRANCH   1   2
BRANCH   1  18
ATOM     18  C   UNL     1     -12.876 -46.064  27.035  1.00  0.00     0.067 C 
BRANCH  18  19
ATOM     19  C   UNL     1     -13.840 -45.019  26.513  1.00  0.00    -0.032 A 
ATOM     20  C   UNL     1     -14.464 -44.124  27.383  1.00  0.00     0.075 A 
ATOM     21  C   UNL     1     -14.159 -44.958  25.155  1.00  0.00     0.075 A 
ATOM     22  C   UNL     1     -15.373 -43.195  26.886  1.00  0.00     0.308 A 
ATOM     23  C   UNL     1     -15.074 -44.013  24.702  1.00  0.00     0.308 A 
ATOM     24  N   UNL     1     -15.660 -43.150  25.565  1.00  0.00    -0.201 N 
BRANCH  24  25
ATOM     25  C   UNL     1     -16.644 -42.161  25.054  1.00  0.00     0.393 C 
BRANCH  25  26
ATOM     26  C   UNL     1     -18.044 -42.515  25.484  1.00  0.00     0.017 A 
ATOM     27  C   UNL     1     -18.505 -42.195  26.771  1.00  0.00     0.010 A 
ATOM     28  C   UNL     1     -18.908 -43.182  24.600  1.00  0.00     0.010 A 
ATOM     29  C   UNL     1     -19.807 -42.520  27.156  1.00  0.00     0.001 A 
ATOM     30  C   UNL     1     -20.207 -43.505  24.990  1.00  0.00     0.001 A 
ATOM     31  C   UNL     1     -20.656 -43.173  26.266  1.00  0.00     0.000 A 
ENDBRANCH  25  26
ENDBRANCH  24  25
ENDBRANCH  18  19
ENDBRANCH   1  18
TORSDOF 9
ENDMDL
MODEL 2
REMARK VINA RESULT:   -10.562      2.047      3.206
REMARK INTER + INTRA:         -16.661
REMARK INTER:                 -15.987
REMARK INTRA:                  -0.674
REMARK UNBOUND:                -0.851
REMARK SMILES COc1cc2c(cc1OC)S[C@@H](C(O)=CCc1cc[n+](Cc3ccccc3)cc1)C2
REMARK SMILES IDX 15 1 13 2 14 3 12 5 30 6 11 7 5 8 6 9 4 10 7 11 3 12 8 13
REMARK SMILES IDX 2 14 1 15 9 16 10 17 16 18 17 19 18 20 29 21 19 22 28 23
REMARK SMILES IDX 20 24 21 25 22 26 23 27 27 28 24 29 26 30 25 31
REMARK H PARENT 14 4
ROOT
ATOM      1  C   UNL     1     -13.524 -45.080  28.414  1.00  0.00     0.020 C 
ENDROOT
BRANCH   1   2
ATOM      2  C   UNL     1     -14.137 -44.799  29.574  1.00  0.00     0.102 C 
BRANCH   2   3
ATOM      3  O   UNL     1     -15.231 -43.943  29.504  1.00  0.00    -0.511 OA
ATOM      4  H   UNL     1     -15.603 -43.999  28.601  1.00  0.00     0.293 HD
ENDBRANCH   2   3
BRANCH   2   5
ATOM      5  C   UNL     1     -13.774 -45.344  30.948  1.00  0.00     0.121 C 
ATOM      6  C   UNL     1     -12.435 -46.113  30.959  1.00  0.00     0.059 C 
ATOM      7  S   UNL     1     -13.613 -43.961  32.137  1.00  0.00    -0.114 SA
ATOM      8  C   UNL     1     -11.372 -45.205  31.511  1.00  0.00    -0.029 A 
ATOM      9  C   UNL     1     -11.852 -44.086  32.185  1.00  0.00     0.015 A 
ATOM     10  C   UNL     1     -10.000 -45.445  31.431  1.00  0.00     0.055 A 
ATOM     11  C   UNL     1     -10.985 -43.189  32.784  1.00  0.00     0.065 A 
ATOM     12  C   UNL     1      -9.100 -44.543  32.022  1.00  0.00     0.161 A 
ATOM     13  C   UNL     1      -9.606 -43.426  32.722  1.00  0.00     0.161 A 
BRANCH  12  14
ATOM     14  O   UNL     1      -7.739 -44.672  31.948  1.00  0.00    -0.493 OA
ATOM     15  C   UNL     1      -7.204 -45.681  31.102  1.00  0.00     0.278 C 
ENDBRANCH  12  14
BRANCH  13  16
ATOM     16  O   UNL     1      -8.851 -42.456  33.331  1.00  0.00    -0.493 OA
ATOM     17  C   UNL     1      -9.298 -42.067  34.627  1.00  0.00     0.278 C 
ENDBRANCH  13  16
ENDBRANCH   2   5
ENDBRANCH   1   2
BRANCH   1  18
ATOM     18  C   UNL     1     -12.865 -44.127  27.460  1.00  0.00     0.067 C 
BRANCH  18  19
ATOM     19  C   UNL     1     -13.801 -43.726  26.338  1.00  0.00    -0.032 A 
ATOM     20  C   UNL     1     -14.169 -44.642  25.352  1.00  0.00     0.075 A 
ATOM     21  C   UNL     1     -14.278 -42.418  26.241  1.00  0.00     0.075 A 
ATOM     22  C   UNL     1     -15.000 -44.242  24.311  1.00  0.00     0.308 A 
ATOM     23  C   UNL     1     -15.108 -42.062  25.182  1.00  0.00     0.308 A 
ATOM     24  N   UNL     1     -15.457 -42.971  24.242  1.00  0.00    -0.201 N 
BRANCH  24  25
ATOM     25  C   UNL     1     -16.333 -42.559  23.116  1.00  0.00     0.393 C 
BRANCH  25  26
ATOM     26  C   UNL     1     -17.687 -42.122  23.611  1.00  0.00     0.017 A 
ATOM     27  C   UNL     1     -18.541 -41.362  22.796  1.00  0.00     0.010 A 
ATOM     28  C   UNL     1     -18.112 -42.464  24.905  1.00  0.00     0.010 A 
ATOM     29  C   UNL     1     -19.797 -40.969  23.261  1.00  0.00     0.001 A 
ATOM     30  C   UNL     1     -19.368 -42.069  25.364  1.00  0.00     0.001 A 
ATOM     31  C   UNL     1     -20.210 -41.323  24.542  1.00  0.00     0.000 A 
ENDBRANCH  25  26
ENDBRANCH  24  25
ENDBRANCH  18  19
ENDBRANCH   1  18
TORSDOF 9
ENDMDL
MODEL 3
REMARK VINA RESULT:   -10.289      3.757      9.430
REMARK INTER + INTRA:         -16.253
REMARK INTER:                 -15.372
REMARK INTRA:                  -0.882
REMARK UNBOUND:                -0.851
REMARK SMILES COc1cc2c(cc1OC)S[C@@H](C(O)=CCc1cc[n+](Cc3ccccc3)cc1)C2
REMARK SMILES IDX 15 1 13 2 14 3 12 5 30 6 11 7 5 8 6 9 4 10 7 11 3 12 8 13
REMARK SMILES IDX 2 14 1 15 9 16 10 17 16 18 17 19 18 20 29 21 19 22 28 23
REMARK SMILES IDX 20 24 21 25 22 26 23 27 27 28 24 29 26 30 25 31
REMARK H PARENT 14 4
ROOT
ATOM      1  C   UNL     1     -14.243 -44.497  26.430  1.00  0.00     0.020 C 
ENDROOT
BRANCH   1   2
ATOM      2  C   UNL     1     -14.670 -43.788  25.373  1.00  0.00     0.102 C 
BRANCH   2   3
ATOM      3  O   UNL     1     -14.381 -44.314  24.118  1.00  0.00    -0.511 OA
ATOM      4  H   UNL     1     -13.733 -43.724  23.683  1.00  0.00     0.293 HD
ENDBRANCH   2   3
BRANCH   2   5
ATOM      5  C   UNL     1     -15.458 -42.487  25.410  1.00  0.00     0.121 C 
ATOM      6  C   UNL     1     -16.650 -42.474  24.428  1.00  0.00     0.059 C 
ATOM      7  S   UNL     1     -16.140 -42.227  27.089  1.00  0.00    -0.114 SA
ATOM      8  C   UNL     1     -17.906 -42.759  25.203  1.00  0.00    -0.029 A 
ATOM      9  C   UNL     1     -17.786 -42.615  26.582  1.00  0.00     0.015 A 
ATOM     10  C   UNL     1     -19.136 -43.089  24.633  1.00  0.00     0.055 A 
ATOM     11  C   UNL     1     -18.876 -42.801  27.414  1.00  0.00     0.065 A 
ATOM     12  C   UNL     1     -20.253 -43.293  25.458  1.00  0.00     0.161 A 
ATOM     13  C   UNL     1     -20.118 -43.120  26.853  1.00  0.00     0.161 A 
BRANCH  12  14
ATOM     14  O   UNL     1     -21.484 -43.670  24.990  1.00  0.00    -0.493 OA
ATOM     15  C   UNL     1     -21.705 -45.046  24.715  1.00  0.00     0.278 C 
ENDBRANCH  12  14
BRANCH  13  16
ATOM     16  O   UNL     1     -21.113 -43.302  27.780  1.00  0.00    -0.493 OA
ATOM     17  C   UNL     1     -21.160 -44.599  28.369  1.00  0.00     0.278 C 
ENDBRANCH  13  16
ENDBRANCH   2   5
ENDBRANCH   1   2
BRANCH   1  18
ATOM     18  C   UNL     1     -13.421 -45.752  26.432  1.00  0.00     0.067 C 
BRANCH  18  19
ATOM     19  C   UNL     1     -12.672 -45.925  27.737  1.00  0.00    -0.032 A 
ATOM     20  C   UNL     1     -11.343 -46.351  27.747  1.00  0.00     0.075 A 
ATOM     21  C   UNL     1     -13.309 -45.706  28.960  1.00  0.00     0.075 A 
ATOM     22  C   UNL     1     -10.685 -46.537  28.959  1.00  0.00     0.308 A 
ATOM     23  C   UNL     1     -12.612 -45.905  30.148  1.00  0.00     0.308 A 
ATOM     24  N   UNL     1     -11.320 -46.311  30.131  1.00  0.00    -0.201 N 
BRANCH  24  25
ATOM     25  C   UNL     1     -10.607 -46.529  31.415  1.00  0.00     0.393 C 
BRANCH  25  26
ATOM     26  C   UNL     1      -9.540 -45.486  31.628  1.00  0.00     0.017 A 
ATOM     27  C   UNL     1      -9.861 -44.224  32.154  1.00  0.00     0.010 A 
ATOM     28  C   UNL     1      -8.204 -45.762  31.295  1.00  0.00     0.010 A 
ATOM     29  C   UNL     1      -8.865 -43.268  32.355  1.00  0.00     0.001 A 
ATOM     30  C   UNL     1      -7.212 -44.802  31.498  1.00  0.00     0.001 A 
ATOM     31  C   UNL     1      -7.542 -43.558  32.029  1.00  0.00     0.000 A 
ENDBRANCH  25  26
ENDBRANCH  24  25
ENDBRANCH  18  19
ENDBRANCH   1  18
TORSDOF 9
ENDMDL
MODEL 4
REMARK VINA RESULT:   -10.203      3.856      9.470
REMARK INTER + INTRA:         -16.124
REMARK INTER:                 -15.636
REMARK INTRA:                  -0.489
REMARK UNBOUND:                -0.851
REMARK SMILES COc1cc2c(cc1OC)S[C@@H](C(O)=CCc1cc[n+](Cc3ccccc3)cc1)C2
REMARK SMILES IDX 15 1 13 2 14 3 12 5 30 6 11 7 5 8 6 9 4 10 7 11 3 12 8 13
REMARK SMILES IDX 2 14 1 15 9 16 10 17 16 18 17 19 18 20 29 21 19 22 28 23
REMARK SMILES IDX 20 24 21 25 22 26 23 27 27 28 24 29 26 30 25 31
REMARK H PARENT 14 4
ROOT
ATOM      1  C   UNL     1     -13.763 -45.098  27.283  1.00  0.00     0.020 C 
ENDROOT
BRANCH   1   2
ATOM      2  C   UNL     1     -14.162 -44.414  26.201  1.00  0.00     0.102 C 
BRANCH   2   3
ATOM      3  O   UNL     1     -14.239 -45.128  25.010  1.00  0.00    -0.511 OA
ATOM      4  H   UNL     1     -13.573 -45.845  25.042  1.00  0.00     0.293 HD
ENDBRANCH   2   3
BRANCH   2   5
ATOM      5  C   UNL     1     -14.564 -42.946  26.151  1.00  0.00     0.121 C 
ATOM      6  C   UNL     1     -14.947 -42.472  24.732  1.00  0.00     0.059 C 
ATOM      7  S   UNL     1     -16.022 -42.669  27.224  1.00  0.00    -0.114 SA
ATOM      8  C   UNL     1     -16.447 -42.444  24.630  1.00  0.00    -0.029 A 
ATOM      9  C   UNL     1     -17.116 -42.488  25.849  1.00  0.00     0.015 A 
ATOM     10  C   UNL     1     -17.161 -42.326  23.437  1.00  0.00     0.055 A 
ATOM     11  C   UNL     1     -18.497 -42.423  25.906  1.00  0.00     0.065 A 
ATOM     12  C   UNL     1     -18.563 -42.269  23.470  1.00  0.00     0.161 A 
ATOM     13  C   UNL     1     -19.224 -42.291  24.717  1.00  0.00     0.161 A 
BRANCH  12  14
ATOM     14  O   UNL     1     -19.347 -42.206  22.348  1.00  0.00    -0.493 OA
ATOM     15  C   UNL     1     -19.535 -40.940  21.730  1.00  0.00     0.278 C 
ENDBRANCH  12  14
BRANCH  13  16
ATOM     16  O   UNL     1     -20.584 -42.261  24.902  1.00  0.00    -0.493 OA
ATOM     17  C   UNL     1     -21.008 -41.841  26.196  1.00  0.00     0.278 C 
ENDBRANCH  13  16
ENDBRANCH   2   5
ENDBRANCH   1   2
BRANCH   1  18
ATOM     18  C   UNL     1     -12.655 -46.105  27.386  1.00  0.00     0.067 C 
BRANCH  18  19
ATOM     19  C   UNL     1     -11.549 -45.626  28.303  1.00  0.00    -0.032 A 
ATOM     20  C   UNL     1     -10.937 -46.501  29.202  1.00  0.00     0.075 A 
ATOM     21  C   UNL     1     -11.150 -44.289  28.302  1.00  0.00     0.075 A 
ATOM     22  C   UNL     1      -9.949 -46.031  30.061  1.00  0.00     0.308 A 
ATOM     23  C   UNL     1     -10.157 -43.862  29.178  1.00  0.00     0.308 A 
ATOM     24  N   UNL     1      -9.573 -44.732  30.035  1.00  0.00    -0.201 N 
BRANCH  24  25
ATOM     25  C   UNL     1      -8.526 -44.246  30.969  1.00  0.00     0.393 C 
BRANCH  25  26
ATOM     26  C   UNL     1      -9.136 -43.531  32.147  1.00  0.00     0.017 A 
ATOM     27  C   UNL     1     -10.526 -43.356  32.241  1.00  0.00     0.010 A 
ATOM     28  C   UNL     1      -8.318 -43.019  33.166  1.00  0.00     0.010 A 
ATOM     29  C   UNL     1     -11.083 -42.700  33.340  1.00  0.00     0.001 A 
ATOM     30  C   UNL     1      -8.880 -42.364  34.262  1.00  0.00     0.001 A 
ATOM     31  C   UNL     1     -10.260 -42.206  34.349  1.00  0.00     0.000 A 
ENDBRANCH  25  26
ENDBRANCH  24  25
ENDBRANCH  18  19
ENDBRANCH   1  18
TORSDOF 9
ENDMDL
MODEL 5
REMARK VINA RESULT:   -10.145      2.619      3.816
REMARK INTER + INTRA:         -16.037
REMARK INTER:                 -15.854
REMARK INTRA:                  -0.184
REMARK UNBOUND:                -0.851
REMARK SMILES COc1cc2c(cc1OC)S[C@@H](C(O)=CCc1cc[n+](Cc3ccccc3)cc1)C2
REMARK SMILES IDX 15 1 13 2 14 3 12 5 30 6 11 7 5 8 6 9 4 10 7 11 3 12 8 13
REMARK SMILES IDX 2 14 1 15 9 16 10 17 16 18 17 19 18 20 29 21 19 22 28 23
REMARK SMILES IDX 20 24 21 25 22 26 23 27 27 28 24 29 26 30 25 31
REMARK H PARENT 14 4
ROOT
ATOM      1  C   UNL     1     -14.338 -44.581  28.726  1.00  0.00     0.020 C 
ENDROOT
BRANCH   1   2
ATOM      2  C   UNL     1     -13.623 -45.416  29.495  1.00  0.00     0.102 C 
BRANCH   2   3
ATOM      3  O   UNL     1     -14.159 -45.722  30.741  1.00  0.00    -0.511 OA
ATOM      4  H   UNL     1     -13.480 -46.205  31.254  1.00  0.00     0.293 HD
ENDBRANCH   2   3
BRANCH   2   5
ATOM      5  C   UNL     1     -12.302 -46.079  29.131  1.00  0.00     0.121 C 
ATOM      6  C   UNL     1     -11.503 -45.292  28.069  1.00  0.00     0.059 C 
ATOM      7  S   UNL     1     -11.244 -46.205  30.619  1.00  0.00    -0.114 SA
ATOM      8  C   UNL     1     -10.425 -44.511  28.770  1.00  0.00    -0.029 A 
ATOM      9  C   UNL     1     -10.163 -44.920  30.074  1.00  0.00     0.015 A 
ATOM     10  C   UNL     1      -9.678 -43.487  28.188  1.00  0.00     0.055 A 
ATOM     11  C   UNL     1      -9.164 -44.320  30.820  1.00  0.00     0.065 A 
ATOM     12  C   UNL     1      -8.667 -42.856  28.929  1.00  0.00     0.161 A 
ATOM     13  C   UNL     1      -8.399 -43.300  30.243  1.00  0.00     0.161 A 
BRANCH  12  14
ATOM     14  O   UNL     1      -7.921 -41.809  28.457  1.00  0.00    -0.493 OA
ATOM     15  C   UNL     1      -7.827 -41.631  27.051  1.00  0.00     0.278 C 
ENDBRANCH  12  14
BRANCH  13  16
ATOM     16  O   UNL     1      -7.458 -42.768  31.089  1.00  0.00    -0.493 OA
ATOM     17  C   UNL     1      -7.350 -43.414  32.355  1.00  0.00     0.278 C 
ENDBRANCH  13  16
ENDBRANCH   2   5
ENDBRANCH   1   2
BRANCH   1  18
ATOM     18  C   UNL     1     -13.950 -43.971  27.411  1.00  0.00     0.067 C 
BRANCH  18  19
ATOM     19  C   UNL     1     -15.156 -43.437  26.666  1.00  0.00    -0.032 A 
ATOM     20  C   UNL     1     -16.223 -42.859  27.354  1.00  0.00     0.075 A 
ATOM     21  C   UNL     1     -15.246 -43.554  25.278  1.00  0.00     0.075 A 
ATOM     22  C   UNL     1     -17.336 -42.407  26.653  1.00  0.00     0.308 A 
ATOM     23  C   UNL     1     -16.378 -43.089  24.617  1.00  0.00     0.308 A 
ATOM     24  N   UNL     1     -17.397 -42.524  25.307  1.00  0.00    -0.201 N 
BRANCH  24  25
ATOM     25  C   UNL     1     -18.600 -42.049  24.576  1.00  0.00     0.393 C 
BRANCH  25  26
ATOM     26  C   UNL     1     -19.853 -42.285  25.380  1.00  0.00     0.017 A 
ATOM     27  C   UNL     1     -20.536 -41.214  25.978  1.00  0.00     0.010 A 
ATOM     28  C   UNL     1     -20.351 -43.587  25.548  1.00  0.00     0.010 A 
ATOM     29  C   UNL     1     -21.700 -41.442  26.713  1.00  0.00     0.001 A 
ATOM     30  C   UNL     1     -21.515 -43.808  26.285  1.00  0.00     0.001 A 
ATOM     31  C   UNL     1     -22.189 -42.737  26.865  1.00  0.00     0.000 A 
ENDBRANCH  25  26
ENDBRANCH  24  25
ENDBRANCH  18  19
ENDBRANCH   1  18
TORSDOF 9
ENDMDL
MODEL 6
REMARK VINA RESULT:   -10.061      4.921     10.518
REMARK INTER + INTRA:         -15.911
REMARK INTER:                 -15.058
REMARK INTRA:                  -0.853
REMARK UNBOUND:                -0.851
REMARK SMILES COc1cc2c(cc1OC)S[C@@H](C(O)=CCc1cc[n+](Cc3ccccc3)cc1)C2
REMARK SMILES IDX 15 1 13 2 14 3 12 5 30 6 11 7 5 8 6 9 4 10 7 11 3 12 8 13
REMARK SMILES IDX 2 14 1 15 9 16 10 17 16 18 17 19 18 20 29 21 19 22 28 23
REMARK SMILES IDX 20 24 21 25 22 26 23 27 27 28 24 29 26 30 25 31
REMARK H PARENT 14 4
ROOT
ATOM      1  C   UNL     1     -15.356 -42.855  25.867  1.00  0.00     0.020 C 
ENDROOT
BRANCH   1   2
ATOM      2  C   UNL     1     -16.666 -42.756  25.595  1.00  0.00     0.102 C 
BRANCH   2   3
ATOM      3  O   UNL     1     -17.445 -42.088  26.533  1.00  0.00    -0.511 OA
ATOM      4  H   UNL     1     -18.069 -41.508  26.052  1.00  0.00     0.293 HD
ENDBRANCH   2   3
BRANCH   2   5
ATOM      5  C   UNL     1     -17.377 -43.277  24.354  1.00  0.00     0.121 C 
ATOM      6  C   UNL     1     -18.915 -43.172  24.450  1.00  0.00     0.059 C 
ATOM      7  S   UNL     1     -16.861 -42.303  22.893  1.00  0.00    -0.114 SA
ATOM      8  C   UNL     1     -19.358 -41.963  23.674  1.00  0.00    -0.029 A 
ATOM      9  C   UNL     1     -18.405 -41.452  22.798  1.00  0.00     0.015 A 
ATOM     10  C   UNL     1     -20.629 -41.393  23.745  1.00  0.00     0.055 A 
ATOM     11  C   UNL     1     -18.694 -40.369  21.986  1.00  0.00     0.065 A 
ATOM     12  C   UNL     1     -20.941 -40.287  22.939  1.00  0.00     0.161 A 
ATOM     13  C   UNL     1     -19.970 -39.796  22.039  1.00  0.00     0.161 A 
BRANCH  12  14
ATOM     14  O   UNL     1     -22.144 -39.633  22.981  1.00  0.00    -0.493 OA
ATOM     15  C   UNL     1     -23.174 -40.064  22.103  1.00  0.00     0.278 C 
ENDBRANCH  12  14
BRANCH  13  16
ATOM     16  O   UNL     1     -20.126 -38.717  21.206  1.00  0.00    -0.493 OA
ATOM     17  C   UNL     1     -20.174 -39.027  19.816  1.00  0.00     0.278 C 
ENDBRANCH  13  16
ENDBRANCH   2   5
ENDBRANCH   1   2
BRANCH   1  18
ATOM     18  C   UNL     1     -14.465 -44.052  25.710  1.00  0.00     0.067 C 
BRANCH  18  19
ATOM     19  C   UNL     1     -14.079 -44.641  27.051  1.00  0.00    -0.032 A 
ATOM     20  C   UNL     1     -14.624 -44.140  28.234  1.00  0.00     0.075 A 
ATOM     21  C   UNL     1     -13.136 -45.666  27.136  1.00  0.00     0.075 A 
ATOM     22  C   UNL     1     -14.229 -44.672  29.458  1.00  0.00     0.308 A 
ATOM     23  C   UNL     1     -12.770 -46.168  28.381  1.00  0.00     0.308 A 
ATOM     24  N   UNL     1     -13.319 -45.671  29.514  1.00  0.00    -0.201 N 
BRANCH  24  25
ATOM     25  C   UNL     1     -12.898 -46.216  30.830  1.00  0.00     0.393 C 
BRANCH  25  26
ATOM     26  C   UNL     1     -11.565 -45.654  31.251  1.00  0.00     0.017 A 
ATOM     27  C   UNL     1     -11.470 -44.370  31.811  1.00  0.00     0.010 A 
ATOM     28  C   UNL     1     -10.393 -46.408  31.080  1.00  0.00     0.010 A 
ATOM     29  C   UNL     1     -10.232 -43.861  32.205  1.00  0.00     0.001 A 
ATOM     30  C   UNL     1      -9.158 -45.894  31.475  1.00  0.00     0.001 A 
ATOM     31  C   UNL     1      -9.078 -44.623  32.039  1.00  0.00     0.000 A 
ENDBRANCH  25  26
ENDBRANCH  24  25
ENDBRANCH  18  19
ENDBRANCH   1  18
TORSDOF 9
ENDMDL
MODEL 7
REMARK VINA RESULT:   -10.012      1.466      2.205
REMARK INTER + INTRA:         -15.838
REMARK INTER:                 -14.916
REMARK INTRA:                  -0.922
REMARK UNBOUND:                -0.851
REMARK SMILES COc1cc2c(cc1OC)S[C@@H](C(O)=CCc1cc[n+](Cc3ccccc3)cc1)C2
REMARK SMILES IDX 15 1 13 2 14 3 12 5 30 6 11 7 5 8 6 9 4 10 7 11 3 12 8 13
REMARK SMILES IDX 2 14 1 15 9 16 10 17 16 18 17 19 18 20 29 21 19 22 28 23
REMARK SMILES IDX 20 24 21 25 22 26 23 27 27 28 24 29 26 30 25 31
REMARK H PARENT 14 4
ROOT
ATOM      1  C   UNL     1     -13.411 -44.382  27.075  1.00  0.00     0.020 C 
ENDROOT
BRANCH   1   2
ATOM      2  C   UNL     1     -12.499 -44.204  28.043  1.00  0.00     0.102 C 
BRANCH   2   3
ATOM      3  O   UNL     1     -11.668 -43.097  27.914  1.00  0.00    -0.511 OA
ATOM      4  H   UNL     1     -12.225 -42.322  27.699  1.00  0.00     0.293 HD
ENDBRANCH   2   3
BRANCH   2   5
ATOM      5  C   UNL     1     -12.303 -45.074  29.276  1.00  0.00     0.121 C 
ATOM      6  C   UNL     1     -11.205 -44.541  30.223  1.00  0.00     0.059 C 
ATOM      7  S   UNL     1     -13.859 -45.142  30.238  1.00  0.00    -0.114 SA
ATOM      8  C   UNL     1     -11.871 -43.821  31.363  1.00  0.00    -0.029 A 
ATOM      9  C   UNL     1     -13.229 -44.088  31.508  1.00  0.00     0.015 A 
ATOM     10  C   UNL     1     -11.217 -42.986  32.269  1.00  0.00     0.055 A 
ATOM     11  C   UNL     1     -13.958 -43.530  32.543  1.00  0.00     0.065 A 
ATOM     12  C   UNL     1     -11.937 -42.400  33.321  1.00  0.00     0.161 A 
ATOM     13  C   UNL     1     -13.309 -42.701  33.466  1.00  0.00     0.161 A 
BRANCH  12  14
ATOM     14  O   UNL     1     -11.389 -41.528  34.223  1.00  0.00    -0.493 OA
ATOM     15  C   UNL     1     -10.104 -41.828  34.751  1.00  0.00     0.278 C 
ENDBRANCH  12  14
BRANCH  13  16
ATOM     16  O   UNL     1     -14.141 -42.190  34.430  1.00  0.00    -0.493 OA
ATOM     17  C   UNL     1     -15.164 -41.322  33.949  1.00  0.00     0.278 C 
ENDBRANCH  13  16
ENDBRANCH   2   5
ENDBRANCH   1   2
BRANCH   1  18
ATOM     18  C   UNL     1     -13.695 -43.498  25.896  1.00  0.00     0.067 C 
BRANCH  18  19
ATOM     19  C   UNL     1     -15.150 -43.081  25.849  1.00  0.00    -0.032 A 
ATOM     20  C   UNL     1     -15.846 -42.783  27.021  1.00  0.00     0.075 A 
ATOM     21  C   UNL     1     -15.839 -43.030  24.636  1.00  0.00     0.075 A 
ATOM     22  C   UNL     1     -17.192 -42.437  26.957  1.00  0.00     0.308 A 
ATOM     23  C   UNL     1     -17.185 -42.679  24.619  1.00  0.00     0.308 A 
ATOM     24  N   UNL     1     -17.837 -42.386  25.769  1.00  0.00    -0.201 N 
BRANCH  24  25
ATOM     25  C   UNL     1     -19.277 -42.029  25.722  1.00  0.00     0.393 C 
BRANCH  25  26
ATOM     26  C   UNL     1     -20.143 -43.209  26.082  1.00  0.00     0.017 A 
ATOM     27  C   UNL     1     -20.538 -44.137  25.106  1.00  0.00     0.010 A 
ATOM     28  C   UNL     1     -20.575 -43.391  27.406  1.00  0.00     0.010 A 
ATOM     29  C   UNL     1     -21.333 -45.231  25.451  1.00  0.00     0.001 A 
ATOM     30  C   UNL     1     -21.370 -44.486  27.745  1.00  0.00     0.001 A 
ATOM     31  C   UNL     1     -21.746 -45.405  26.769  1.00  0.00     0.000 A 
ENDBRANCH  25  26
ENDBRANCH  24  25
ENDBRANCH  18  19
ENDBRANCH   1  18
TORSDOF 9
ENDMDL
MODEL 8
REMARK VINA RESULT:    -9.976      1.891      3.101
REMARK INTER + INTRA:         -15.785
REMARK INTER:                 -15.024
REMARK INTRA:                  -0.761
REMARK UNBOUND:                -0.851
REMARK SMILES COc1cc2c(cc1OC)S[C@@H](C(O)=CCc1cc[n+](Cc3ccccc3)cc1)C2
REMARK SMILES IDX 15 1 13 2 14 3 12 5 30 6 11 7 5 8 6 9 4 10 7 11 3 12 8 13
REMARK SMILES IDX 2 14 1 15 9 16 10 17 16 18 17 19 18 20 29 21 19 22 28 23
REMARK SMILES IDX 20 24 21 25 22 26 23 27 27 28 24 29 26 30 25 31
REMARK H PARENT 14 4
ROOT
ATOM      1  C   UNL     1     -13.918 -44.667  26.603  1.00  0.00     0.020 C 
ENDROOT
BRANCH   1   2
ATOM      2  C   UNL     1     -13.102 -44.565  27.663  1.00  0.00     0.102 C 
BRANCH   2   3
ATOM      3  O   UNL     1     -12.308 -43.425  27.727  1.00  0.00    -0.511 OA
ATOM      4  H   UNL     1     -11.617 -43.498  27.039  1.00  0.00     0.293 HD
ENDBRANCH   2   3
BRANCH   2   5
ATOM      5  C   UNL     1     -12.980 -45.556  28.813  1.00  0.00     0.121 C 
ATOM      6  C   UNL     1     -11.528 -46.025  29.055  1.00  0.00     0.059 C 
ATOM      7  S   UNL     1     -13.561 -44.776  30.364  1.00  0.00    -0.114 SA
ATOM      8  C   UNL     1     -10.971 -45.258  30.221  1.00  0.00    -0.029 A 
ATOM      9  C   UNL     1     -11.923 -44.612  31.004  1.00  0.00     0.015 A 
ATOM     10  C   UNL     1      -9.621 -45.210  30.570  1.00  0.00     0.055 A 
ATOM     11  C   UNL     1     -11.554 -43.907  32.136  1.00  0.00     0.065 A 
ATOM     12  C   UNL     1      -9.222 -44.493  31.709  1.00  0.00     0.161 A 
ATOM     13  C   UNL     1     -10.204 -43.863  32.504  1.00  0.00     0.161 A 
BRANCH  12  14
ATOM     14  O   UNL     1      -7.916 -44.349  32.096  1.00  0.00    -0.493 OA
ATOM     15  C   UNL     1      -6.993 -45.367  31.737  1.00  0.00     0.278 C 
ENDBRANCH  12  14
BRANCH  13  16
ATOM     16  O   UNL     1      -9.962 -43.116  33.629  1.00  0.00    -0.493 OA
ATOM     17  C   UNL     1     -10.924 -42.098  33.897  1.00  0.00     0.278 C 
ENDBRANCH  13  16
ENDBRANCH   2   5
ENDBRANCH   1   2
BRANCH   1  18
ATOM     18  C   UNL     1     -14.358 -43.580  25.666  1.00  0.00     0.067 C 
BRANCH  18  19
ATOM     19  C   UNL     1     -15.744 -43.073  26.013  1.00  0.00    -0.032 A 
ATOM     20  C   UNL     1     -16.111 -42.849  27.340  1.00  0.00     0.075 A 
ATOM     21  C   UNL     1     -16.696 -42.864  25.014  1.00  0.00     0.075 A 
ATOM     22  C   UNL     1     -17.400 -42.418  27.637  1.00  0.00     0.308 A 
ATOM     23  C   UNL     1     -17.974 -42.433  25.358  1.00  0.00     0.308 A 
ATOM     24  N   UNL     1     -18.304 -42.214  26.652  1.00  0.00    -0.201 N 
BRANCH  24  25
ATOM     25  C   UNL     1     -19.680 -41.768  26.990  1.00  0.00     0.393 C 
BRANCH  25  26
ATOM     26  C   UNL     1     -20.640 -42.929  27.008  1.00  0.00     0.017 A 
ATOM     27  C   UNL     1     -20.533 -43.936  27.981  1.00  0.00     0.010 A 
ATOM     28  C   UNL     1     -21.654 -43.024  26.042  1.00  0.00     0.010 A 
ATOM     29  C   UNL     1     -21.432 -45.004  27.994  1.00  0.00     0.001 A 
ATOM     30  C   UNL     1     -22.549 -44.093  26.060  1.00  0.00     0.001 A 
ATOM     31  C   UNL     1     -22.439 -45.081  27.036  1.00  0.00     0.000 A 
ENDBRANCH  25  26
ENDBRANCH  24  25
ENDBRANCH  18  19
ENDBRANCH   1  18
TORSDOF 9
ENDMDL
MODEL 9
REMARK VINA RESULT:    -9.633      2.845      4.336
REMARK INTER + INTRA:         -15.271
REMARK INTER:                 -14.926
REMARK INTRA:                  -0.345
REMARK UNBOUND:                -0.851
REMARK SMILES COc1cc2c(cc1OC)S[C@@H](C(O)=CCc1cc[n+](Cc3ccccc3)cc1)C2
REMARK SMILES IDX 15 1 13 2 14 3 12 5 30 6 11 7 5 8 6 9 4 10 7 11 3 12 8 13
REMARK SMILES IDX 2 14 1 15 9 16 10 17 16 18 17 19 18 20 29 21 19 22 28 23
REMARK SMILES IDX 20 24 21 25 22 26 23 27 27 28 24 29 26 30 25 31
REMARK H PARENT 14 4
ROOT
ATOM      1  C   UNL     1     -14.851 -43.939  26.431  1.00  0.00     0.020 C 
ENDROOT
BRANCH   1   2
ATOM      2  C   UNL     1     -13.745 -44.128  27.167  1.00  0.00     0.102 C 
BRANCH   2   3
ATOM      3  O   UNL     1     -12.810 -43.098  27.157  1.00  0.00    -0.511 OA
ATOM      4  H   UNL     1     -12.209 -43.241  26.398  1.00  0.00     0.293 HD
ENDBRANCH   2   3
BRANCH   2   5
ATOM      5  C   UNL     1     -13.424 -45.341  28.030  1.00  0.00     0.121 C 
ATOM      6  C   UNL     1     -11.942 -45.767  27.945  1.00  0.00     0.059 C 
ATOM      7  S   UNL     1     -13.776 -44.959  29.785  1.00  0.00    -0.114 SA
ATOM      8  C   UNL     1     -11.228 -45.248  29.162  1.00  0.00    -0.029 A 
ATOM      9  C   UNL     1     -12.063 -44.848  30.201  1.00  0.00     0.015 A 
ATOM     10  C   UNL     1      -9.842 -45.202  29.313  1.00  0.00     0.055 A 
ATOM     11  C   UNL     1     -11.540 -44.392  31.399  1.00  0.00     0.065 A 
ATOM     12  C   UNL     1      -9.289 -44.733  30.515  1.00  0.00     0.161 A 
ATOM     13  C   UNL     1     -10.151 -44.353  31.567  1.00  0.00     0.161 A 
BRANCH  12  14
ATOM     14  O   UNL     1      -7.943 -44.604  30.731  1.00  0.00    -0.493 OA
ATOM     15  C   UNL     1      -7.253 -45.689  31.336  1.00  0.00     0.278 C 
ENDBRANCH  12  14
BRANCH  13  16
ATOM     16  O   UNL     1      -9.756 -43.862  32.786  1.00  0.00    -0.493 OA
ATOM     17  C   UNL     1     -10.489 -42.731  33.248  1.00  0.00     0.278 C 
ENDBRANCH  13  16
ENDBRANCH   2   5
ENDBRANCH   1   2
BRANCH   1  18
ATOM     18  C   UNL     1     -14.951 -43.428  25.024  1.00  0.00     0.067 C 
BRANCH  18  19
ATOM     19  C   UNL     1     -16.314 -42.830  24.744  1.00  0.00    -0.032 A 
ATOM     20  C   UNL     1     -17.246 -42.664  25.769  1.00  0.00     0.075 A 
ATOM     21  C   UNL     1     -16.683 -42.474  23.446  1.00  0.00     0.075 A 
ATOM     22  C   UNL     1     -18.505 -42.145  25.483  1.00  0.00     0.308 A 
ATOM     23  C   UNL     1     -17.953 -41.959  23.205  1.00  0.00     0.308 A 
ATOM     24  N   UNL     1     -18.837 -41.799  24.218  1.00  0.00    -0.201 N 
BRANCH  24  25
ATOM     25  C   UNL     1     -20.191 -41.261  23.929  1.00  0.00     0.393 C 
BRANCH  25  26
ATOM     26  C   UNL     1     -20.313 -40.841  22.487  1.00  0.00     0.017 A 
ATOM     27  C   UNL     1     -20.662 -41.771  21.494  1.00  0.00     0.010 A 
ATOM     28  C   UNL     1     -20.069 -39.510  22.114  1.00  0.00     0.010 A 
ATOM     29  C   UNL     1     -20.780 -41.370  20.162  1.00  0.00     0.001 A 
ATOM     30  C   UNL     1     -20.188 -39.116  20.781  1.00  0.00     0.001 A 
ATOM     31  C   UNL     1     -20.545 -40.045  19.807  1.00  0.00     0.000 A 
ENDBRANCH  25  26
ENDBRANCH  24  25
ENDBRANCH  18  19
ENDBRANCH   1  18
TORSDOF 9
ENDMDL
