MODEL 1
REMARK VINA RESULT:   -13.068      0.000      0.000
REMARK INTER + INTRA:         -16.708
REMARK INTER:                 -16.124
REMARK INTRA:                  -0.583
REMARK UNBOUND:                -0.583
REMARK SMILES O=C(Nc1ccc2c(c1)CN(C(=O)c1ccccc1)C(=O)C2)c1cccc(Cl)c1
REMARK SMILES IDX 4 1 5 2 6 3 7 4 8 5 9 6 10 7 11 8 20 9 21 10 22 11 3 12 2 13
REMARK SMILES IDX 1 14 23 16 24 17 29 18 25 19 27 20 26 21 28 22 12 23 13 24
REMARK SMILES IDX 14 25 15 26 19 27 16 28 18 29 17 30
REMARK H PARENT 3 15
ROOT
ATOM      1  C   UNL     1     -13.790 -44.865  26.726  1.00  0.00     0.041 A 
ATOM      2  C   UNL     1     -13.410 -46.184  26.480  1.00  0.00     0.026 A 
ATOM      3  C   UNL     1     -12.300 -46.737  27.127  1.00  0.00     0.007 A 
ATOM      4  C   UNL     1     -11.561 -45.979  28.040  1.00  0.00    -0.033 A 
ATOM      5  C   UNL     1     -11.930 -44.655  28.288  1.00  0.00    -0.022 A 
ATOM      6  C   UNL     1     -13.037 -44.101  27.627  1.00  0.00     0.032 A 
ATOM      7  C   UNL     1     -11.080 -43.842  29.224  1.00  0.00     0.164 C 
ATOM      8  N   UNL     1     -10.543 -44.654  30.307  1.00  0.00    -0.274 N 
ATOM      9  C   UNL     1      -9.956 -45.876  30.026  1.00  0.00     0.234 C 
ATOM     10  O   UNL     1      -9.089 -46.393  30.733  1.00  0.00    -0.274 OA
ATOM     11  C   UNL     1     -10.341 -46.545  28.714  1.00  0.00     0.136 C 
ENDROOT
BRANCH   1  12
ATOM     12  N   UNL     1     -14.891 -44.233  26.108  1.00  0.00    -0.322 N 
ATOM     13  C   UNL     1     -14.868 -43.413  24.993  1.00  0.00     0.255 C 
ATOM     14  O   UNL     1     -13.896 -43.131  24.306  1.00  0.00    -0.269 OA
ATOM     15  H   UNL     1     -15.799 -44.469  26.487  1.00  0.00     0.170 HD
BRANCH  13  16
ATOM     16  C   UNL     1     -16.193 -42.861  24.593  1.00  0.00     0.041 A 
ATOM     17  C   UNL     1     -16.431 -42.616  23.235  1.00  0.00     0.014 A 
ATOM     18  C   UNL     1     -17.178 -42.557  25.541  1.00  0.00     0.034 A 
ATOM     19  C   UNL     1     -17.658 -42.096  22.819  1.00  0.00     0.002 A 
ATOM     20  C   UNL     1     -18.400 -42.039  25.114  1.00  0.00     0.041 A 
ATOM     21  C   UNL     1     -18.647 -41.813  23.760  1.00  0.00     0.020 A 
ATOM     22  Cl  UNL     1     -19.617 -41.672  26.275  1.00  0.00    -0.084 Cl
ENDBRANCH  13  16
ENDBRANCH   1  12
BRANCH   8  23
ATOM     23  C   UNL     1     -10.482 -44.174  31.606  1.00  0.00     0.260 C 
ATOM     24  O   UNL     1      -9.466 -44.198  32.297  1.00  0.00    -0.269 OA
BRANCH  23  25
ATOM     25  C   UNL     1     -11.751 -43.739  32.245  1.00  0.00     0.040 A 
ATOM     26  C   UNL     1     -12.917 -44.475  32.009  1.00  0.00     0.014 A 
ATOM     27  C   UNL     1     -11.779 -42.633  33.104  1.00  0.00     0.014 A 
ATOM     28  C   UNL     1     -14.118 -44.081  32.598  1.00  0.00     0.001 A 
ATOM     29  C   UNL     1     -12.983 -42.244  33.692  1.00  0.00     0.001 A 
ATOM     30  C   UNL     1     -14.151 -42.964  33.434  1.00  0.00     0.000 A 
ENDBRANCH  23  25
ENDBRANCH   8  23
TORSDOF 4
ENDMDL
MODEL 2
REMARK VINA RESULT:   -12.537      1.612      2.143
REMARK INTER + INTRA:         -16.052
REMARK INTER:                 -15.369
REMARK INTRA:                  -0.682
REMARK UNBOUND:                -0.583
REMARK SMILES O=C(Nc1ccc2c(c1)CN(C(=O)c1ccccc1)C(=O)C2)c1cccc(Cl)c1
REMARK SMILES IDX 4 1 5 2 6 3 7 4 8 5 9 6 10 7 11 8 20 9 21 10 22 11 3 12 2 13
REMARK SMILES IDX 1 14 23 16 24 17 29 18 25 19 27 20 26 21 28 22 12 23 13 24
REMARK SMILES IDX 14 25 15 26 19 27 16 28 18 29 17 30
REMARK H PARENT 3 15
ROOT
ATOM      1  C   UNL     1     -13.255 -44.686  27.127  1.00  0.00     0.041 A 
ATOM      2  C   UNL     1     -13.097 -46.070  27.175  1.00  0.00     0.026 A 
ATOM      3  C   UNL     1     -11.989 -46.639  27.812  1.00  0.00     0.007 A 
ATOM      4  C   UNL     1     -11.029 -45.827  28.423  1.00  0.00    -0.033 A 
ATOM      5  C   UNL     1     -11.175 -44.438  28.375  1.00  0.00    -0.022 A 
ATOM      6  C   UNL     1     -12.281 -43.873  27.723  1.00  0.00     0.032 A 
ATOM      7  C   UNL     1     -10.095 -43.587  28.982  1.00  0.00     0.164 C 
ATOM      8  N   UNL     1      -9.519 -44.210  30.166  1.00  0.00    -0.274 N 
ATOM      9  C   UNL     1      -9.151 -45.544  30.133  1.00  0.00     0.234 C 
ATOM     10  O   UNL     1      -8.268 -46.024  30.846  1.00  0.00    -0.274 OA
ATOM     11  C   UNL     1      -9.811 -46.420  29.077  1.00  0.00     0.136 C 
ENDROOT
BRANCH   1  12
ATOM     12  N   UNL     1     -14.339 -44.036  26.497  1.00  0.00    -0.322 N 
ATOM     13  C   UNL     1     -15.407 -43.405  27.111  1.00  0.00     0.255 C 
ATOM     14  O   UNL     1     -15.580 -43.247  28.312  1.00  0.00    -0.269 OA
ATOM     15  H   UNL     1     -14.282 -43.969  25.490  1.00  0.00     0.170 HD
BRANCH  13  16
ATOM     16  C   UNL     1     -16.420 -42.837  26.177  1.00  0.00     0.041 A 
ATOM     17  C   UNL     1     -17.716 -42.609  26.658  1.00  0.00     0.014 A 
ATOM     18  C   UNL     1     -16.113 -42.563  24.839  1.00  0.00     0.034 A 
ATOM     19  C   UNL     1     -18.696 -42.080  25.814  1.00  0.00     0.002 A 
ATOM     20  C   UNL     1     -17.099 -42.035  24.005  1.00  0.00     0.041 A 
ATOM     21  C   UNL     1     -18.384 -41.788  24.486  1.00  0.00     0.020 A 
ATOM     22  Cl  UNL     1     -16.723 -41.690  22.362  1.00  0.00    -0.084 Cl
ENDBRANCH  13  16
ENDBRANCH   1  12
BRANCH   8  23
ATOM     23  C   UNL     1      -9.204 -43.464  31.291  1.00  0.00     0.260 C 
ATOM     24  O   UNL     1      -8.054 -43.212  31.644  1.00  0.00    -0.269 OA
BRANCH  23  25
ATOM     25  C   UNL     1     -10.315 -43.072  32.197  1.00  0.00     0.040 A 
ATOM     26  C   UNL     1     -10.014 -42.441  33.408  1.00  0.00     0.014 A 
ATOM     27  C   UNL     1     -11.650 -43.293  31.831  1.00  0.00     0.014 A 
ATOM     28  C   UNL     1     -11.044 -42.067  34.272  1.00  0.00     0.001 A 
ATOM     29  C   UNL     1     -12.675 -42.916  32.698  1.00  0.00     0.001 A 
ATOM     30  C   UNL     1     -12.372 -42.310  33.919  1.00  0.00     0.000 A 
ENDBRANCH  23  25
ENDBRANCH   8  23
TORSDOF 4
ENDMDL
MODEL 3
REMARK VINA RESULT:   -12.278      1.625      2.265
REMARK INTER + INTRA:         -15.732
REMARK INTER:                 -15.762
REMARK INTRA:                   0.030
REMARK UNBOUND:                -0.583
REMARK SMILES O=C(Nc1ccc2c(c1)CN(C(=O)c1ccccc1)C(=O)C2)c1cccc(Cl)c1
REMARK SMILES IDX 4 1 5 2 6 3 7 4 8 5 9 6 10 7 11 8 20 9 21 10 22 11 3 12 2 13
REMARK SMILES IDX 1 14 23 16 24 17 29 18 25 19 27 20 26 21 28 22 12 23 13 24
REMARK SMILES IDX 14 25 15 26 19 27 16 28 18 29 17 30
REMARK H PARENT 3 15
ROOT
ATOM      1  C   UNL     1     -13.813 -44.595  26.324  1.00  0.00     0.041 A 
ATOM      2  C   UNL     1     -13.526 -45.951  26.168  1.00  0.00     0.026 A 
ATOM      3  C   UNL     1     -12.686 -46.609  27.072  1.00  0.00     0.007 A 
ATOM      4  C   UNL     1     -12.131 -45.921  28.154  1.00  0.00    -0.033 A 
ATOM      5  C   UNL     1     -12.406 -44.561  28.316  1.00  0.00    -0.022 A 
ATOM      6  C   UNL     1     -13.240 -43.902  27.399  1.00  0.00     0.032 A 
ATOM      7  C   UNL     1     -11.745 -43.830  29.450  1.00  0.00     0.164 C 
ATOM      8  N   UNL     1     -11.594 -44.678  30.623  1.00  0.00    -0.274 N 
ATOM      9  C   UNL     1     -11.090 -45.960  30.487  1.00  0.00     0.234 C 
ATOM     10  O   UNL     1     -10.494 -46.556  31.387  1.00  0.00    -0.274 OA
ATOM     11  C   UNL     1     -11.193 -46.604  29.112  1.00  0.00     0.136 C 
ENDROOT
BRANCH   1  12
ATOM     12  N   UNL     1     -14.644 -43.858  25.452  1.00  0.00    -0.322 N 
ATOM     13  C   UNL     1     -15.776 -43.135  25.786  1.00  0.00     0.255 C 
ATOM     14  O   UNL     1     -16.233 -42.957  26.907  1.00  0.00    -0.269 OA
ATOM     15  H   UNL     1     -14.328 -43.801  24.493  1.00  0.00     0.170 HD
BRANCH  13  16
ATOM     16  C   UNL     1     -16.468 -42.488  24.636  1.00  0.00     0.041 A 
ATOM     17  C   UNL     1     -15.688 -41.980  23.589  1.00  0.00     0.014 A 
ATOM     18  C   UNL     1     -17.861 -42.350  24.600  1.00  0.00     0.034 A 
ATOM     19  C   UNL     1     -16.298 -41.364  22.494  1.00  0.00     0.002 A 
ATOM     20  C   UNL     1     -18.459 -41.734  23.502  1.00  0.00     0.041 A 
ATOM     21  C   UNL     1     -17.687 -41.245  22.448  1.00  0.00     0.020 A 
ATOM     22  Cl  UNL     1     -20.172 -41.570  23.451  1.00  0.00    -0.084 Cl
ENDBRANCH  13  16
ENDBRANCH   1  12
BRANCH   8  23
ATOM     23  C   UNL     1     -11.819 -44.187  31.901  1.00  0.00     0.260 C 
ATOM     24  O   UNL     1     -12.931 -44.120  32.421  1.00  0.00    -0.269 OA
BRANCH  23  25
ATOM     25  C   UNL     1     -10.673 -43.576  32.620  1.00  0.00     0.040 A 
ATOM     26  C   UNL     1      -9.373 -43.837  32.174  1.00  0.00     0.014 A 
ATOM     27  C   UNL     1     -10.883 -42.718  33.708  1.00  0.00     0.014 A 
ATOM     28  C   UNL     1      -8.283 -43.273  32.838  1.00  0.00     0.001 A 
ATOM     29  C   UNL     1      -9.791 -42.156  34.368  1.00  0.00     0.001 A 
ATOM     30  C   UNL     1      -8.493 -42.438  33.937  1.00  0.00     0.000 A 
ENDBRANCH  23  25
ENDBRANCH   8  23
TORSDOF 4
ENDMDL
MODEL 4
REMARK VINA RESULT:   -11.156      3.817      9.747
REMARK INTER + INTRA:         -14.348
REMARK INTER:                 -13.738
REMARK INTRA:                  -0.610
REMARK UNBOUND:                -0.583
REMARK SMILES O=C(Nc1ccc2c(c1)CN(C(=O)c1ccccc1)C(=O)C2)c1cccc(Cl)c1
REMARK SMILES IDX 4 1 5 2 6 3 7 4 8 5 9 6 10 7 11 8 20 9 21 10 22 11 3 12 2 13
REMARK SMILES IDX 1 14 23 16 24 17 29 18 25 19 27 20 26 21 28 22 12 23 13 24
REMARK SMILES IDX 14 25 15 26 19 27 16 28 18 29 17 30
REMARK H PARENT 3 15
ROOT
ATOM      1  C   UNL     1     -15.574 -42.867  24.564  1.00  0.00     0.041 A 
ATOM      2  C   UNL     1     -14.973 -41.796  23.904  1.00  0.00     0.026 A 
ATOM      3  C   UNL     1     -15.687 -41.050  22.960  1.00  0.00     0.007 A 
ATOM      4  C   UNL     1     -17.019 -41.360  22.673  1.00  0.00    -0.033 A 
ATOM      5  C   UNL     1     -17.629 -42.435  23.324  1.00  0.00    -0.022 A 
ATOM      6  C   UNL     1     -16.905 -43.188  24.260  1.00  0.00     0.032 A 
ATOM      7  C   UNL     1     -19.041 -42.787  22.949  1.00  0.00     0.164 C 
ATOM      8  N   UNL     1     -19.825 -41.603  22.627  1.00  0.00    -0.274 N 
ATOM      9  C   UNL     1     -19.303 -40.640  21.780  1.00  0.00     0.234 C 
ATOM     10  O   UNL     1     -19.999 -39.894  21.088  1.00  0.00    -0.274 OA
ATOM     11  C   UNL     1     -17.789 -40.594  21.631  1.00  0.00     0.136 C 
ENDROOT
BRANCH   1  12
ATOM     12  N   UNL     1     -14.920 -43.672  25.522  1.00  0.00    -0.322 N 
ATOM     13  C   UNL     1     -14.975 -43.545  26.899  1.00  0.00     0.255 C 
ATOM     14  O   UNL     1     -15.645 -42.747  27.540  1.00  0.00    -0.269 OA
ATOM     15  H   UNL     1     -14.416 -44.467  25.153  1.00  0.00     0.170 HD
BRANCH  13  16
ATOM     16  C   UNL     1     -14.144 -44.527  27.652  1.00  0.00     0.041 A 
ATOM     17  C   UNL     1     -13.333 -45.409  26.927  1.00  0.00     0.014 A 
ATOM     18  C   UNL     1     -14.184 -44.603  29.050  1.00  0.00     0.034 A 
ATOM     19  C   UNL     1     -12.541 -46.346  27.595  1.00  0.00     0.002 A 
ATOM     20  C   UNL     1     -13.389 -45.541  29.706  1.00  0.00     0.041 A 
ATOM     21  C   UNL     1     -12.565 -46.408  28.988  1.00  0.00     0.020 A 
ATOM     22  Cl  UNL     1     -13.429 -45.633  31.425  1.00  0.00    -0.084 Cl
ENDBRANCH  13  16
ENDBRANCH   1  12
BRANCH   8  23
ATOM     23  C   UNL     1     -21.141 -41.476  23.044  1.00  0.00     0.260 C 
ATOM     24  O   UNL     1     -22.106 -41.515  22.282  1.00  0.00    -0.269 OA
BRANCH  23  25
ATOM     25  C   UNL     1     -21.388 -41.129  24.466  1.00  0.00     0.040 A 
ATOM     26  C   UNL     1     -22.578 -40.478  24.811  1.00  0.00     0.014 A 
ATOM     27  C   UNL     1     -20.466 -41.480  25.461  1.00  0.00     0.014 A 
ATOM     28  C   UNL     1     -22.826 -40.143  26.142  1.00  0.00     0.001 A 
ATOM     29  C   UNL     1     -20.720 -41.144  26.790  1.00  0.00     0.001 A 
ATOM     30  C   UNL     1     -21.895 -40.471  27.129  1.00  0.00     0.000 A 
ENDBRANCH  23  25
ENDBRANCH   8  23
TORSDOF 4
ENDMDL
MODEL 5
REMARK VINA RESULT:   -10.994      3.136      8.869
REMARK INTER + INTRA:         -14.148
REMARK INTER:                 -13.659
REMARK INTRA:                  -0.488
REMARK UNBOUND:                -0.583
REMARK SMILES O=C(Nc1ccc2c(c1)CN(C(=O)c1ccccc1)C(=O)C2)c1cccc(Cl)c1
REMARK SMILES IDX 4 1 5 2 6 3 7 4 8 5 9 6 10 7 11 8 20 9 21 10 22 11 3 12 2 13
REMARK SMILES IDX 1 14 23 16 24 17 29 18 25 19 27 20 26 21 28 22 12 23 13 24
REMARK SMILES IDX 14 25 15 26 19 27 16 28 18 29 17 30
REMARK H PARENT 3 15
ROOT
ATOM      1  C   UNL     1     -11.632 -44.760  29.140  1.00  0.00     0.041 A 
ATOM      2  C   UNL     1     -11.303 -45.988  28.567  1.00  0.00     0.026 A 
ATOM      3  C   UNL     1     -11.984 -46.451  27.436  1.00  0.00     0.007 A 
ATOM      4  C   UNL     1     -12.997 -45.684  26.856  1.00  0.00    -0.033 A 
ATOM      5  C   UNL     1     -13.340 -44.455  27.426  1.00  0.00    -0.022 A 
ATOM      6  C   UNL     1     -12.663 -44.001  28.568  1.00  0.00     0.032 A 
ATOM      7  C   UNL     1     -14.477 -43.681  26.821  1.00  0.00     0.164 C 
ATOM      8  N   UNL     1     -14.530 -43.842  25.375  1.00  0.00    -0.274 N 
ATOM      9  C   UNL     1     -14.428 -45.105  24.818  1.00  0.00     0.234 C 
ATOM     10  O   UNL     1     -14.916 -45.410  23.728  1.00  0.00    -0.274 OA
ATOM     11  C   UNL     1     -13.767 -46.185  25.664  1.00  0.00     0.136 C 
ENDROOT
BRANCH   1  12
ATOM     12  N   UNL     1     -10.999 -44.228  30.285  1.00  0.00    -0.322 N 
ATOM     13  C   UNL     1     -11.569 -43.995  31.524  1.00  0.00     0.255 C 
ATOM     14  O   UNL     1     -12.712 -44.260  31.872  1.00  0.00    -0.269 OA
ATOM     15  H   UNL     1     -10.004 -44.069  30.198  1.00  0.00     0.170 HD
BRANCH  13  16
ATOM     16  C   UNL     1     -10.653 -43.390  32.531  1.00  0.00     0.041 A 
ATOM     17  C   UNL     1     -11.210 -42.631  33.569  1.00  0.00     0.014 A 
ATOM     18  C   UNL     1      -9.263 -43.536  32.442  1.00  0.00     0.034 A 
ATOM     19  C   UNL     1     -10.386 -42.044  34.532  1.00  0.00     0.002 A 
ATOM     20  C   UNL     1      -8.450 -42.946  33.409  1.00  0.00     0.041 A 
ATOM     21  C   UNL     1      -9.003 -42.207  34.454  1.00  0.00     0.020 A 
ATOM     22  Cl  UNL     1      -6.741 -43.130  33.306  1.00  0.00    -0.084 Cl
ENDBRANCH  13  16
ENDBRANCH   1  12
BRANCH   8  23
ATOM     23  C   UNL     1     -14.816 -42.772  24.541  1.00  0.00     0.260 C 
ATOM     24  O   UNL     1     -13.961 -42.021  24.075  1.00  0.00    -0.269 OA
BRANCH  23  25
ATOM     25  C   UNL     1     -16.243 -42.428  24.318  1.00  0.00     0.040 A 
ATOM     26  C   UNL     1     -16.657 -42.039  23.039  1.00  0.00     0.014 A 
ATOM     27  C   UNL     1     -17.176 -42.529  25.358  1.00  0.00     0.014 A 
ATOM     28  C   UNL     1     -17.994 -41.712  22.811  1.00  0.00     0.001 A 
ATOM     29  C   UNL     1     -18.512 -42.201  25.124  1.00  0.00     0.001 A 
ATOM     30  C   UNL     1     -18.918 -41.788  23.854  1.00  0.00     0.000 A 
ENDBRANCH  23  25
ENDBRANCH   8  23
TORSDOF 4
ENDMDL
MODEL 6
REMARK VINA RESULT:   -10.554      3.944      9.262
REMARK INTER + INTRA:         -13.606
REMARK INTER:                 -13.768
REMARK INTRA:                   0.162
REMARK UNBOUND:                -0.583
REMARK SMILES O=C(Nc1ccc2c(c1)CN(C(=O)c1ccccc1)C(=O)C2)c1cccc(Cl)c1
REMARK SMILES IDX 4 1 5 2 6 3 7 4 8 5 9 6 10 7 11 8 20 9 21 10 22 11 3 12 2 13
REMARK SMILES IDX 1 14 23 16 24 17 29 18 25 19 27 20 26 21 28 22 12 23 13 24
REMARK SMILES IDX 14 25 15 26 19 27 16 28 18 29 17 30
REMARK H PARENT 3 15
ROOT
ATOM      1  C   UNL     1     -15.017 -42.986  24.852  1.00  0.00     0.041 A 
ATOM      2  C   UNL     1     -14.753 -42.068  23.837  1.00  0.00     0.026 A 
ATOM      3  C   UNL     1     -15.799 -41.485  23.114  1.00  0.00     0.007 A 
ATOM      4  C   UNL     1     -17.127 -41.806  23.407  1.00  0.00    -0.033 A 
ATOM      5  C   UNL     1     -17.403 -42.730  24.418  1.00  0.00    -0.022 A 
ATOM      6  C   UNL     1     -16.349 -43.321  25.132  1.00  0.00     0.032 A 
ATOM      7  C   UNL     1     -18.836 -43.106  24.669  1.00  0.00     0.164 C 
ATOM      8  N   UNL     1     -19.733 -41.978  24.461  1.00  0.00    -0.274 N 
ATOM      9  C   UNL     1     -19.608 -41.198  23.325  1.00  0.00     0.234 C 
ATOM     10  O   UNL     1     -20.544 -40.570  22.824  1.00  0.00    -0.274 OA
ATOM     11  C   UNL     1     -18.263 -41.219  22.613  1.00  0.00     0.136 C 
ENDROOT
BRANCH   1  12
ATOM     12  N   UNL     1     -14.017 -43.622  25.620  1.00  0.00    -0.322 N 
ATOM     13  C   UNL     1     -14.033 -43.856  26.985  1.00  0.00     0.255 C 
ATOM     14  O   UNL     1     -14.940 -43.603  27.766  1.00  0.00    -0.269 OA
ATOM     15  H   UNL     1     -13.244 -44.008  25.096  1.00  0.00     0.170 HD
BRANCH  13  16
ATOM     16  C   UNL     1     -12.812 -44.521  27.520  1.00  0.00     0.041 A 
ATOM     17  C   UNL     1     -12.757 -45.921  27.511  1.00  0.00     0.014 A 
ATOM     18  C   UNL     1     -11.748 -43.784  28.055  1.00  0.00     0.034 A 
ATOM     19  C   UNL     1     -11.631 -46.584  28.006  1.00  0.00     0.002 A 
ATOM     20  C   UNL     1     -10.629 -44.456  28.546  1.00  0.00     0.041 A 
ATOM     21  C   UNL     1     -10.563 -45.849  28.520  1.00  0.00     0.020 A 
ATOM     22  Cl  UNL     1      -9.316 -43.552  29.196  1.00  0.00    -0.084 Cl
ENDBRANCH  13  16
ENDBRANCH   1  12
BRANCH   8  23
ATOM     23  C   UNL     1     -20.803 -41.743  25.311  1.00  0.00     0.260 C 
ATOM     24  O   UNL     1     -21.314 -40.637  25.478  1.00  0.00    -0.269 OA
BRANCH  23  25
ATOM     25  C   UNL     1     -21.261 -42.861  26.175  1.00  0.00     0.040 A 
ATOM     26  C   UNL     1     -22.439 -43.538  25.842  1.00  0.00     0.014 A 
ATOM     27  C   UNL     1     -20.509 -43.264  27.286  1.00  0.00     0.014 A 
ATOM     28  C   UNL     1     -22.886 -44.590  26.643  1.00  0.00     0.001 A 
ATOM     29  C   UNL     1     -20.960 -44.317  28.082  1.00  0.00     0.001 A 
ATOM     30  C   UNL     1     -22.150 -44.975  27.764  1.00  0.00     0.000 A 
ENDBRANCH  23  25
ENDBRANCH   8  23
TORSDOF 4
ENDMDL
MODEL 7
REMARK VINA RESULT:   -10.421      4.084     10.657
REMARK INTER + INTRA:         -13.441
REMARK INTER:                 -13.330
REMARK INTRA:                  -0.111
REMARK UNBOUND:                -0.583
REMARK SMILES O=C(Nc1ccc2c(c1)CN(C(=O)c1ccccc1)C(=O)C2)c1cccc(Cl)c1
REMARK SMILES IDX 4 1 5 2 6 3 7 4 8 5 9 6 10 7 11 8 20 9 21 10 22 11 3 12 2 13
REMARK SMILES IDX 1 14 23 16 24 17 29 18 25 19 27 20 26 21 28 22 12 23 13 24
REMARK SMILES IDX 14 25 15 26 19 27 16 28 18 29 17 30
REMARK H PARENT 3 15
ROOT
ATOM      1  C   UNL     1     -16.719 -42.804  27.086  1.00  0.00     0.041 A 
ATOM      2  C   UNL     1     -17.726 -42.606  28.030  1.00  0.00     0.026 A 
ATOM      3  C   UNL     1     -18.966 -42.084  27.649  1.00  0.00     0.007 A 
ATOM      4  C   UNL     1     -19.219 -41.762  26.313  1.00  0.00    -0.033 A 
ATOM      5  C   UNL     1     -18.214 -41.949  25.360  1.00  0.00    -0.022 A 
ATOM      6  C   UNL     1     -16.968 -42.462  25.749  1.00  0.00     0.032 A 
ATOM      7  C   UNL     1     -18.491 -41.534  23.942  1.00  0.00     0.164 C 
ATOM      8  N   UNL     1     -19.881 -41.761  23.575  1.00  0.00    -0.274 N 
ATOM      9  C   UNL     1     -20.894 -41.353  24.426  1.00  0.00     0.234 C 
ATOM     10  O   UNL     1     -22.028 -41.059  24.043  1.00  0.00    -0.274 OA
ATOM     11  C   UNL     1     -20.533 -41.161  25.893  1.00  0.00     0.136 C 
ENDROOT
BRANCH   1  12
ATOM     12  N   UNL     1     -15.440 -43.319  27.392  1.00  0.00    -0.322 N 
ATOM     13  C   UNL     1     -14.606 -44.039  26.554  1.00  0.00     0.255 C 
ATOM     14  O   UNL     1     -14.800 -44.314  25.378  1.00  0.00    -0.269 OA
ATOM     15  H   UNL     1     -15.074 -43.067  28.300  1.00  0.00     0.170 HD
BRANCH  13  16
ATOM     16  C   UNL     1     -13.325 -44.481  27.174  1.00  0.00     0.041 A 
ATOM     17  C   UNL     1     -13.112 -45.853  27.360  1.00  0.00     0.014 A 
ATOM     18  C   UNL     1     -12.358 -43.561  27.598  1.00  0.00     0.034 A 
ATOM     19  C   UNL     1     -11.926 -46.308  27.940  1.00  0.00     0.002 A 
ATOM     20  C   UNL     1     -11.177 -44.026  28.174  1.00  0.00     0.041 A 
ATOM     21  C   UNL     1     -10.954 -45.392  28.343  1.00  0.00     0.020 A 
ATOM     22  Cl  UNL     1      -9.983 -42.898  28.689  1.00  0.00    -0.084 Cl
ENDBRANCH  13  16
ENDBRANCH   1  12
BRANCH   8  23
ATOM     23  C   UNL     1     -20.225 -42.257  22.327  1.00  0.00     0.260 C 
ATOM     24  O   UNL     1     -20.199 -43.451  22.036  1.00  0.00    -0.269 OA
BRANCH  23  25
ATOM     25  C   UNL     1     -20.499 -41.280  21.243  1.00  0.00     0.040 A 
ATOM     26  C   UNL     1     -19.562 -40.275  20.981  1.00  0.00     0.014 A 
ATOM     27  C   UNL     1     -21.660 -41.379  20.464  1.00  0.00     0.014 A 
ATOM     28  C   UNL     1     -19.803 -39.347  19.968  1.00  0.00     0.001 A 
ATOM     29  C   UNL     1     -21.895 -40.449  19.452  1.00  0.00     0.001 A 
ATOM     30  C   UNL     1     -20.971 -39.431  19.209  1.00  0.00     0.000 A 
ENDBRANCH  23  25
ENDBRANCH   8  23
TORSDOF 4
ENDMDL
MODEL 8
REMARK VINA RESULT:   -10.305      4.076      9.291
REMARK INTER + INTRA:         -13.297
REMARK INTER:                 -12.785
REMARK INTRA:                  -0.512
REMARK UNBOUND:                -0.583
REMARK SMILES O=C(Nc1ccc2c(c1)CN(C(=O)c1ccccc1)C(=O)C2)c1cccc(Cl)c1
REMARK SMILES IDX 4 1 5 2 6 3 7 4 8 5 9 6 10 7 11 8 20 9 21 10 22 11 3 12 2 13
REMARK SMILES IDX 1 14 23 16 24 17 29 18 25 19 27 20 26 21 28 22 12 23 13 24
REMARK SMILES IDX 14 25 15 26 19 27 16 28 18 29 17 30
REMARK H PARENT 3 15
ROOT
ATOM      1  C   UNL     1     -14.845 -42.573  25.863  1.00  0.00     0.041 A 
ATOM      2  C   UNL     1     -14.812 -42.150  24.535  1.00  0.00     0.026 A 
ATOM      3  C   UNL     1     -15.994 -42.028  23.797  1.00  0.00     0.007 A 
ATOM      4  C   UNL     1     -17.229 -42.318  24.384  1.00  0.00    -0.033 A 
ATOM      5  C   UNL     1     -17.272 -42.750  25.712  1.00  0.00    -0.022 A 
ATOM      6  C   UNL     1     -16.082 -42.882  26.444  1.00  0.00     0.032 A 
ATOM      7  C   UNL     1     -18.606 -43.118  26.299  1.00  0.00     0.164 C 
ATOM      8  N   UNL     1     -19.674 -42.273  25.782  1.00  0.00    -0.274 N 
ATOM      9  C   UNL     1     -19.769 -42.038  24.422  1.00  0.00     0.234 C 
ATOM     10  O   UNL     1     -20.828 -41.772  23.850  1.00  0.00    -0.274 OA
ATOM     11  C   UNL     1     -18.506 -42.232  23.594  1.00  0.00     0.136 C 
ENDROOT
BRANCH   1  12
ATOM     12  N   UNL     1     -13.697 -42.729  26.670  1.00  0.00    -0.322 N 
ATOM     13  C   UNL     1     -13.170 -43.912  27.157  1.00  0.00     0.255 C 
ATOM     14  O   UNL     1     -13.572 -45.046  26.931  1.00  0.00    -0.269 OA
ATOM     15  H   UNL     1     -13.170 -41.884  26.847  1.00  0.00     0.170 HD
BRANCH  13  16
ATOM     16  C   UNL     1     -11.963 -43.755  28.017  1.00  0.00     0.041 A 
ATOM     17  C   UNL     1     -11.065 -42.721  27.722  1.00  0.00     0.014 A 
ATOM     18  C   UNL     1     -11.698 -44.629  29.078  1.00  0.00     0.034 A 
ATOM     19  C   UNL     1      -9.920 -42.541  28.501  1.00  0.00     0.002 A 
ATOM     20  C   UNL     1     -10.553 -44.439  29.850  1.00  0.00     0.041 A 
ATOM     21  C   UNL     1      -9.667 -43.399  29.571  1.00  0.00     0.020 A 
ATOM     22  Cl  UNL     1     -10.228 -45.507  31.161  1.00  0.00    -0.084 Cl
ENDBRANCH  13  16
ENDBRANCH   1  12
BRANCH   8  23
ATOM     23  C   UNL     1     -20.684 -41.803  26.608  1.00  0.00     0.260 C 
ATOM     24  O   UNL     1     -20.615 -40.750  27.240  1.00  0.00    -0.269 OA
BRANCH  23  25
ATOM     25  C   UNL     1     -21.849 -42.690  26.853  1.00  0.00     0.040 A 
ATOM     26  C   UNL     1     -21.627 -43.991  27.317  1.00  0.00     0.014 A 
ATOM     27  C   UNL     1     -23.157 -42.225  26.663  1.00  0.00     0.014 A 
ATOM     28  C   UNL     1     -22.709 -44.840  27.551  1.00  0.00     0.001 A 
ATOM     29  C   UNL     1     -24.235 -43.078  26.900  1.00  0.00     0.001 A 
ATOM     30  C   UNL     1     -24.011 -44.385  27.338  1.00  0.00     0.000 A 
ENDBRANCH  23  25
ENDBRANCH   8  23
TORSDOF 4
ENDMDL
MODEL 9
REMARK VINA RESULT:   -10.156      3.672      9.511
REMARK INTER + INTRA:         -13.114
REMARK INTER:                 -12.753
REMARK INTRA:                  -0.361
REMARK UNBOUND:                -0.583
REMARK SMILES O=C(Nc1ccc2c(c1)CN(C(=O)c1ccccc1)C(=O)C2)c1cccc(Cl)c1
REMARK SMILES IDX 4 1 5 2 6 3 7 4 8 5 9 6 10 7 11 8 20 9 21 10 22 11 3 12 2 13
REMARK SMILES IDX 1 14 23 16 24 17 29 18 25 19 27 20 26 21 28 22 12 23 13 24
REMARK SMILES IDX 14 25 15 26 19 27 16 28 18 29 17 30
REMARK H PARENT 3 15
ROOT
ATOM      1  C   UNL     1     -14.914 -42.998  26.066  1.00  0.00     0.041 A 
ATOM      2  C   UNL     1     -14.162 -42.340  25.093  1.00  0.00     0.026 A 
ATOM      3  C   UNL     1     -14.769 -41.858  23.929  1.00  0.00     0.007 A 
ATOM      4  C   UNL     1     -16.143 -42.019  23.728  1.00  0.00    -0.033 A 
ATOM      5  C   UNL     1     -16.904 -42.682  24.693  1.00  0.00    -0.022 A 
ATOM      6  C   UNL     1     -16.288 -43.175  25.853  1.00  0.00     0.032 A 
ATOM      7  C   UNL     1     -18.367 -42.899  24.422  1.00  0.00     0.164 C 
ATOM      8  N   UNL     1     -18.949 -41.785  23.687  1.00  0.00    -0.274 N 
ATOM      9  C   UNL     1     -18.300 -41.278  22.574  1.00  0.00     0.234 C 
ATOM     10  O   UNL     1     -18.881 -40.712  21.646  1.00  0.00    -0.274 OA
ATOM     11  C   UNL     1     -16.805 -41.543  22.463  1.00  0.00     0.136 C 
ENDROOT
BRANCH   1  12
ATOM     12  N   UNL     1     -14.375 -43.519  27.262  1.00  0.00    -0.322 N 
ATOM     13  C   UNL     1     -13.744 -44.739  27.434  1.00  0.00     0.255 C 
ATOM     14  O   UNL     1     -13.490 -45.566  26.568  1.00  0.00    -0.269 OA
ATOM     15  H   UNL     1     -14.393 -42.895  28.057  1.00  0.00     0.170 HD
BRANCH  13  16
ATOM     16  C   UNL     1     -13.310 -45.029  28.829  1.00  0.00     0.041 A 
ATOM     17  C   UNL     1     -14.176 -44.700  29.880  1.00  0.00     0.014 A 
ATOM     18  C   UNL     1     -12.056 -45.587  29.107  1.00  0.00     0.034 A 
ATOM     19  C   UNL     1     -13.806 -44.954  31.202  1.00  0.00     0.002 A 
ATOM     20  C   UNL     1     -11.696 -45.836  30.431  1.00  0.00     0.041 A 
ATOM     21  C   UNL     1     -12.565 -45.528  31.478  1.00  0.00     0.020 A 
ATOM     22  Cl  UNL     1     -10.159 -46.528  30.776  1.00  0.00    -0.084 Cl
ENDBRANCH  13  16
ENDBRANCH   1  12
BRANCH   8  23
ATOM     23  C   UNL     1     -20.212 -41.301  23.994  1.00  0.00     0.260 C 
ATOM     24  O   UNL     1     -20.584 -40.156  23.745  1.00  0.00    -0.269 OA
BRANCH  23  25
ATOM     25  C   UNL     1     -21.111 -42.169  24.796  1.00  0.00     0.040 A 
ATOM     26  C   UNL     1     -21.223 -41.944  26.172  1.00  0.00     0.014 A 
ATOM     27  C   UNL     1     -21.870 -43.176  24.184  1.00  0.00     0.014 A 
ATOM     28  C   UNL     1     -22.061 -42.751  26.942  1.00  0.00     0.001 A 
ATOM     29  C   UNL     1     -22.707 -43.978  24.959  1.00  0.00     0.001 A 
ATOM     30  C   UNL     1     -22.798 -43.770  26.337  1.00  0.00     0.000 A 
ENDBRANCH  23  25
ENDBRANCH   8  23
TORSDOF 4
ENDMDL
