MODEL 1
REMARK VINA RESULT:   -12.533      0.000      0.000
REMARK INTER + INTRA:         -18.211
REMARK INTER:                 -17.662
REMARK INTRA:                  -0.549
REMARK UNBOUND:                -0.549
REMARK SMILES COc1cc2c(cc1OC)C(=O)/C(=C/c1cc[n+](Cc3cccc([N+](=O)[O-])c3)cc1)C2
REMARK SMILES IDX 15 1 16 2 17 3 18 4 29 5 30 6 14 7 13 8 3 9 4 10 8 11 5 12
REMARK SMILES IDX 7 13 6 14 31 15 11 16 12 17 2 18 1 19 9 20 10 21 19 22 20 23
REMARK SMILES IDX 21 24 28 25 22 26 24 27 23 28 25 29 26 30 27 31
REMARK H PARENT
ROOT
ATOM      1  C   UNL     1     -13.089 -44.110  27.554  1.00  0.00    -0.013 A 
ATOM      2  C   UNL     1     -11.943 -43.592  28.149  1.00  0.00     0.079 A 
ATOM      3  C   UNL     1     -11.562 -44.039  29.409  1.00  0.00     0.309 A 
ATOM      4  N   UNL     1     -12.296 -44.968  30.066  1.00  0.00    -0.201 N 
ATOM      5  C   UNL     1     -13.415 -45.483  29.503  1.00  0.00     0.309 A 
ATOM      6  C   UNL     1     -13.834 -45.061  28.246  1.00  0.00     0.079 A 
ENDROOT
BRANCH   1   7
ATOM      7  C   UNL     1     -13.567 -43.635  26.256  1.00  0.00     0.016 C 
BRANCH   7   8
ATOM      8  C   UNL     1     -14.832 -43.301  25.970  1.00  0.00     0.005 C 
ATOM      9  C   UNL     1     -19.253 -41.955  25.062  1.00  0.00     0.161 A 
ATOM     10  C   UNL     1     -18.357 -42.098  26.133  1.00  0.00     0.055 A 
ATOM     11  C   UNL     1     -18.856 -42.287  23.736  1.00  0.00     0.161 A 
ATOM     12  C   UNL     1     -17.079 -42.567  25.869  1.00  0.00    -0.028 A 
ATOM     13  C   UNL     1     -17.564 -42.759  23.486  1.00  0.00     0.063 A 
ATOM     14  C   UNL     1     -16.709 -42.886  24.565  1.00  0.00     0.030 A 
ATOM     15  C   UNL     1     -15.961 -42.805  26.840  1.00  0.00     0.076 C 
ATOM     16  C   UNL     1     -15.321 -43.351  24.556  1.00  0.00     0.189 C 
ATOM     17  O   UNL     1     -14.684 -43.705  23.584  1.00  0.00    -0.289 OA
BRANCH   9  18
ATOM     18  O   UNL     1     -20.544 -41.502  25.196  1.00  0.00    -0.493 OA
ATOM     19  C   UNL     1     -21.009 -41.178  26.497  1.00  0.00     0.278 C 
ENDBRANCH   9  18
BRANCH  11  20
ATOM     20  O   UNL     1     -19.811 -42.110  22.765  1.00  0.00    -0.493 OA
ATOM     21  C   UNL     1     -19.668 -41.000  21.888  1.00  0.00     0.278 C 
ENDBRANCH  11  20
ENDBRANCH   7   8
ENDBRANCH   1   7
BRANCH   4  22
ATOM     22  C   UNL     1     -11.864 -45.428  31.411  1.00  0.00     0.393 C 
BRANCH  22  23
ATOM     23  C   UNL     1     -10.358 -45.429  31.529  1.00  0.00     0.024 A 
ATOM     24  C   UNL     1      -9.609 -46.527  31.075  1.00  0.00     0.011 A 
ATOM     25  C   UNL     1      -9.679 -44.340  32.102  1.00  0.00     0.095 A 
ATOM     26  C   UNL     1      -8.214 -46.535  31.178  1.00  0.00     0.008 A 
ATOM     27  C   UNL     1      -8.277 -44.354  32.201  1.00  0.00     0.269 A 
ATOM     28  C   UNL     1      -7.541 -45.448  31.739  1.00  0.00     0.085 A 
BRANCH  27  29
ATOM     29  N   UNL     1      -7.583 -43.200  32.791  1.00  0.00     0.062 N 
ATOM     30  O   UNL     1      -6.585 -42.776  32.191  1.00  0.00    -0.258 OA
ATOM     31  O   UNL     1      -8.033 -42.731  33.844  1.00  0.00    -0.258 OA
ENDBRANCH  27  29
ENDBRANCH  22  23
ENDBRANCH   4  22
TORSDOF 7
ENDMDL
MODEL 2
REMARK VINA RESULT:   -12.140      1.504      1.813
REMARK INTER + INTRA:         -17.657
REMARK INTER:                 -16.974
REMARK INTRA:                  -0.682
REMARK UNBOUND:                -0.549
REMARK SMILES COc1cc2c(cc1OC)C(=O)/C(=C/c1cc[n+](Cc3cccc([N+](=O)[O-])c3)cc1)C2
REMARK SMILES IDX 15 1 16 2 17 3 18 4 29 5 30 6 14 7 13 8 3 9 4 10 8 11 5 12
REMARK SMILES IDX 7 13 6 14 31 15 11 16 12 17 2 18 1 19 9 20 10 21 19 22 20 23
REMARK SMILES IDX 21 24 28 25 22 26 24 27 23 28 25 29 26 30 27 31
REMARK H PARENT
ROOT
ATOM      1  C   UNL     1     -13.062 -43.899  27.215  1.00  0.00    -0.013 A 
ATOM      2  C   UNL     1     -11.820 -43.517  27.714  1.00  0.00     0.079 A 
ATOM      3  C   UNL     1     -11.285 -44.186  28.809  1.00  0.00     0.309 A 
ATOM      4  N   UNL     1     -11.961 -45.201  29.398  1.00  0.00    -0.201 N 
ATOM      5  C   UNL     1     -13.170 -45.586  28.927  1.00  0.00     0.309 A 
ATOM      6  C   UNL     1     -13.743 -44.941  27.837  1.00  0.00     0.079 A 
ENDROOT
BRANCH   1   7
ATOM      7  C   UNL     1     -13.697 -43.194  26.101  1.00  0.00     0.016 C 
BRANCH   7   8
ATOM      8  C   UNL     1     -15.015 -43.002  25.956  1.00  0.00     0.005 C 
ATOM      9  C   UNL     1     -19.628 -42.151  25.542  1.00  0.00     0.161 A 
ATOM     10  C   UNL     1     -18.612 -42.199  26.510  1.00  0.00     0.055 A 
ATOM     11  C   UNL     1     -19.340 -42.429  24.175  1.00  0.00     0.161 A 
ATOM     12  C   UNL     1     -17.326 -42.522  26.105  1.00  0.00    -0.028 A 
ATOM     13  C   UNL     1     -18.038 -42.753  23.784  1.00  0.00     0.063 A 
ATOM     14  C   UNL     1     -17.064 -42.790  24.764  1.00  0.00     0.030 A 
ATOM     15  C   UNL     1     -16.092 -42.639  26.949  1.00  0.00     0.076 C 
ATOM     16  C   UNL     1     -15.642 -43.098  24.601  1.00  0.00     0.189 C 
ATOM     17  O   UNL     1     -15.078 -43.373  23.561  1.00  0.00    -0.289 OA
BRANCH   9  18
ATOM     18  O   UNL     1     -20.940 -41.845  25.818  1.00  0.00    -0.493 OA
ATOM     19  C   UNL     1     -21.207 -40.950  26.887  1.00  0.00     0.278 C 
ENDBRANCH   9  18
BRANCH  11  20
ATOM     20  O   UNL     1     -20.407 -42.354  23.314  1.00  0.00    -0.493 OA
ATOM     21  C   UNL     1     -20.134 -42.351  21.919  1.00  0.00     0.278 C 
ENDBRANCH  11  20
ENDBRANCH   7   8
ENDBRANCH   1   7
BRANCH   4  22
ATOM     22  C   UNL     1     -11.364 -45.898  30.567  1.00  0.00     0.393 C 
BRANCH  22  23
ATOM     23  C   UNL     1     -10.617 -44.931  31.455  1.00  0.00     0.024 A 
ATOM     24  C   UNL     1      -9.217 -44.988  31.553  1.00  0.00     0.011 A 
ATOM     25  C   UNL     1     -11.306 -43.964  32.207  1.00  0.00     0.095 A 
ATOM     26  C   UNL     1      -8.519 -44.095  32.371  1.00  0.00     0.008 A 
ATOM     27  C   UNL     1     -10.598 -43.068  33.027  1.00  0.00     0.269 A 
ATOM     28  C   UNL     1      -9.204 -43.130  33.110  1.00  0.00     0.085 A 
BRANCH  27  29
ATOM     29  N   UNL     1     -11.335 -42.056  33.796  1.00  0.00     0.062 N 
ATOM     30  O   UNL     1     -10.661 -41.230  34.429  1.00  0.00    -0.258 OA
ATOM     31  O   UNL     1     -12.571 -42.093  33.766  1.00  0.00    -0.258 OA
ENDBRANCH  27  29
ENDBRANCH  22  23
ENDBRANCH   4  22
TORSDOF 7
ENDMDL
MODEL 3
REMARK VINA RESULT:   -11.283      2.683      3.993
REMARK INTER + INTRA:         -16.449
REMARK INTER:                 -15.556
REMARK INTRA:                  -0.893
REMARK UNBOUND:                -0.549
REMARK SMILES COc1cc2c(cc1OC)C(=O)/C(=C/c1cc[n+](Cc3cccc([N+](=O)[O-])c3)cc1)C2
REMARK SMILES IDX 15 1 16 2 17 3 18 4 29 5 30 6 14 7 13 8 3 9 4 10 8 11 5 12
REMARK SMILES IDX 7 13 6 14 31 15 11 16 12 17 2 18 1 19 9 20 10 21 19 22 20 23
REMARK SMILES IDX 21 24 28 25 22 26 24 27 23 28 25 29 26 30 27 31
REMARK H PARENT
ROOT
ATOM      1  C   UNL     1     -15.168 -43.001  24.729  1.00  0.00    -0.013 A 
ATOM      2  C   UNL     1     -15.453 -42.402  25.952  1.00  0.00     0.079 A 
ATOM      3  C   UNL     1     -15.069 -43.032  27.130  1.00  0.00     0.309 A 
ATOM      4  N   UNL     1     -14.425 -44.223  27.101  1.00  0.00    -0.201 N 
ATOM      5  C   UNL     1     -14.141 -44.821  25.921  1.00  0.00     0.309 A 
ATOM      6  C   UNL     1     -14.510 -44.228  24.719  1.00  0.00     0.079 A 
ENDROOT
BRANCH   1   7
ATOM      7  C   UNL     1     -15.598 -42.411  23.461  1.00  0.00     0.016 C 
BRANCH   7   8
ATOM      8  C   UNL     1     -16.832 -41.964  23.193  1.00  0.00     0.005 C 
ATOM      9  C   UNL     1     -21.190 -40.343  22.443  1.00  0.00     0.161 A 
ATOM     10  C   UNL     1     -20.482 -41.211  23.289  1.00  0.00     0.055 A 
ATOM     11  C   UNL     1     -20.519 -39.637  21.405  1.00  0.00     0.161 A 
ATOM     12  C   UNL     1     -19.118 -41.362  23.092  1.00  0.00    -0.028 A 
ATOM     13  C   UNL     1     -19.143 -39.800  21.219  1.00  0.00     0.063 A 
ATOM     14  C   UNL     1     -18.479 -40.662  22.072  1.00  0.00     0.030 A 
ATOM     15  C   UNL     1     -18.161 -42.227  23.858  1.00  0.00     0.076 C 
ATOM     16  C   UNL     1     -17.053 -40.992  22.077  1.00  0.00     0.189 C 
ATOM     17  O   UNL     1     -16.208 -40.554  21.323  1.00  0.00    -0.289 OA
BRANCH   9  18
ATOM     18  O   UNL     1     -22.542 -40.111  22.537  1.00  0.00    -0.493 OA
ATOM     19  C   UNL     1     -23.428 -41.165  22.191  1.00  0.00     0.278 C 
ENDBRANCH   9  18
BRANCH  11  20
ATOM     20  O   UNL     1     -21.307 -38.816  20.636  1.00  0.00    -0.493 OA
ATOM     21  C   UNL     1     -21.463 -39.144  19.261  1.00  0.00     0.278 C 
ENDBRANCH  11  20
ENDBRANCH   7   8
ENDBRANCH   1   7
BRANCH   4  22
ATOM     22  C   UNL     1     -14.026 -44.872  28.377  1.00  0.00     0.393 C 
BRANCH  22  23
ATOM     23  C   UNL     1     -12.523 -44.965  28.495  1.00  0.00     0.024 A 
ATOM     24  C   UNL     1     -11.895 -46.213  28.629  1.00  0.00     0.011 A 
ATOM     25  C   UNL     1     -11.727 -43.807  28.483  1.00  0.00     0.095 A 
ATOM     26  C   UNL     1     -10.504 -46.308  28.736  1.00  0.00     0.008 A 
ATOM     27  C   UNL     1     -10.329 -43.909  28.590  1.00  0.00     0.269 A 
ATOM     28  C   UNL     1      -9.714 -45.158  28.715  1.00  0.00     0.085 A 
BRANCH  27  29
ATOM     29  N   UNL     1      -9.511 -42.688  28.563  1.00  0.00     0.062 N 
ATOM     30  O   UNL     1     -10.000 -41.696  28.002  1.00  0.00    -0.258 OA
ATOM     31  O   UNL     1      -8.395 -42.727  29.093  1.00  0.00    -0.258 OA
ENDBRANCH  27  29
ENDBRANCH  22  23
ENDBRANCH   4  22
TORSDOF 7
ENDMDL
MODEL 4
REMARK VINA RESULT:   -11.196      2.040      2.970
REMARK INTER + INTRA:         -16.326
REMARK INTER:                 -16.158
REMARK INTRA:                  -0.168
REMARK UNBOUND:                -0.549
REMARK SMILES COc1cc2c(cc1OC)C(=O)/C(=C/c1cc[n+](Cc3cccc([N+](=O)[O-])c3)cc1)C2
REMARK SMILES IDX 15 1 16 2 17 3 18 4 29 5 30 6 14 7 13 8 3 9 4 10 8 11 5 12
REMARK SMILES IDX 7 13 6 14 31 15 11 16 12 17 2 18 1 19 9 20 10 21 19 22 20 23
REMARK SMILES IDX 21 24 28 25 22 26 24 27 23 28 25 29 26 30 27 31
REMARK H PARENT
ROOT
ATOM      1  C   UNL     1     -13.477 -43.517  26.557  1.00  0.00    -0.013 A 
ATOM      2  C   UNL     1     -12.331 -43.088  27.220  1.00  0.00     0.079 A 
ATOM      3  C   UNL     1     -11.658 -43.964  28.063  1.00  0.00     0.309 A 
ATOM      4  N   UNL     1     -12.107 -45.228  28.250  1.00  0.00    -0.201 N 
ATOM      5  C   UNL     1     -13.220 -45.662  27.614  1.00  0.00     0.309 A 
ATOM      6  C   UNL     1     -13.926 -44.818  26.765  1.00  0.00     0.079 A 
ENDROOT
BRANCH   1   7
ATOM      7  C   UNL     1     -14.255 -42.621  25.702  1.00  0.00     0.016 C 
BRANCH   7   8
ATOM      8  C   UNL     1     -15.592 -42.611  25.602  1.00  0.00     0.005 C 
ATOM      9  C   UNL     1     -20.277 -42.745  25.142  1.00  0.00     0.161 A 
ATOM     10  C   UNL     1     -19.105 -42.796  24.370  1.00  0.00     0.055 A 
ATOM     11  C   UNL     1     -20.206 -42.606  26.558  1.00  0.00     0.161 A 
ATOM     12  C   UNL     1     -17.882 -42.708  25.017  1.00  0.00    -0.028 A 
ATOM     13  C   UNL     1     -18.965 -42.518  27.194  1.00  0.00     0.063 A 
ATOM     14  C   UNL     1     -17.833 -42.572  26.402  1.00  0.00     0.030 A 
ATOM     15  C   UNL     1     -16.510 -42.733  24.411  1.00  0.00     0.076 C 
ATOM     16  C   UNL     1     -16.436 -42.505  26.833  1.00  0.00     0.189 C 
ATOM     17  O   UNL     1     -16.037 -42.390  27.974  1.00  0.00    -0.289 OA
BRANCH   9  18
ATOM     18  O   UNL     1     -21.546 -42.821  24.619  1.00  0.00    -0.493 OA
ATOM     19  C   UNL     1     -21.784 -42.229  23.351  1.00  0.00     0.278 C 
ENDBRANCH   9  18
BRANCH  11  20
ATOM     20  O   UNL     1     -21.412 -42.566  27.214  1.00  0.00    -0.493 OA
ATOM     21  C   UNL     1     -21.938 -43.791  27.708  1.00  0.00     0.278 C 
ENDBRANCH  11  20
ENDBRANCH   7   8
ENDBRANCH   1   7
BRANCH   4  22
ATOM     22  C   UNL     1     -11.366 -46.143  29.157  1.00  0.00     0.393 C 
BRANCH  22  23
ATOM     23  C   UNL     1     -10.780 -45.391  30.329  1.00  0.00     0.024 A 
ATOM     24  C   UNL     1      -9.498 -45.706  30.809  1.00  0.00     0.011 A 
ATOM     25  C   UNL     1     -11.507 -44.372  30.968  1.00  0.00     0.095 A 
ATOM     26  C   UNL     1      -8.948 -45.013  31.892  1.00  0.00     0.008 A 
ATOM     27  C   UNL     1     -10.948 -43.679  32.056  1.00  0.00     0.269 A 
ATOM     28  C   UNL     1      -9.668 -43.995  32.519  1.00  0.00     0.085 A 
BRANCH  27  29
ATOM     29  N   UNL     1     -11.719 -42.607  32.702  1.00  0.00     0.062 N 
ATOM     30  O   UNL     1     -11.246 -42.123  33.741  1.00  0.00    -0.258 OA
ATOM     31  O   UNL     1     -12.784 -42.262  32.177  1.00  0.00    -0.258 OA
ENDBRANCH  27  29
ENDBRANCH  22  23
ENDBRANCH   4  22
TORSDOF 7
ENDMDL
MODEL 5
REMARK VINA RESULT:   -10.853      3.147     11.055
REMARK INTER + INTRA:         -15.843
REMARK INTER:                 -15.486
REMARK INTRA:                  -0.357
REMARK UNBOUND:                -0.549
REMARK SMILES COc1cc2c(cc1OC)C(=O)/C(=C/c1cc[n+](Cc3cccc([N+](=O)[O-])c3)cc1)C2
REMARK SMILES IDX 15 1 16 2 17 3 18 4 29 5 30 6 14 7 13 8 3 9 4 10 8 11 5 12
REMARK SMILES IDX 7 13 6 14 31 15 11 16 12 17 2 18 1 19 9 20 10 21 19 22 20 23
REMARK SMILES IDX 21 24 28 25 22 26 24 27 23 28 25 29 26 30 27 31
REMARK H PARENT
ROOT
ATOM      1  C   UNL     1     -13.951 -44.700  26.372  1.00  0.00    -0.013 A 
ATOM      2  C   UNL     1     -14.101 -43.365  26.737  1.00  0.00     0.079 A 
ATOM      3  C   UNL     1     -14.532 -42.440  25.793  1.00  0.00     0.309 A 
ATOM      4  N   UNL     1     -14.802 -42.822  24.522  1.00  0.00    -0.201 N 
ATOM      5  C   UNL     1     -14.662 -44.115  24.149  1.00  0.00     0.309 A 
ATOM      6  C   UNL     1     -14.229 -45.072  25.060  1.00  0.00     0.079 A 
ENDROOT
BRANCH   1   7
ATOM      7  C   UNL     1     -13.448 -45.705  27.309  1.00  0.00     0.016 C 
BRANCH   7   8
ATOM      8  C   UNL     1     -12.544 -45.482  28.272  1.00  0.00     0.005 C 
ATOM      9  C   UNL     1      -9.246 -44.619  31.522  1.00  0.00     0.161 A 
ATOM     10  C   UNL     1      -9.403 -45.220  30.262  1.00  0.00     0.055 A 
ATOM     11  C   UNL     1     -10.357 -44.024  32.184  1.00  0.00     0.161 A 
ATOM     12  C   UNL     1     -10.661 -45.219  29.680  1.00  0.00    -0.028 A 
ATOM     13  C   UNL     1     -11.619 -44.032  31.583  1.00  0.00     0.063 A 
ATOM     14  C   UNL     1     -11.736 -44.632  30.343  1.00  0.00     0.030 A 
ATOM     15  C   UNL     1     -11.071 -45.798  28.359  1.00  0.00     0.076 C 
ATOM     16  C   UNL     1     -12.940 -44.761  29.522  1.00  0.00     0.189 C 
ATOM     17  O   UNL     1     -14.051 -44.355  29.800  1.00  0.00    -0.289 OA
BRANCH   9  18
ATOM     18  O   UNL     1      -8.052 -44.557  32.200  1.00  0.00    -0.493 OA
ATOM     19  C   UNL     1      -6.991 -45.393  31.765  1.00  0.00     0.278 C 
ENDBRANCH   9  18
BRANCH  11  20
ATOM     20  O   UNL     1     -10.092 -43.466  33.410  1.00  0.00    -0.493 OA
ATOM     21  C   UNL     1     -10.857 -42.333  33.803  1.00  0.00     0.278 C 
ENDBRANCH  11  20
ENDBRANCH   7   8
ENDBRANCH   1   7
BRANCH   4  22
ATOM     22  C   UNL     1     -15.262 -41.810  23.536  1.00  0.00     0.393 C 
BRANCH  22  23
ATOM     23  C   UNL     1     -16.770 -41.783  23.445  1.00  0.00     0.024 A 
ATOM     24  C   UNL     1     -17.553 -42.464  24.391  1.00  0.00     0.011 A 
ATOM     25  C   UNL     1     -17.417 -41.087  22.411  1.00  0.00     0.095 A 
ATOM     26  C   UNL     1     -18.949 -42.442  24.315  1.00  0.00     0.008 A 
ATOM     27  C   UNL     1     -18.821 -41.067  22.341  1.00  0.00     0.269 A 
ATOM     28  C   UNL     1     -19.590 -41.742  23.293  1.00  0.00     0.085 A 
BRANCH  27  29
ATOM     29  N   UNL     1     -19.480 -40.322  21.259  1.00  0.00     0.062 N 
ATOM     30  O   UNL     1     -18.838 -40.167  20.210  1.00  0.00    -0.258 OA
ATOM     31  O   UNL     1     -20.624 -39.896  21.463  1.00  0.00    -0.258 OA
ENDBRANCH  27  29
ENDBRANCH  22  23
ENDBRANCH   4  22
TORSDOF 7
ENDMDL
MODEL 6
REMARK VINA RESULT:   -10.775      1.551      2.162
REMARK INTER + INTRA:         -15.734
REMARK INTER:                 -15.278
REMARK INTRA:                  -0.456
REMARK UNBOUND:                -0.549
REMARK SMILES COc1cc2c(cc1OC)C(=O)/C(=C/c1cc[n+](Cc3cccc([N+](=O)[O-])c3)cc1)C2
REMARK SMILES IDX 15 1 16 2 17 3 18 4 29 5 30 6 14 7 13 8 3 9 4 10 8 11 5 12
REMARK SMILES IDX 7 13 6 14 31 15 11 16 12 17 2 18 1 19 9 20 10 21 19 22 20 23
REMARK SMILES IDX 21 24 28 25 22 26 24 27 23 28 25 29 26 30 27 31
REMARK H PARENT
ROOT
ATOM      1  C   UNL     1     -14.320 -44.081  26.912  1.00  0.00    -0.013 A 
ATOM      2  C   UNL     1     -13.336 -45.066  26.923  1.00  0.00     0.079 A 
ATOM      3  C   UNL     1     -12.991 -45.676  28.124  1.00  0.00     0.309 A 
ATOM      4  N   UNL     1     -13.596 -45.319  29.282  1.00  0.00    -0.201 N 
ATOM      5  C   UNL     1     -14.554 -44.363  29.290  1.00  0.00     0.309 A 
ATOM      6  C   UNL     1     -14.927 -43.724  28.112  1.00  0.00     0.079 A 
ENDROOT
BRANCH   1   7
ATOM      7  C   UNL     1     -14.683 -43.367  25.688  1.00  0.00     0.016 C 
BRANCH   7   8
ATOM      8  C   UNL     1     -15.921 -42.979  25.355  1.00  0.00     0.005 C 
ATOM      9  C   UNL     1     -20.271 -41.486  24.338  1.00  0.00     0.161 A 
ATOM     10  C   UNL     1     -19.510 -41.973  25.413  1.00  0.00     0.055 A 
ATOM     11  C   UNL     1     -19.686 -41.331  23.049  1.00  0.00     0.161 A 
ATOM     12  C   UNL     1     -18.181 -42.298  25.191  1.00  0.00    -0.028 A 
ATOM     13  C   UNL     1     -18.345 -41.664  22.841  1.00  0.00     0.063 A 
ATOM     14  C   UNL     1     -17.627 -42.140  23.923  1.00  0.00     0.030 A 
ATOM     15  C   UNL     1     -17.182 -42.836  26.172  1.00  0.00     0.076 C 
ATOM     16  C   UNL     1     -16.222 -42.547  23.954  1.00  0.00     0.189 C 
ATOM     17  O   UNL     1     -15.444 -42.531  23.021  1.00  0.00    -0.289 OA
BRANCH   9  18
ATOM     18  O   UNL     1     -21.595 -41.131  24.432  1.00  0.00    -0.493 OA
ATOM     19  C   UNL     1     -22.034 -40.492  25.622  1.00  0.00     0.278 C 
ENDBRANCH   9  18
BRANCH  11  20
ATOM     20  O   UNL     1     -20.520 -40.849  22.071  1.00  0.00    -0.493 OA
ATOM     21  C   UNL     1     -20.314 -39.515  21.622  1.00  0.00     0.278 C 
ENDBRANCH  11  20
ENDBRANCH   7   8
ENDBRANCH   1   7
BRANCH   4  22
ATOM     22  C   UNL     1     -13.206 -45.990  30.549  1.00  0.00     0.393 C 
BRANCH  22  23
ATOM     23  C   UNL     1     -12.033 -45.293  31.196  1.00  0.00     0.024 A 
ATOM     24  C   UNL     1     -12.216 -44.087  31.892  1.00  0.00     0.011 A 
ATOM     25  C   UNL     1     -10.737 -45.829  31.107  1.00  0.00     0.095 A 
ATOM     26  C   UNL     1     -11.135 -43.436  32.495  1.00  0.00     0.008 A 
ATOM     27  C   UNL     1      -9.655 -45.171  31.717  1.00  0.00     0.269 A 
ATOM     28  C   UNL     1      -9.851 -43.976  32.413  1.00  0.00     0.085 A 
BRANCH  27  29
ATOM     29  N   UNL     1      -8.309 -45.755  31.623  1.00  0.00     0.062 N 
ATOM     30  O   UNL     1      -8.226 -46.909  31.178  1.00  0.00    -0.258 OA
ATOM     31  O   UNL     1      -7.353 -45.065  31.994  1.00  0.00    -0.258 OA
ENDBRANCH  27  29
ENDBRANCH  22  23
ENDBRANCH   4  22
TORSDOF 7
ENDMDL
MODEL 7
REMARK VINA RESULT:   -10.721      2.069      3.093
REMARK INTER + INTRA:         -15.657
REMARK INTER:                 -15.222
REMARK INTRA:                  -0.435
REMARK UNBOUND:                -0.549
REMARK SMILES COc1cc2c(cc1OC)C(=O)/C(=C/c1cc[n+](Cc3cccc([N+](=O)[O-])c3)cc1)C2
REMARK SMILES IDX 15 1 16 2 17 3 18 4 29 5 30 6 14 7 13 8 3 9 4 10 8 11 5 12
REMARK SMILES IDX 7 13 6 14 31 15 11 16 12 17 2 18 1 19 9 20 10 21 19 22 20 23
REMARK SMILES IDX 21 24 28 25 22 26 24 27 23 28 25 29 26 30 27 31
REMARK H PARENT
ROOT
ATOM      1  C   UNL     1     -14.975 -43.751  25.947  1.00  0.00    -0.013 A 
ATOM      2  C   UNL     1     -15.051 -43.482  27.310  1.00  0.00     0.079 A 
ATOM      3  C   UNL     1     -14.340 -44.272  28.206  1.00  0.00     0.309 A 
ATOM      4  N   UNL     1     -13.579 -45.303  27.768  1.00  0.00    -0.201 N 
ATOM      5  C   UNL     1     -13.494 -45.580  26.446  1.00  0.00     0.309 A 
ATOM      6  C   UNL     1     -14.192 -44.817  25.516  1.00  0.00     0.079 A 
ENDROOT
BRANCH   1   7
ATOM      7  C   UNL     1     -15.746 -42.988  24.965  1.00  0.00     0.016 C 
BRANCH   7   8
ATOM      8  C   UNL     1     -17.006 -42.564  25.129  1.00  0.00     0.005 C 
ATOM      9  C   UNL     1     -21.370 -40.941  25.840  1.00  0.00     0.161 A 
ATOM     10  C   UNL     1     -20.260 -41.427  26.549  1.00  0.00     0.055 A 
ATOM     11  C   UNL     1     -21.335 -40.842  24.420  1.00  0.00     0.161 A 
ATOM     12  C   UNL     1     -19.133 -41.806  25.837  1.00  0.00    -0.028 A 
ATOM     13  C   UNL     1     -20.191 -41.228  23.716  1.00  0.00     0.063 A 
ATOM     14  C   UNL     1     -19.118 -41.701  24.448  1.00  0.00     0.030 A 
ATOM     15  C   UNL     1     -17.841 -42.353  26.368  1.00  0.00     0.076 C 
ATOM     16  C   UNL     1     -17.822 -42.158  23.942  1.00  0.00     0.189 C 
ATOM     17  O   UNL     1     -17.473 -42.195  22.779  1.00  0.00    -0.289 OA
BRANCH   9  18
ATOM     18  O   UNL     1     -22.543 -40.536  26.431  1.00  0.00    -0.493 OA
ATOM     19  C   UNL     1     -23.182 -41.429  27.330  1.00  0.00     0.278 C 
ENDBRANCH   9  18
BRANCH  11  20
ATOM     20  O   UNL     1     -22.475 -40.355  23.828  1.00  0.00    -0.493 OA
ATOM     21  C   UNL     1     -23.211 -41.232  22.986  1.00  0.00     0.278 C 
ENDBRANCH  11  20
ENDBRANCH   7   8
ENDBRANCH   1   7
BRANCH   4  22
ATOM     22  C   UNL     1     -12.829 -46.129  28.749  1.00  0.00     0.393 C 
BRANCH  22  23
ATOM     23  C   UNL     1     -11.813 -45.299  29.497  1.00  0.00     0.024 A 
ATOM     24  C   UNL     1     -11.552 -45.545  30.855  1.00  0.00     0.011 A 
ATOM     25  C   UNL     1     -11.118 -44.259  28.856  1.00  0.00     0.095 A 
ATOM     26  C   UNL     1     -10.611 -44.782  31.554  1.00  0.00     0.008 A 
ATOM     27  C   UNL     1     -10.173 -43.497  29.564  1.00  0.00     0.269 A 
ATOM     28  C   UNL     1      -9.916 -43.757  30.912  1.00  0.00     0.085 A 
BRANCH  27  29
ATOM     29  N   UNL     1      -9.447 -42.423  28.872  1.00  0.00     0.062 N 
ATOM     30  O   UNL     1     -10.082 -41.761  28.038  1.00  0.00    -0.258 OA
ATOM     31  O   UNL     1      -8.256 -42.251  29.159  1.00  0.00    -0.258 OA
ENDBRANCH  27  29
ENDBRANCH  22  23
ENDBRANCH   4  22
TORSDOF 7
ENDMDL
MODEL 8
REMARK VINA RESULT:   -10.631      3.517     10.560
REMARK INTER + INTRA:         -15.531
REMARK INTER:                 -14.978
REMARK INTRA:                  -0.552
REMARK UNBOUND:                -0.549
REMARK SMILES COc1cc2c(cc1OC)C(=O)/C(=C/c1cc[n+](Cc3cccc([N+](=O)[O-])c3)cc1)C2
REMARK SMILES IDX 15 1 16 2 17 3 18 4 29 5 30 6 14 7 13 8 3 9 4 10 8 11 5 12
REMARK SMILES IDX 7 13 6 14 31 15 11 16 12 17 2 18 1 19 9 20 10 21 19 22 20 23
REMARK SMILES IDX 21 24 28 25 22 26 24 27 23 28 25 29 26 30 27 31
REMARK H PARENT
ROOT
ATOM      1  C   UNL     1     -15.180 -43.131  26.014  1.00  0.00    -0.013 A 
ATOM      2  C   UNL     1     -16.008 -42.969  24.908  1.00  0.00     0.079 A 
ATOM      3  C   UNL     1     -17.329 -42.575  25.092  1.00  0.00     0.309 A 
ATOM      4  N   UNL     1     -17.819 -42.352  26.334  1.00  0.00    -0.201 N 
ATOM      5  C   UNL     1     -17.028 -42.505  27.422  1.00  0.00     0.309 A 
ATOM      6  C   UNL     1     -15.702 -42.902  27.284  1.00  0.00     0.079 A 
ENDROOT
BRANCH   1   7
ATOM      7  C   UNL     1     -13.799 -43.597  25.883  1.00  0.00     0.016 C 
BRANCH   7   8
ATOM      8  C   UNL     1     -12.924 -43.721  26.890  1.00  0.00     0.005 C 
ATOM      9  C   UNL     1      -9.931 -43.997  30.516  1.00  0.00     0.161 A 
ATOM     10  C   UNL     1     -10.420 -43.077  29.575  1.00  0.00     0.055 A 
ATOM     11  C   UNL     1     -10.386 -45.346  30.513  1.00  0.00     0.161 A 
ATOM     12  C   UNL     1     -11.353 -43.511  28.647  1.00  0.00    -0.028 A 
ATOM     13  C   UNL     1     -11.328 -45.768  29.570  1.00  0.00     0.063 A 
ATOM     14  C   UNL     1     -11.786 -44.834  28.660  1.00  0.00     0.030 A 
ATOM     15  C   UNL     1     -12.009 -42.721  27.553  1.00  0.00     0.076 C 
ATOM     16  C   UNL     1     -12.765 -45.034  27.590  1.00  0.00     0.189 C 
ATOM     17  O   UNL     1     -13.344 -46.068  27.325  1.00  0.00    -0.289 OA
BRANCH   9  18
ATOM     18  O   UNL     1      -9.005 -43.689  31.484  1.00  0.00    -0.493 OA
ATOM     19  C   UNL     1      -9.471 -43.132  32.703  1.00  0.00     0.278 C 
ENDBRANCH   9  18
BRANCH  11  20
ATOM     20  O   UNL     1      -9.842 -46.161  31.476  1.00  0.00    -0.493 OA
ATOM     21  C   UNL     1      -8.638 -46.848  31.160  1.00  0.00     0.278 C 
ENDBRANCH  11  20
ENDBRANCH   7   8
ENDBRANCH   1   7
BRANCH   4  22
ATOM     22  C   UNL     1     -19.234 -41.931  26.499  1.00  0.00     0.393 C 
BRANCH  22  23
ATOM     23  C   UNL     1     -20.163 -43.121  26.474  1.00  0.00     0.024 A 
ATOM     24  C   UNL     1     -20.267 -43.920  25.324  1.00  0.00     0.011 A 
ATOM     25  C   UNL     1     -20.948 -43.447  27.593  1.00  0.00     0.095 A 
ATOM     26  C   UNL     1     -21.124 -45.025  25.293  1.00  0.00     0.008 A 
ATOM     27  C   UNL     1     -21.806 -44.560  27.557  1.00  0.00     0.269 A 
ATOM     28  C   UNL     1     -21.895 -45.352  26.409  1.00  0.00     0.085 A 
BRANCH  27  29
ATOM     29  N   UNL     1     -22.609 -44.892  28.742  1.00  0.00     0.062 N 
ATOM     30  O   UNL     1     -23.573 -45.654  28.573  1.00  0.00    -0.258 OA
ATOM     31  O   UNL     1     -22.278 -44.392  29.824  1.00  0.00    -0.258 OA
ENDBRANCH  27  29
ENDBRANCH  22  23
ENDBRANCH   4  22
TORSDOF 7
ENDMDL
MODEL 9
REMARK VINA RESULT:   -10.380      2.997     10.700
REMARK INTER + INTRA:         -15.177
REMARK INTER:                 -14.658
REMARK INTRA:                  -0.519
REMARK UNBOUND:                -0.549
REMARK SMILES COc1cc2c(cc1OC)C(=O)/C(=C/c1cc[n+](Cc3cccc([N+](=O)[O-])c3)cc1)C2
REMARK SMILES IDX 15 1 16 2 17 3 18 4 29 5 30 6 14 7 13 8 3 9 4 10 8 11 5 12
REMARK SMILES IDX 7 13 6 14 31 15 11 16 12 17 2 18 1 19 9 20 10 21 19 22 20 23
REMARK SMILES IDX 21 24 28 25 22 26 24 27 23 28 25 29 26 30 27 31
REMARK H PARENT
ROOT
ATOM      1  C   UNL     1     -14.137 -44.444  26.523  1.00  0.00    -0.013 A 
ATOM      2  C   UNL     1     -14.581 -43.157  26.807  1.00  0.00     0.079 A 
ATOM      3  C   UNL     1     -15.071 -42.358  25.780  1.00  0.00     0.309 A 
ATOM      4  N   UNL     1     -15.116 -42.817  24.507  1.00  0.00    -0.201 N 
ATOM      5  C   UNL     1     -14.688 -44.067  24.212  1.00  0.00     0.309 A 
ATOM      6  C   UNL     1     -14.186 -44.897  25.208  1.00  0.00     0.079 A 
ENDROOT
BRANCH   1   7
ATOM      7  C   UNL     1     -13.560 -45.307  27.554  1.00  0.00     0.016 C 
BRANCH   7   8
ATOM      8  C   UNL     1     -12.608 -44.944  28.425  1.00  0.00     0.005 C 
ATOM      9  C   UNL     1      -9.213 -43.522  31.362  1.00  0.00     0.161 A 
ATOM     10  C   UNL     1      -9.414 -43.870  30.017  1.00  0.00     0.055 A 
ATOM     11  C   UNL     1     -10.293 -43.559  32.289  1.00  0.00     0.161 A 
ATOM     12  C   UNL     1     -10.685 -44.249  29.613  1.00  0.00    -0.028 A 
ATOM     13  C   UNL     1     -11.569 -43.943  31.866  1.00  0.00     0.063 A 
ATOM     14  C   UNL     1     -11.729 -44.279  30.534  1.00  0.00     0.030 A 
ATOM     15  C   UNL     1     -11.137 -44.665  28.245  1.00  0.00     0.076 C 
ATOM     16  C   UNL     1     -12.957 -44.705  29.861  1.00  0.00     0.189 C 
ATOM     17  O   UNL     1     -14.052 -44.833  30.369  1.00  0.00    -0.289 OA
BRANCH   9  18
ATOM     18  O   UNL     1      -8.002 -43.132  31.883  1.00  0.00    -0.493 OA
ATOM     19  C   UNL     1      -7.112 -44.141  32.336  1.00  0.00     0.278 C 
ENDBRANCH   9  18
BRANCH  11  20
ATOM     20  O   UNL     1      -9.986 -43.200  33.578  1.00  0.00    -0.493 OA
ATOM     21  C   UNL     1     -10.634 -42.057  34.121  1.00  0.00     0.278 C 
ENDBRANCH  11  20
ENDBRANCH   7   8
ENDBRANCH   1   7
BRANCH   4  22
ATOM     22  C   UNL     1     -15.646 -41.941  23.430  1.00  0.00     0.393 C 
BRANCH  22  23
ATOM     23  C   UNL     1     -17.152 -41.841  23.500  1.00  0.00     0.024 A 
ATOM     24  C   UNL     1     -17.873 -41.217  22.469  1.00  0.00     0.011 A 
ATOM     25  C   UNL     1     -17.858 -42.360  24.598  1.00  0.00     0.095 A 
ATOM     26  C   UNL     1     -19.268 -41.123  22.525  1.00  0.00     0.008 A 
ATOM     27  C   UNL     1     -19.260 -42.264  24.648  1.00  0.00     0.269 A 
ATOM     28  C   UNL     1     -19.967 -41.648  23.612  1.00  0.00     0.085 A 
BRANCH  27  29
ATOM     29  N   UNL     1     -19.982 -42.825  25.798  1.00  0.00     0.062 N 
ATOM     30  O   UNL     1     -21.141 -43.218  25.598  1.00  0.00    -0.258 OA
ATOM     31  O   UNL     1     -19.395 -42.865  26.886  1.00  0.00    -0.258 OA
ENDBRANCH  27  29
ENDBRANCH  22  23
ENDBRANCH   4  22
TORSDOF 7
ENDMDL
