MODEL 1
REMARK VINA RESULT:   -10.268      0.000      0.000
REMARK INTER + INTRA:         -15.301
REMARK INTER:                 -14.169
REMARK INTRA:                  -1.132
REMARK UNBOUND:                -1.132
REMARK SMILES COc1cccc([C@@H]2CC(c3cc(F)ccc3F)=NN2c2ccc(S(N)(=O)=O)cc2)c1OC
REMARK SMILES IDX 21 1 22 2 23 3 24 4 29 5 30 6 20 7 8 8 9 9 10 10 19 11 7 12
REMARK SMILES IDX 3 13 4 14 31 15 5 16 6 17 2 18 1 19 32 20 33 21 11 22 12 23
REMARK SMILES IDX 17 24 13 25 16 26 15 27 18 28 14 29 25 30 27 31 28 32 26 33
REMARK H PARENT 26 34 26 35
ROOT
ATOM      1  C   UNL     1     -17.452 -42.489  25.289  1.00  0.00     0.060 A 
ATOM      2  C   UNL     1     -16.407 -43.024  24.515  1.00  0.00     0.029 A 
ATOM      3  C   UNL     1     -15.230 -43.507  25.099  1.00  0.00     0.024 A 
ATOM      4  C   UNL     1     -15.084 -43.464  26.484  1.00  0.00     0.082 A 
ATOM      5  C   UNL     1     -16.089 -42.927  27.283  1.00  0.00     0.024 A 
ATOM      6  C   UNL     1     -17.260 -42.452  26.683  1.00  0.00     0.029 A 
ENDROOT
BRANCH   1   7
ATOM      7  N   UNL     1     -18.629 -42.005  24.720  1.00  0.00    -0.257 N 
ATOM      8  C   UNL     1     -19.865 -41.680  25.443  1.00  0.00     0.148 C 
ATOM      9  C   UNL     1     -20.650 -40.866  24.413  1.00  0.00     0.091 C 
ATOM     10  C   UNL     1     -19.838 -41.137  23.176  1.00  0.00     0.074 C 
ATOM     11  N   UNL     1     -18.706 -41.742  23.383  1.00  0.00    -0.176 NA
BRANCH   8  12
ATOM     12  C   UNL     1     -20.657 -42.903  25.885  1.00  0.00     0.023 A 
ATOM     13  C   UNL     1     -22.373 -43.898  27.335  1.00  0.00     0.161 A 
ATOM     14  C   UNL     1     -22.201 -45.120  26.679  1.00  0.00     0.050 A 
ATOM     15  C   UNL     1     -21.577 -42.798  26.950  1.00  0.00     0.166 A 
ATOM     16  C   UNL     1     -21.282 -45.241  25.636  1.00  0.00     0.004 A 
ATOM     17  C   UNL     1     -20.527 -44.142  25.234  1.00  0.00     0.010 A 
BRANCH  13  18
ATOM     18  O   UNL     1     -23.289 -43.684  28.331  1.00  0.00    -0.493 OA
ATOM     19  C   UNL     1     -23.626 -44.784  29.166  1.00  0.00     0.278 C 
ENDBRANCH  13  18
BRANCH  15  20
ATOM     20  O   UNL     1     -21.699 -41.551  27.519  1.00  0.00    -0.492 OA
ATOM     21  C   UNL     1     -22.894 -40.869  27.138  1.00  0.00     0.278 C 
ENDBRANCH  15  20
ENDBRANCH   8  12
BRANCH  10  22
ATOM     22  C   UNL     1     -20.281 -40.721  21.829  1.00  0.00     0.037 A 
ATOM     23  C   UNL     1     -20.246 -39.359  21.500  1.00  0.00     0.052 A 
ATOM     24  C   UNL     1     -20.736 -41.637  20.876  1.00  0.00     0.132 A 
ATOM     25  C   UNL     1     -20.655 -38.943  20.238  1.00  0.00     0.124 A 
ATOM     26  C   UNL     1     -21.145 -41.211  19.611  1.00  0.00     0.043 A 
ATOM     27  C   UNL     1     -21.103 -39.856  19.288  1.00  0.00     0.042 A 
ATOM     28  F   UNL     1     -20.807 -42.947  21.146  1.00  0.00    -0.206 F 
ATOM     29  F   UNL     1     -20.616 -37.641  19.928  1.00  0.00    -0.207 F 
ENDBRANCH  10  22
ENDBRANCH   1   7
BRANCH   4  30
ATOM     30  S   UNL     1     -13.605 -44.076  27.243  1.00  0.00     0.238 S 
ATOM     31  O   UNL     1     -13.343 -45.406  26.743  1.00  0.00    -0.207 OA
ATOM     32  O   UNL     1     -12.612 -43.028  27.226  1.00  0.00    -0.207 OA
BRANCH  30  33
ATOM     33  N   UNL     1     -14.111 -44.289  28.837  1.00  0.00    -0.225 NA
ATOM     34  H   UNL     1     -13.977 -45.269  29.094  1.00  0.00     0.137 HD
ATOM     35  H   UNL     1     -15.069 -43.980  28.997  1.00  0.00     0.137 HD
ENDBRANCH  30  33
ENDBRANCH   4  30
TORSDOF 7
ENDMDL
MODEL 2
REMARK VINA RESULT:   -10.133      0.698      1.457
REMARK INTER + INTRA:         -15.116
REMARK INTER:                 -13.986
REMARK INTRA:                  -1.130
REMARK UNBOUND:                -1.132
REMARK SMILES COc1cccc([C@@H]2CC(c3cc(F)ccc3F)=NN2c2ccc(S(N)(=O)=O)cc2)c1OC
REMARK SMILES IDX 21 1 22 2 23 3 24 4 29 5 30 6 20 7 8 8 9 9 10 10 19 11 7 12
REMARK SMILES IDX 3 13 4 14 31 15 5 16 6 17 2 18 1 19 32 20 33 21 11 22 12 23
REMARK SMILES IDX 17 24 13 25 16 26 15 27 18 28 14 29 25 30 27 31 28 32 26 33
REMARK H PARENT 26 34 26 35
ROOT
ATOM      1  C   UNL     1     -17.575 -42.475  25.345  1.00  0.00     0.060 A 
ATOM      2  C   UNL     1     -16.546 -43.030  24.565  1.00  0.00     0.029 A 
ATOM      3  C   UNL     1     -15.366 -43.518  25.139  1.00  0.00     0.024 A 
ATOM      4  C   UNL     1     -15.201 -43.459  26.521  1.00  0.00     0.082 A 
ATOM      5  C   UNL     1     -16.190 -42.902  27.326  1.00  0.00     0.024 A 
ATOM      6  C   UNL     1     -17.364 -42.422  26.736  1.00  0.00     0.029 A 
ENDROOT
BRANCH   1   7
ATOM      7  N   UNL     1     -18.755 -41.986  24.787  1.00  0.00    -0.257 N 
ATOM      8  C   UNL     1     -20.011 -41.739  25.506  1.00  0.00     0.148 C 
ATOM      9  C   UNL     1     -20.800 -40.882  24.514  1.00  0.00     0.091 C 
ATOM     10  C   UNL     1     -19.960 -41.053  23.278  1.00  0.00     0.074 C 
ATOM     11  N   UNL     1     -18.816 -41.641  23.467  1.00  0.00    -0.176 NA
BRANCH   8  12
ATOM     12  C   UNL     1     -20.778 -43.008  25.854  1.00  0.00     0.023 A 
ATOM     13  C   UNL     1     -22.518 -44.127  27.179  1.00  0.00     0.161 A 
ATOM     14  C   UNL     1     -22.275 -45.310  26.475  1.00  0.00     0.050 A 
ATOM     15  C   UNL     1     -21.745 -42.984  26.881  1.00  0.00     0.166 A 
ATOM     16  C   UNL     1     -21.309 -45.350  25.470  1.00  0.00     0.004 A 
ATOM     17  C   UNL     1     -20.576 -44.208  25.153  1.00  0.00     0.010 A 
BRANCH  13  18
ATOM     18  O   UNL     1     -23.483 -43.992  28.143  1.00  0.00    -0.493 OA
ATOM     19  C   UNL     1     -23.881 -45.160  28.847  1.00  0.00     0.278 C 
ENDBRANCH  13  18
BRANCH  15  20
ATOM     20  O   UNL     1     -21.936 -41.770  27.502  1.00  0.00    -0.492 OA
ATOM     21  C   UNL     1     -23.170 -41.144  27.154  1.00  0.00     0.278 C 
ENDBRANCH  15  20
ENDBRANCH   8  12
BRANCH  10  22
ATOM     22  C   UNL     1     -20.391 -40.564  21.951  1.00  0.00     0.037 A 
ATOM     23  C   UNL     1     -20.862 -41.492  21.013  1.00  0.00     0.052 A 
ATOM     24  C   UNL     1     -20.342 -39.211  21.602  1.00  0.00     0.132 A 
ATOM     25  C   UNL     1     -21.275 -41.056  19.759  1.00  0.00     0.124 A 
ATOM     26  C   UNL     1     -20.759 -38.781  20.342  1.00  0.00     0.043 A 
ATOM     27  C   UNL     1     -21.231 -39.708  19.414  1.00  0.00     0.042 A 
ATOM     28  F   UNL     1     -19.883 -38.286  22.456  1.00  0.00    -0.206 F 
ATOM     29  F   UNL     1     -21.727 -41.946  18.866  1.00  0.00    -0.207 F 
ENDBRANCH  10  22
ENDBRANCH   1   7
BRANCH   4  30
ATOM     30  S   UNL     1     -13.718 -44.076  27.268  1.00  0.00     0.238 S 
ATOM     31  O   UNL     1     -13.441 -45.390  26.733  1.00  0.00    -0.207 OA
ATOM     32  O   UNL     1     -12.736 -43.019  27.282  1.00  0.00    -0.207 OA
BRANCH  30  33
ATOM     33  N   UNL     1     -14.226 -44.338  28.854  1.00  0.00    -0.225 NA
ATOM     34  H   UNL     1     -14.768 -43.529  29.162  1.00  0.00     0.137 HD
ATOM     35  H   UNL     1     -13.457 -44.546  29.490  1.00  0.00     0.137 HD
ENDBRANCH  30  33
ENDBRANCH   4  30
TORSDOF 7
ENDMDL
MODEL 3
REMARK VINA RESULT:    -9.173      4.557      7.449
REMARK INTER + INTRA:         -13.790
REMARK INTER:                 -12.292
REMARK INTRA:                  -1.498
REMARK UNBOUND:                -1.132
REMARK SMILES COc1cccc([C@@H]2CC(c3cc(F)ccc3F)=NN2c2ccc(S(N)(=O)=O)cc2)c1OC
REMARK SMILES IDX 21 1 22 2 23 3 24 4 29 5 30 6 20 7 8 8 9 9 10 10 19 11 7 12
REMARK SMILES IDX 3 13 4 14 31 15 5 16 6 17 2 18 1 19 32 20 33 21 11 22 12 23
REMARK SMILES IDX 17 24 13 25 16 26 15 27 18 28 14 29 25 30 27 31 28 32 26 33
REMARK H PARENT 26 34 26 35
ROOT
ATOM      1  C   UNL     1     -20.827 -40.685  22.429  1.00  0.00     0.060 A 
ATOM      2  C   UNL     1     -20.209 -39.487  22.032  1.00  0.00     0.029 A 
ATOM      3  C   UNL     1     -20.765 -38.658  21.050  1.00  0.00     0.024 A 
ATOM      4  C   UNL     1     -21.968 -39.022  20.448  1.00  0.00     0.082 A 
ATOM      5  C   UNL     1     -22.602 -40.209  20.801  1.00  0.00     0.024 A 
ATOM      6  C   UNL     1     -22.034 -41.023  21.786  1.00  0.00     0.029 A 
ENDROOT
BRANCH   1   7
ATOM      7  N   UNL     1     -20.284 -41.519  23.404  1.00  0.00    -0.257 N 
ATOM      8  C   UNL     1     -21.014 -42.533  24.176  1.00  0.00     0.148 C 
ATOM      9  C   UNL     1     -19.885 -43.363  24.788  1.00  0.00     0.091 C 
ATOM     10  C   UNL     1     -18.705 -42.478  24.494  1.00  0.00     0.074 C 
ATOM     11  N   UNL     1     -18.951 -41.481  23.697  1.00  0.00    -0.176 NA
BRANCH   8  12
ATOM     12  C   UNL     1     -21.908 -41.949  25.263  1.00  0.00     0.023 A 
ATOM     13  C   UNL     1     -24.012 -42.020  26.529  1.00  0.00     0.161 A 
ATOM     14  C   UNL     1     -23.559 -40.955  27.315  1.00  0.00     0.050 A 
ATOM     15  C   UNL     1     -23.190 -42.495  25.485  1.00  0.00     0.166 A 
ATOM     16  C   UNL     1     -22.301 -40.396  27.093  1.00  0.00     0.004 A 
ATOM     17  C   UNL     1     -21.478 -40.895  26.086  1.00  0.00     0.010 A 
BRANCH  13  18
ATOM     18  O   UNL     1     -25.211 -42.657  26.717  1.00  0.00    -0.493 OA
ATOM     19  C   UNL     1     -25.297 -43.605  27.772  1.00  0.00     0.278 C 
ENDBRANCH  13  18
BRANCH  15  20
ATOM     20  O   UNL     1     -23.541 -43.557  24.682  1.00  0.00    -0.492 OA
ATOM     21  C   UNL     1     -24.448 -43.203  23.639  1.00  0.00     0.278 C 
ENDBRANCH  15  20
ENDBRANCH   8  12
BRANCH  10  22
ATOM     22  C   UNL     1     -17.360 -42.738  25.048  1.00  0.00     0.037 A 
ATOM     23  C   UNL     1     -16.362 -43.221  24.190  1.00  0.00     0.052 A 
ATOM     24  C   UNL     1     -17.051 -42.523  26.394  1.00  0.00     0.132 A 
ATOM     25  C   UNL     1     -15.087 -43.472  24.686  1.00  0.00     0.124 A 
ATOM     26  C   UNL     1     -15.769 -42.777  26.884  1.00  0.00     0.043 A 
ATOM     27  C   UNL     1     -14.780 -43.253  26.026  1.00  0.00     0.042 A 
ATOM     28  F   UNL     1     -17.973 -42.081  27.259  1.00  0.00    -0.206 F 
ATOM     29  F   UNL     1     -14.137 -43.930  23.862  1.00  0.00    -0.207 F 
ENDBRANCH  10  22
ENDBRANCH   1   7
BRANCH   4  30
ATOM     30  S   UNL     1     -22.692 -37.985  19.208  1.00  0.00     0.238 S 
ATOM     31  O   UNL     1     -22.089 -38.298  17.932  1.00  0.00    -0.207 OA
ATOM     32  O   UNL     1     -24.121 -37.960  19.407  1.00  0.00    -0.207 OA
BRANCH  30  33
ATOM     33  N   UNL     1     -22.078 -36.474  19.634  1.00  0.00    -0.225 NA
ATOM     34  H   UNL     1     -21.488 -36.582  20.460  1.00  0.00     0.137 HD
ATOM     35  H   UNL     1     -22.805 -35.774  19.774  1.00  0.00     0.137 HD
ENDBRANCH  30  33
ENDBRANCH   4  30
TORSDOF 7
ENDMDL
MODEL 4
REMARK VINA RESULT:    -8.886      3.272      5.895
REMARK INTER + INTRA:         -13.395
REMARK INTER:                 -12.194
REMARK INTRA:                  -1.201
REMARK UNBOUND:                -1.132
REMARK SMILES COc1cccc([C@@H]2CC(c3cc(F)ccc3F)=NN2c2ccc(S(N)(=O)=O)cc2)c1OC
REMARK SMILES IDX 21 1 22 2 23 3 24 4 29 5 30 6 20 7 8 8 9 9 10 10 19 11 7 12
REMARK SMILES IDX 3 13 4 14 31 15 5 16 6 17 2 18 1 19 32 20 33 21 11 22 12 23
REMARK SMILES IDX 17 24 13 25 16 26 15 27 18 28 14 29 25 30 27 31 28 32 26 33
REMARK H PARENT 26 34 26 35
ROOT
ATOM      1  C   UNL     1     -19.229 -42.076  26.218  1.00  0.00     0.060 A 
ATOM      2  C   UNL     1     -18.427 -42.418  25.115  1.00  0.00     0.029 A 
ATOM      3  C   UNL     1     -17.083 -42.781  25.264  1.00  0.00     0.024 A 
ATOM      4  C   UNL     1     -16.518 -42.811  26.537  1.00  0.00     0.082 A 
ATOM      5  C   UNL     1     -17.275 -42.462  27.652  1.00  0.00     0.024 A 
ATOM      6  C   UNL     1     -18.617 -42.105  27.485  1.00  0.00     0.029 A 
ENDROOT
BRANCH   1   7
ATOM      7  N   UNL     1     -20.568 -41.712  26.083  1.00  0.00    -0.257 N 
ATOM      8  C   UNL     1     -21.470 -42.131  25.002  1.00  0.00     0.148 C 
ATOM      9  C   UNL     1     -22.847 -41.762  25.556  1.00  0.00     0.091 C 
ATOM     10  C   UNL     1     -22.449 -40.915  26.734  1.00  0.00     0.074 C 
ATOM     11  N   UNL     1     -21.182 -40.933  27.021  1.00  0.00    -0.176 NA
BRANCH   8  12
ATOM     12  C   UNL     1     -21.210 -41.424  23.679  1.00  0.00     0.023 A 
ATOM     13  C   UNL     1     -21.210 -41.475  21.222  1.00  0.00     0.161 A 
ATOM     14  C   UNL     1     -20.821 -40.132  21.208  1.00  0.00     0.050 A 
ATOM     15  C   UNL     1     -21.377 -42.124  22.465  1.00  0.00     0.166 A 
ATOM     16  C   UNL     1     -20.637 -39.435  22.402  1.00  0.00     0.004 A 
ATOM     17  C   UNL     1     -20.841 -40.070  23.625  1.00  0.00     0.010 A 
BRANCH  13  18
ATOM     18  O   UNL     1     -21.461 -42.214  20.096  1.00  0.00    -0.493 OA
ATOM     19  C   UNL     1     -22.476 -41.751  19.216  1.00  0.00     0.278 C 
ENDBRANCH  13  18
BRANCH  15  20
ATOM     20  O   UNL     1     -21.786 -43.433  22.575  1.00  0.00    -0.492 OA
ATOM     21  C   UNL     1     -23.187 -43.609  22.368  1.00  0.00     0.278 C 
ENDBRANCH  15  20
ENDBRANCH   8  12
BRANCH  10  22
ATOM     22  C   UNL     1     -23.431 -40.142  27.523  1.00  0.00     0.037 A 
ATOM     23  C   UNL     1     -23.520 -38.758  27.316  1.00  0.00     0.052 A 
ATOM     24  C   UNL     1     -24.268 -40.741  28.468  1.00  0.00     0.132 A 
ATOM     25  C   UNL     1     -24.437 -38.009  28.046  1.00  0.00     0.124 A 
ATOM     26  C   UNL     1     -25.187 -39.983  29.195  1.00  0.00     0.043 A 
ATOM     27  C   UNL     1     -25.274 -38.608  28.982  1.00  0.00     0.042 A 
ATOM     28  F   UNL     1     -24.210 -42.056  28.717  1.00  0.00    -0.206 F 
ATOM     29  F   UNL     1     -24.520 -36.688  27.842  1.00  0.00    -0.207 F 
ENDBRANCH  10  22
ENDBRANCH   1   7
BRANCH   4  30
ATOM     30  S   UNL     1     -14.822 -43.273  26.749  1.00  0.00     0.238 S 
ATOM     31  O   UNL     1     -13.992 -42.115  26.502  1.00  0.00    -0.207 OA
ATOM     32  O   UNL     1     -14.708 -44.071  27.946  1.00  0.00    -0.207 OA
BRANCH  30  33
ATOM     33  N   UNL     1     -14.582 -44.285  25.422  1.00  0.00    -0.225 NA
ATOM     34  H   UNL     1     -14.845 -45.236  25.684  1.00  0.00     0.137 HD
ATOM     35  H   UNL     1     -13.634 -44.239  25.051  1.00  0.00     0.137 HD
ENDBRANCH  30  33
ENDBRANCH   4  30
TORSDOF 7
ENDMDL
MODEL 5
REMARK VINA RESULT:    -8.683      4.478      7.075
REMARK INTER + INTRA:         -13.114
REMARK INTER:                 -11.628
REMARK INTRA:                  -1.486
REMARK UNBOUND:                -1.132
REMARK SMILES COc1cccc([C@@H]2CC(c3cc(F)ccc3F)=NN2c2ccc(S(N)(=O)=O)cc2)c1OC
REMARK SMILES IDX 21 1 22 2 23 3 24 4 29 5 30 6 20 7 8 8 9 9 10 10 19 11 7 12
REMARK SMILES IDX 3 13 4 14 31 15 5 16 6 17 2 18 1 19 32 20 33 21 11 22 12 23
REMARK SMILES IDX 17 24 13 25 16 26 15 27 18 28 14 29 25 30 27 31 28 32 26 33
REMARK H PARENT 26 34 26 35
ROOT
ATOM      1  C   UNL     1     -22.254 -44.126  26.823  1.00  0.00     0.060 A 
ATOM      2  C   UNL     1     -23.029 -44.742  25.826  1.00  0.00     0.029 A 
ATOM      3  C   UNL     1     -24.041 -45.658  26.139  1.00  0.00     0.024 A 
ATOM      4  C   UNL     1     -24.297 -45.969  27.473  1.00  0.00     0.082 A 
ATOM      5  C   UNL     1     -23.539 -45.391  28.488  1.00  0.00     0.024 A 
ATOM      6  C   UNL     1     -22.534 -44.477  28.158  1.00  0.00     0.029 A 
ENDROOT
BRANCH   1   7
ATOM      7  N   UNL     1     -21.243 -43.213  26.525  1.00  0.00    -0.257 N 
ATOM      8  C   UNL     1     -21.229 -41.792  26.897  1.00  0.00     0.148 C 
ATOM      9  C   UNL     1     -19.770 -41.400  26.657  1.00  0.00     0.091 C 
ATOM     10  C   UNL     1     -19.286 -42.604  25.897  1.00  0.00     0.074 C 
ATOM     11  N   UNL     1     -20.113 -43.607  25.870  1.00  0.00    -0.176 NA
BRANCH   8  12
ATOM     12  C   UNL     1     -22.166 -40.930  26.061  1.00  0.00     0.023 A 
ATOM     13  C   UNL     1     -24.020 -39.322  25.950  1.00  0.00     0.161 A 
ATOM     14  C   UNL     1     -23.867 -39.261  24.562  1.00  0.00     0.050 A 
ATOM     15  C   UNL     1     -23.182 -40.181  26.692  1.00  0.00     0.166 A 
ATOM     16  C   UNL     1     -22.879 -40.011  23.925  1.00  0.00     0.004 A 
ATOM     17  C   UNL     1     -22.028 -40.828  24.666  1.00  0.00     0.010 A 
BRANCH  13  18
ATOM     18  O   UNL     1     -24.930 -38.579  26.656  1.00  0.00    -0.493 OA
ATOM     19  C   UNL     1     -24.518 -37.304  27.130  1.00  0.00     0.278 C 
ENDBRANCH  13  18
BRANCH  15  20
ATOM     20  O   UNL     1     -23.240 -40.282  28.064  1.00  0.00    -0.492 OA
ATOM     21  C   UNL     1     -24.330 -41.079  28.527  1.00  0.00     0.278 C 
ENDBRANCH  15  20
ENDBRANCH   8  12
BRANCH  10  22
ATOM     22  C   UNL     1     -17.955 -42.655  25.254  1.00  0.00     0.037 A 
ATOM     23  C   UNL     1     -16.820 -42.774  26.067  1.00  0.00     0.052 A 
ATOM     24  C   UNL     1     -17.793 -42.587  23.868  1.00  0.00     0.132 A 
ATOM     25  C   UNL     1     -15.558 -42.826  25.486  1.00  0.00     0.124 A 
ATOM     26  C   UNL     1     -16.522 -42.641  23.292  1.00  0.00     0.043 A 
ATOM     27  C   UNL     1     -15.397 -42.763  24.105  1.00  0.00     0.042 A 
ATOM     28  F   UNL     1     -18.843 -42.455  23.048  1.00  0.00    -0.206 F 
ATOM     29  F   UNL     1     -14.476 -42.942  26.267  1.00  0.00    -0.207 F 
ENDBRANCH  10  22
ENDBRANCH   1   7
BRANCH   4  30
ATOM     30  S   UNL     1     -25.576 -47.120  27.890  1.00  0.00     0.238 S 
ATOM     31  O   UNL     1     -26.829 -46.405  27.987  1.00  0.00    -0.207 OA
ATOM     32  O   UNL     1     -25.415 -48.301  27.078  1.00  0.00    -0.207 OA
BRANCH  30  33
ATOM     33  N   UNL     1     -25.165 -47.517  29.476  1.00  0.00    -0.225 NA
ATOM     34  H   UNL     1     -24.331 -48.106  29.460  1.00  0.00     0.137 HD
ATOM     35  H   UNL     1     -25.930 -47.953  29.989  1.00  0.00     0.137 HD
ENDBRANCH  30  33
ENDBRANCH   4  30
TORSDOF 7
ENDMDL
MODEL 6
REMARK VINA RESULT:    -8.630      5.309      8.482
REMARK INTER + INTRA:         -13.041
REMARK INTER:                 -11.455
REMARK INTRA:                  -1.586
REMARK UNBOUND:                -1.132
REMARK SMILES COc1cccc([C@@H]2CC(c3cc(F)ccc3F)=NN2c2ccc(S(N)(=O)=O)cc2)c1OC
REMARK SMILES IDX 21 1 22 2 23 3 24 4 29 5 30 6 20 7 8 8 9 9 10 10 19 11 7 12
REMARK SMILES IDX 3 13 4 14 31 15 5 16 6 17 2 18 1 19 32 20 33 21 11 22 12 23
REMARK SMILES IDX 17 24 13 25 16 26 15 27 18 28 14 29 25 30 27 31 28 32 26 33
REMARK H PARENT 26 34 26 35
ROOT
ATOM      1  C   UNL     1     -21.544 -43.388  21.381  1.00  0.00     0.060 A 
ATOM      2  C   UNL     1     -22.718 -43.899  21.962  1.00  0.00     0.029 A 
ATOM      3  C   UNL     1     -23.579 -44.749  21.258  1.00  0.00     0.024 A 
ATOM      4  C   UNL     1     -23.270 -45.107  19.948  1.00  0.00     0.082 A 
ATOM      5  C   UNL     1     -22.125 -44.608  19.332  1.00  0.00     0.024 A 
ATOM      6  C   UNL     1     -21.274 -43.763  20.051  1.00  0.00     0.029 A 
ENDROOT
BRANCH   1   7
ATOM      7  N   UNL     1     -20.678 -42.541  22.070  1.00  0.00    -0.257 N 
ATOM      8  C   UNL     1     -20.984 -41.177  22.521  1.00  0.00     0.148 C 
ATOM      9  C   UNL     1     -19.853 -40.891  23.510  1.00  0.00     0.091 C 
ATOM     10  C   UNL     1     -18.931 -42.041  23.210  1.00  0.00     0.074 C 
ATOM     11  N   UNL     1     -19.430 -42.957  22.434  1.00  0.00    -0.176 NA
BRANCH   8  12
ATOM     12  C   UNL     1     -20.995 -40.148  21.398  1.00  0.00     0.023 A 
ATOM     13  C   UNL     1     -22.121 -38.295  20.243  1.00  0.00     0.161 A 
ATOM     14  C   UNL     1     -21.023 -38.178  19.387  1.00  0.00     0.050 A 
ATOM     15  C   UNL     1     -22.112 -39.302  21.232  1.00  0.00     0.166 A 
ATOM     16  C   UNL     1     -19.920 -39.020  19.531  1.00  0.00     0.004 A 
ATOM     17  C   UNL     1     -19.900 -39.987  20.533  1.00  0.00     0.010 A 
BRANCH  13  18
ATOM     18  O   UNL     1     -23.218 -37.475  20.201  1.00  0.00    -0.493 OA
ATOM     19  C   UNL     1     -24.110 -37.621  19.104  1.00  0.00     0.278 C 
ENDBRANCH  13  18
BRANCH  15  20
ATOM     20  O   UNL     1     -23.136 -39.471  22.136  1.00  0.00    -0.492 OA
ATOM     21  C   UNL     1     -24.164 -40.346  21.672  1.00  0.00     0.278 C 
ENDBRANCH  15  20
ENDBRANCH   8  12
BRANCH  10  22
ATOM     22  C   UNL     1     -17.570 -42.137  23.779  1.00  0.00     0.037 A 
ATOM     23  C   UNL     1     -17.416 -42.672  25.065  1.00  0.00     0.052 A 
ATOM     24  C   UNL     1     -16.437 -41.711  23.081  1.00  0.00     0.132 A 
ATOM     25  C   UNL     1     -16.146 -42.776  25.621  1.00  0.00     0.124 A 
ATOM     26  C   UNL     1     -15.165 -41.819  23.646  1.00  0.00     0.043 A 
ATOM     27  C   UNL     1     -15.017 -42.356  24.924  1.00  0.00     0.042 A 
ATOM     28  F   UNL     1     -16.532 -41.175  21.857  1.00  0.00    -0.206 F 
ATOM     29  F   UNL     1     -16.003 -43.291  26.849  1.00  0.00    -0.207 F 
ENDBRANCH  10  22
ENDBRANCH   1   7
BRANCH   4  30
ATOM     30  S   UNL     1     -24.343 -46.186  19.042  1.00  0.00     0.238 S 
ATOM     31  O   UNL     1     -24.850 -47.198  19.941  1.00  0.00    -0.207 OA
ATOM     32  O   UNL     1     -25.206 -45.383  18.209  1.00  0.00    -0.207 OA
BRANCH  30  33
ATOM     33  N   UNL     1     -23.247 -46.985  18.041  1.00  0.00    -0.225 NA
ATOM     34  H   UNL     1     -22.407 -47.198  18.580  1.00  0.00     0.137 HD
ATOM     35  H   UNL     1     -23.033 -46.467  17.190  1.00  0.00     0.137 HD
ENDBRANCH  30  33
ENDBRANCH   4  30
TORSDOF 7
ENDMDL
MODEL 7
REMARK VINA RESULT:    -8.461      4.590      7.428
REMARK INTER + INTRA:         -12.808
REMARK INTER:                 -11.498
REMARK INTRA:                  -1.310
REMARK UNBOUND:                -1.132
REMARK SMILES COc1cccc([C@@H]2CC(c3cc(F)ccc3F)=NN2c2ccc(S(N)(=O)=O)cc2)c1OC
REMARK SMILES IDX 21 1 22 2 23 3 24 4 29 5 30 6 20 7 8 8 9 9 10 10 19 11 7 12
REMARK SMILES IDX 3 13 4 14 31 15 5 16 6 17 2 18 1 19 32 20 33 21 11 22 12 23
REMARK SMILES IDX 17 24 13 25 16 26 15 27 18 28 14 29 25 30 27 31 28 32 26 33
REMARK H PARENT 26 34 26 35
ROOT
ATOM      1  C   UNL     1     -21.524 -40.960  25.496  1.00  0.00     0.060 A 
ATOM      2  C   UNL     1     -21.710 -40.840  26.885  1.00  0.00     0.029 A 
ATOM      3  C   UNL     1     -22.765 -40.097  27.426  1.00  0.00     0.024 A 
ATOM      4  C   UNL     1     -23.664 -39.460  26.573  1.00  0.00     0.082 A 
ATOM      5  C   UNL     1     -23.505 -39.542  25.193  1.00  0.00     0.024 A 
ATOM      6  C   UNL     1     -22.446 -40.291  24.669  1.00  0.00     0.029 A 
ENDROOT
BRANCH   1   7
ATOM      7  N   UNL     1     -20.477 -41.696  24.944  1.00  0.00    -0.257 N 
ATOM      8  C   UNL     1     -20.549 -42.520  23.731  1.00  0.00     0.148 C 
ATOM      9  C   UNL     1     -19.075 -42.765  23.406  1.00  0.00     0.091 C 
ATOM     10  C   UNL     1     -18.432 -42.285  24.679  1.00  0.00     0.074 C 
ATOM     11  N   UNL     1     -19.230 -41.667  25.498  1.00  0.00    -0.176 NA
BRANCH   8  12
ATOM     12  C   UNL     1     -21.287 -43.838  23.927  1.00  0.00     0.023 A 
ATOM     13  C   UNL     1     -22.869 -45.518  23.085  1.00  0.00     0.161 A 
ATOM     14  C   UNL     1     -22.612 -46.305  24.211  1.00  0.00     0.050 A 
ATOM     15  C   UNL     1     -22.222 -44.270  22.963  1.00  0.00     0.166 A 
ATOM     16  C   UNL     1     -21.704 -45.880  25.180  1.00  0.00     0.004 A 
ATOM     17  C   UNL     1     -21.038 -44.666  25.035  1.00  0.00     0.010 A 
BRANCH  13  18
ATOM     18  O   UNL     1     -23.707 -45.886  22.065  1.00  0.00    -0.493 OA
ATOM     19  C   UNL     1     -23.478 -47.145  21.444  1.00  0.00     0.278 C 
ENDBRANCH  13  18
BRANCH  15  20
ATOM     20  O   UNL     1     -22.391 -43.443  21.875  1.00  0.00    -0.492 OA
ATOM     21  C   UNL     1     -21.631 -43.844  20.735  1.00  0.00     0.278 C 
ENDBRANCH  15  20
ENDBRANCH   8  12
BRANCH  10  22
ATOM     22  C   UNL     1     -16.994 -42.476  24.964  1.00  0.00     0.037 A 
ATOM     23  C   UNL     1     -16.619 -42.997  26.210  1.00  0.00     0.052 A 
ATOM     24  C   UNL     1     -16.000 -42.154  24.036  1.00  0.00     0.132 A 
ATOM     25  C   UNL     1     -15.273 -43.188  26.501  1.00  0.00     0.124 A 
ATOM     26  C   UNL     1     -14.651 -42.349  24.336  1.00  0.00     0.043 A 
ATOM     27  C   UNL     1     -14.284 -42.871  25.575  1.00  0.00     0.042 A 
ATOM     28  F   UNL     1     -16.304 -41.637  22.839  1.00  0.00    -0.206 F 
ATOM     29  F   UNL     1     -14.920 -43.688  27.692  1.00  0.00    -0.207 F 
ENDBRANCH  10  22
ENDBRANCH   1   7
BRANCH   4  30
ATOM     30  S   UNL     1     -25.010 -38.521  27.238  1.00  0.00     0.238 S 
ATOM     31  O   UNL     1     -26.198 -38.801  26.464  1.00  0.00    -0.207 OA
ATOM     32  O   UNL     1     -24.977 -38.624  28.677  1.00  0.00    -0.207 OA
BRANCH  30  33
ATOM     33  N   UNL     1     -24.563 -36.951  26.817  1.00  0.00    -0.225 NA
ATOM     34  H   UNL     1     -23.744 -36.685  27.366  1.00  0.00     0.137 HD
ATOM     35  H   UNL     1     -25.323 -36.279  26.917  1.00  0.00     0.137 HD
ENDBRANCH  30  33
ENDBRANCH   4  30
TORSDOF 7
ENDMDL
MODEL 8
REMARK VINA RESULT:    -8.137      4.719      7.946
REMARK INTER + INTRA:         -12.360
REMARK INTER:                 -11.397
REMARK INTRA:                  -0.963
REMARK UNBOUND:                -1.132
REMARK SMILES COc1cccc([C@@H]2CC(c3cc(F)ccc3F)=NN2c2ccc(S(N)(=O)=O)cc2)c1OC
REMARK SMILES IDX 21 1 22 2 23 3 24 4 29 5 30 6 20 7 8 8 9 9 10 10 19 11 7 12
REMARK SMILES IDX 3 13 4 14 31 15 5 16 6 17 2 18 1 19 32 20 33 21 11 22 12 23
REMARK SMILES IDX 17 24 13 25 16 26 15 27 18 28 14 29 25 30 27 31 28 32 26 33
REMARK H PARENT 26 34 26 35
ROOT
ATOM      1  C   UNL     1     -21.680 -40.644  25.470  1.00  0.00     0.060 A 
ATOM      2  C   UNL     1     -21.856 -40.766  26.860  1.00  0.00     0.029 A 
ATOM      3  C   UNL     1     -23.011 -40.301  27.500  1.00  0.00     0.024 A 
ATOM      4  C   UNL     1     -24.020 -39.705  26.747  1.00  0.00     0.082 A 
ATOM      5  C   UNL     1     -23.875 -39.551  25.371  1.00  0.00     0.024 A 
ATOM      6  C   UNL     1     -22.716 -40.023  24.748  1.00  0.00     0.029 A 
ENDROOT
BRANCH   1   7
ATOM      7  N   UNL     1     -20.535 -41.102  24.821  1.00  0.00    -0.257 N 
ATOM      8  C   UNL     1     -20.225 -40.926  23.396  1.00  0.00     0.148 C 
ATOM      9  C   UNL     1     -18.737 -41.274  23.334  1.00  0.00     0.091 C 
ATOM     10  C   UNL     1     -18.542 -41.884  24.695  1.00  0.00     0.074 C 
ATOM     11  N   UNL     1     -19.546 -41.743  25.509  1.00  0.00    -0.176 NA
BRANCH   8  12
ATOM     12  C   UNL     1     -21.032 -41.833  22.476  1.00  0.00     0.023 A 
ATOM     13  C   UNL     1     -22.117 -42.211  20.305  1.00  0.00     0.161 A 
ATOM     14  C   UNL     1     -22.455 -43.505  20.714  1.00  0.00     0.050 A 
ATOM     15  C   UNL     1     -21.428 -41.370  21.204  1.00  0.00     0.166 A 
ATOM     16  C   UNL     1     -22.084 -43.968  21.976  1.00  0.00     0.004 A 
ATOM     17  C   UNL     1     -21.370 -43.146  22.844  1.00  0.00     0.010 A 
BRANCH  13  18
ATOM     18  O   UNL     1     -22.398 -41.700  19.065  1.00  0.00    -0.493 OA
ATOM     19  C   UNL     1     -23.714 -41.215  18.833  1.00  0.00     0.278 C 
ENDBRANCH  13  18
BRANCH  15  20
ATOM     20  O   UNL     1     -21.029 -40.093  20.876  1.00  0.00    -0.492 OA
ATOM     21  C   UNL     1     -19.866 -40.058  20.049  1.00  0.00     0.278 C 
ENDBRANCH  15  20
ENDBRANCH   8  12
BRANCH  10  22
ATOM     22  C   UNL     1     -17.291 -42.566  25.088  1.00  0.00     0.037 A 
ATOM     23  C   UNL     1     -16.503 -43.153  24.089  1.00  0.00     0.052 A 
ATOM     24  C   UNL     1     -16.870 -42.647  26.419  1.00  0.00     0.132 A 
ATOM     25  C   UNL     1     -15.320 -43.798  24.433  1.00  0.00     0.124 A 
ATOM     26  C   UNL     1     -15.682 -43.296  26.756  1.00  0.00     0.043 A 
ATOM     27  C   UNL     1     -14.900 -43.874  25.758  1.00  0.00     0.042 A 
ATOM     28  F   UNL     1     -17.596 -42.119  27.413  1.00  0.00    -0.206 F 
ATOM     29  F   UNL     1     -14.569 -44.355  23.475  1.00  0.00    -0.207 F 
ENDBRANCH  10  22
ENDBRANCH   1   7
BRANCH   4  30
ATOM     30  S   UNL     1     -25.492 -39.116  27.537  1.00  0.00     0.238 S 
ATOM     31  O   UNL     1     -25.691 -39.859  28.760  1.00  0.00    -0.207 OA
ATOM     32  O   UNL     1     -25.490 -37.673  27.495  1.00  0.00    -0.207 OA
BRANCH  30  33
ATOM     33  N   UNL     1     -26.683 -39.667  26.480  1.00  0.00    -0.225 NA
ATOM     34  H   UNL     1     -27.099 -38.863  26.007  1.00  0.00     0.137 HD
ATOM     35  H   UNL     1     -27.386 -40.246  26.938  1.00  0.00     0.137 HD
ENDBRANCH  30  33
ENDBRANCH   4  30
TORSDOF 7
ENDMDL
MODEL 9
REMARK VINA RESULT:    -8.131      3.686      6.089
REMARK INTER + INTRA:         -12.353
REMARK INTER:                 -11.046
REMARK INTRA:                  -1.307
REMARK UNBOUND:                -1.132
REMARK SMILES COc1cccc([C@@H]2CC(c3cc(F)ccc3F)=NN2c2ccc(S(N)(=O)=O)cc2)c1OC
REMARK SMILES IDX 21 1 22 2 23 3 24 4 29 5 30 6 20 7 8 8 9 9 10 10 19 11 7 12
REMARK SMILES IDX 3 13 4 14 31 15 5 16 6 17 2 18 1 19 32 20 33 21 11 22 12 23
REMARK SMILES IDX 17 24 13 25 16 26 15 27 18 28 14 29 25 30 27 31 28 32 26 33
REMARK H PARENT 26 34 26 35
ROOT
ATOM      1  C   UNL     1     -19.797 -41.879  24.918  1.00  0.00     0.060 A 
ATOM      2  C   UNL     1     -19.207 -41.824  23.643  1.00  0.00     0.029 A 
ATOM      3  C   UNL     1     -17.839 -42.056  23.453  1.00  0.00     0.024 A 
ATOM      4  C   UNL     1     -17.035 -42.354  24.551  1.00  0.00     0.082 A 
ATOM      5  C   UNL     1     -17.579 -42.401  25.831  1.00  0.00     0.024 A 
ATOM      6  C   UNL     1     -18.948 -42.170  26.003  1.00  0.00     0.029 A 
ENDROOT
BRANCH   1   7
ATOM      7  N   UNL     1     -21.157 -41.650  25.121  1.00  0.00    -0.257 N 
ATOM      8  C   UNL     1     -22.258 -42.447  24.563  1.00  0.00     0.148 C 
ATOM      9  C   UNL     1     -23.456 -41.989  25.396  1.00  0.00     0.091 C 
ATOM     10  C   UNL     1     -22.869 -40.783  26.078  1.00  0.00     0.074 C 
ATOM     11  N   UNL     1     -21.585 -40.640  25.934  1.00  0.00    -0.176 NA
BRANCH   8  12
ATOM     12  C   UNL     1     -22.502 -42.200  23.080  1.00  0.00     0.023 A 
ATOM     13  C   UNL     1     -22.944 -43.095  20.836  1.00  0.00     0.161 A 
ATOM     14  C   UNL     1     -23.038 -41.789  20.347  1.00  0.00     0.050 A 
ATOM     15  C   UNL     1     -22.649 -43.294  22.201  1.00  0.00     0.166 A 
ATOM     16  C   UNL     1     -22.877 -40.700  21.203  1.00  0.00     0.004 A 
ATOM     17  C   UNL     1     -22.625 -40.901  22.558  1.00  0.00     0.010 A 
BRANCH  13  18
ATOM     18  O   UNL     1     -23.140 -44.216  20.072  1.00  0.00    -0.493 OA
ATOM     19  C   UNL     1     -22.045 -44.686  19.297  1.00  0.00     0.278 C 
ENDBRANCH  13  18
BRANCH  15  20
ATOM     20  O   UNL     1     -22.568 -44.543  22.775  1.00  0.00    -0.492 OA
ATOM     21  C   UNL     1     -23.842 -45.111  23.078  1.00  0.00     0.278 C 
ENDBRANCH  15  20
ENDBRANCH   8  12
BRANCH  10  22
ATOM     22  C   UNL     1     -23.687 -39.846  26.877  1.00  0.00     0.037 A 
ATOM     23  C   UNL     1     -23.951 -40.159  28.217  1.00  0.00     0.052 A 
ATOM     24  C   UNL     1     -24.205 -38.664  26.342  1.00  0.00     0.132 A 
ATOM     25  C   UNL     1     -24.716 -39.292  28.990  1.00  0.00     0.124 A 
ATOM     26  C   UNL     1     -24.972 -37.799  27.124  1.00  0.00     0.043 A 
ATOM     27  C   UNL     1     -25.228 -38.113  28.457  1.00  0.00     0.042 A 
ATOM     28  F   UNL     1     -23.998 -38.328  25.062  1.00  0.00    -0.206 F 
ATOM     29  F   UNL     1     -24.963 -39.595  30.271  1.00  0.00    -0.207 F 
ENDBRANCH  10  22
ENDBRANCH   1   7
BRANCH   4  30
ATOM     30  S   UNL     1     -15.304 -42.657  24.332  1.00  0.00     0.238 S 
ATOM     31  O   UNL     1     -14.630 -42.426  25.589  1.00  0.00    -0.207 OA
ATOM     32  O   UNL     1     -15.142 -43.875  23.575  1.00  0.00    -0.207 OA
BRANCH  30  33
ATOM     33  N   UNL     1     -14.861 -41.365  23.343  1.00  0.00    -0.225 NA
ATOM     34  H   UNL     1     -14.745 -40.533  23.924  1.00  0.00     0.137 HD
ATOM     35  H   UNL     1     -15.514 -41.207  22.577  1.00  0.00     0.137 HD
ENDBRANCH  30  33
ENDBRANCH   4  30
TORSDOF 7
ENDMDL
