MODEL 1
REMARK VINA RESULT:    -8.925      0.000      0.000
REMARK INTER + INTRA:         -11.013
REMARK INTER:                 -10.751
REMARK INTRA:                  -0.262
REMARK UNBOUND:                -0.262
REMARK SMILES CN(C)S(=O)(=O)N[C@@H]1CCc2c(O)cccc2C1
REMARK SMILES IDX 7 1 4 3 5 4 6 5 2 6 1 7 3 8 8 9 9 10 18 11 10 12 17 13 11 14
REMARK SMILES IDX 16 15 12 16 15 17 14 18 13 19
REMARK H PARENT 7 2 13 20
ROOT
ATOM      1  N   UNL     1     -13.346 -43.520  27.230  1.00  0.00    -0.199 NA
ATOM      2  H   UNL     1     -12.555 -42.967  26.915  1.00  0.00     0.142 HD
ENDROOT
BRANCH   1   3
ATOM      3  S   UNL     1     -12.979 -44.718  28.319  1.00  0.00     0.279 S 
ATOM      4  O   UNL     1     -13.863 -44.556  29.447  1.00  0.00    -0.195 OA
ATOM      5  O   UNL     1     -12.868 -45.960  27.596  1.00  0.00    -0.195 OA
BRANCH   3   6
ATOM      6  N   UNL     1     -11.433 -44.213  28.788  1.00  0.00    -0.195 NA
ATOM      7  C   UNL     1     -10.394 -45.265  28.777  1.00  0.00     0.125 C 
ATOM      8  C   UNL     1     -10.976 -42.998  28.076  1.00  0.00     0.125 C 
ENDBRANCH   3   6
ENDBRANCH   1   3
BRANCH   1   9
ATOM      9  C   UNL     1     -14.514 -43.681  26.348  1.00  0.00     0.075 C 
ATOM     10  C   UNL     1     -14.162 -43.186  24.949  1.00  0.00     0.025 C 
ATOM     11  C   UNL     1     -15.683 -42.864  26.905  1.00  0.00     0.056 C 
ATOM     12  C   UNL     1     -15.335 -43.406  23.999  1.00  0.00     0.041 C 
ATOM     13  C   UNL     1     -16.829 -42.716  25.930  1.00  0.00    -0.040 A 
ATOM     14  C   UNL     1     -16.666 -42.949  24.547  1.00  0.00    -0.003 A 
ATOM     15  C   UNL     1     -18.071 -42.284  26.425  1.00  0.00     0.004 A 
ATOM     16  C   UNL     1     -17.782 -42.787  23.709  1.00  0.00     0.119 A 
ATOM     17  C   UNL     1     -19.155 -42.104  25.569  1.00  0.00     0.004 A 
ATOM     18  C   UNL     1     -19.010 -42.360  24.210  1.00  0.00     0.046 A 
BRANCH  16  19
ATOM     19  O   UNL     1     -17.747 -43.035  22.366  1.00  0.00    -0.508 OA
ATOM     20  H   UNL     1     -18.641 -43.234  22.050  1.00  0.00     0.293 HD
ENDBRANCH  16  19
ENDBRANCH   1   9
TORSDOF 4
ENDMDL
MODEL 2
REMARK VINA RESULT:    -8.488      2.610      7.377
REMARK INTER + INTRA:         -10.487
REMARK INTER:                 -10.276
REMARK INTRA:                  -0.210
REMARK UNBOUND:                -0.262
REMARK SMILES CN(C)S(=O)(=O)N[C@@H]1CCc2c(O)cccc2C1
REMARK SMILES IDX 7 1 4 3 5 4 6 5 2 6 1 7 3 8 8 9 9 10 18 11 10 12 17 13 11 14
REMARK SMILES IDX 16 15 12 16 15 17 14 18 13 19
REMARK H PARENT 7 2 13 20
ROOT
ATOM      1  N   UNL     1     -14.173 -44.820  27.040  1.00  0.00    -0.199 NA
ATOM      2  H   UNL     1     -14.472 -45.506  26.354  1.00  0.00     0.142 HD
ENDROOT
BRANCH   1   3
ATOM      3  S   UNL     1     -14.835 -43.309  26.858  1.00  0.00     0.279 S 
ATOM      4  O   UNL     1     -15.818 -43.144  27.900  1.00  0.00    -0.195 OA
ATOM      5  O   UNL     1     -13.759 -42.371  26.654  1.00  0.00    -0.195 OA
BRANCH   3   6
ATOM      6  N   UNL     1     -15.657 -43.532  25.394  1.00  0.00    -0.195 NA
ATOM      7  C   UNL     1     -16.852 -42.682  25.205  1.00  0.00     0.125 C 
ATOM      8  C   UNL     1     -14.766 -43.480  24.213  1.00  0.00     0.125 C 
ENDBRANCH   3   6
ENDBRANCH   1   3
BRANCH   1   9
ATOM      9  C   UNL     1     -12.852 -44.955  27.673  1.00  0.00     0.075 C 
ATOM     10  C   UNL     1     -12.372 -46.397  27.536  1.00  0.00     0.025 C 
ATOM     11  C   UNL     1     -12.962 -44.588  29.157  1.00  0.00     0.056 C 
ATOM     12  C   UNL     1     -10.972 -46.548  28.125  1.00  0.00     0.041 C 
ATOM     13  C   UNL     1     -11.744 -44.978  29.962  1.00  0.00    -0.040 A 
ATOM     14  C   UNL     1     -10.807 -45.923  29.489  1.00  0.00    -0.003 A 
ATOM     15  C   UNL     1     -11.582 -44.410  31.238  1.00  0.00     0.004 A 
ATOM     16  C   UNL     1      -9.704 -46.230  30.303  1.00  0.00     0.119 A 
ATOM     17  C   UNL     1     -10.493 -44.752  32.036  1.00  0.00     0.004 A 
ATOM     18  C   UNL     1      -9.551 -45.660  31.565  1.00  0.00     0.046 A 
BRANCH  16  19
ATOM     19  O   UNL     1      -8.714 -47.091  29.920  1.00  0.00    -0.508 OA
ATOM     20  H   UNL     1      -8.716 -47.865  30.503  1.00  0.00     0.293 HD
ENDBRANCH  16  19
ENDBRANCH   1   9
TORSDOF 4
ENDMDL
MODEL 3
REMARK VINA RESULT:    -8.342      2.573      8.079
REMARK INTER + INTRA:         -10.311
REMARK INTER:                 -10.311
REMARK INTRA:                   0.001
REMARK UNBOUND:                -0.262
REMARK SMILES CN(C)S(=O)(=O)N[C@@H]1CCc2c(O)cccc2C1
REMARK SMILES IDX 7 1 4 3 5 4 6 5 2 6 1 7 3 8 8 9 9 10 18 11 10 12 17 13 11 14
REMARK SMILES IDX 16 15 12 16 15 17 14 18 13 19
REMARK H PARENT 7 2 13 20
ROOT
ATOM      1  N   UNL     1     -12.460 -43.527  27.350  1.00  0.00    -0.199 NA
ATOM      2  H   UNL     1     -12.581 -42.679  26.803  1.00  0.00     0.142 HD
ENDROOT
BRANCH   1   3
ATOM      3  S   UNL     1     -13.788 -44.520  27.411  1.00  0.00     0.279 S 
ATOM      4  O   UNL     1     -13.395 -45.795  26.864  1.00  0.00    -0.195 OA
ATOM      5  O   UNL     1     -14.383 -44.390  28.718  1.00  0.00    -0.195 OA
BRANCH   3   6
ATOM      6  N   UNL     1     -14.777 -43.745  26.276  1.00  0.00    -0.195 NA
ATOM      7  C   UNL     1     -15.791 -42.829  26.842  1.00  0.00     0.125 C 
ATOM      8  C   UNL     1     -14.013 -43.095  25.186  1.00  0.00     0.125 C 
ENDBRANCH   3   6
ENDBRANCH   1   3
BRANCH   1   9
ATOM      9  C   UNL     1     -11.498 -43.540  28.464  1.00  0.00     0.075 C 
ATOM     10  C   UNL     1     -10.287 -42.689  28.095  1.00  0.00     0.025 C 
ATOM     11  C   UNL     1     -11.054 -44.981  28.731  1.00  0.00     0.056 C 
ATOM     12  C   UNL     1      -9.306 -42.631  29.262  1.00  0.00     0.041 C 
ATOM     13  C   UNL     1      -9.853 -45.078  29.645  1.00  0.00    -0.040 A 
ATOM     14  C   UNL     1      -9.007 -43.974  29.884  1.00  0.00    -0.003 A 
ATOM     15  C   UNL     1      -9.559 -46.325  30.223  1.00  0.00     0.004 A 
ATOM     16  C   UNL     1      -7.911 -44.151  30.745  1.00  0.00     0.119 A 
ATOM     17  C   UNL     1      -8.450 -46.480  31.052  1.00  0.00     0.004 A 
ATOM     18  C   UNL     1      -7.628 -45.390  31.315  1.00  0.00     0.046 A 
BRANCH  16  19
ATOM     19  O   UNL     1      -7.060 -43.137  31.084  1.00  0.00    -0.508 OA
ATOM     20  H   UNL     1      -6.828 -43.209  32.022  1.00  0.00     0.293 HD
ENDBRANCH  16  19
ENDBRANCH   1   9
TORSDOF 4
ENDMDL
MODEL 4
REMARK VINA RESULT:    -7.958      4.776      7.836
REMARK INTER + INTRA:          -9.848
REMARK INTER:                  -9.632
REMARK INTRA:                  -0.216
REMARK UNBOUND:                -0.262
REMARK SMILES CN(C)S(=O)(=O)N[C@@H]1CCc2c(O)cccc2C1
REMARK SMILES IDX 7 1 4 3 5 4 6 5 2 6 1 7 3 8 8 9 9 10 18 11 10 12 17 13 11 14
REMARK SMILES IDX 16 15 12 16 15 17 14 18 13 19
REMARK H PARENT 7 2 13 20
ROOT
ATOM      1  N   UNL     1     -19.060 -41.911  21.942  1.00  0.00    -0.199 NA
ATOM      2  H   UNL     1     -18.876 -42.663  21.284  1.00  0.00     0.142 HD
ENDROOT
BRANCH   1   3
ATOM      3  S   UNL     1     -19.779 -40.565  21.289  1.00  0.00     0.279 S 
ATOM      4  O   UNL     1     -20.003 -39.635  22.368  1.00  0.00    -0.195 OA
ATOM      5  O   UNL     1     -19.055 -40.206  20.096  1.00  0.00    -0.195 OA
BRANCH   3   6
ATOM      6  N   UNL     1     -21.274 -41.227  20.849  1.00  0.00    -0.195 NA
ATOM      7  C   UNL     1     -21.697 -40.961  19.457  1.00  0.00     0.125 C 
ATOM      8  C   UNL     1     -21.397 -42.663  21.184  1.00  0.00     0.125 C 
ENDBRANCH   3   6
ENDBRANCH   1   3
BRANCH   1   9
ATOM      9  C   UNL     1     -18.208 -41.767  23.133  1.00  0.00     0.075 C 
ATOM     10  C   UNL     1     -17.031 -42.733  23.032  1.00  0.00     0.025 C 
ATOM     11  C   UNL     1     -19.031 -42.087  24.385  1.00  0.00     0.056 C 
ATOM     12  C   UNL     1     -16.095 -42.553  24.224  1.00  0.00     0.041 C 
ATOM     13  C   UNL     1     -18.188 -42.262  25.627  1.00  0.00    -0.040 A 
ATOM     14  C   UNL     1     -16.799 -42.505  25.558  1.00  0.00    -0.003 A 
ATOM     15  C   UNL     1     -18.832 -42.227  26.876  1.00  0.00     0.004 A 
ATOM     16  C   UNL     1     -16.091 -42.658  26.762  1.00  0.00     0.119 A 
ATOM     17  C   UNL     1     -18.111 -42.409  28.053  1.00  0.00     0.004 A 
ATOM     18  C   UNL     1     -16.738 -42.621  27.995  1.00  0.00     0.046 A 
BRANCH  16  19
ATOM     19  O   UNL     1     -14.738 -42.847  26.811  1.00  0.00    -0.508 OA
ATOM     20  H   UNL     1     -14.289 -41.991  26.746  1.00  0.00     0.293 HD
ENDBRANCH  16  19
ENDBRANCH   1   9
TORSDOF 4
ENDMDL
MODEL 5
REMARK VINA RESULT:    -7.651      3.676      8.880
REMARK INTER + INTRA:          -9.478
REMARK INTER:                  -9.280
REMARK INTRA:                  -0.198
REMARK UNBOUND:                -0.262
REMARK SMILES CN(C)S(=O)(=O)N[C@@H]1CCc2c(O)cccc2C1
REMARK SMILES IDX 7 1 4 3 5 4 6 5 2 6 1 7 3 8 8 9 9 10 18 11 10 12 17 13 11 14
REMARK SMILES IDX 16 15 12 16 15 17 14 18 13 19
REMARK H PARENT 7 2 13 20
ROOT
ATOM      1  N   UNL     1     -12.161 -45.712  29.389  1.00  0.00    -0.199 NA
ATOM      2  H   UNL     1     -12.291 -46.676  29.097  1.00  0.00     0.142 HD
ENDROOT
BRANCH   1   3
ATOM      3  S   UNL     1     -13.189 -44.618  28.683  1.00  0.00     0.279 S 
ATOM      4  O   UNL     1     -14.329 -44.477  29.555  1.00  0.00    -0.195 OA
ATOM      5  O   UNL     1     -12.407 -43.488  28.245  1.00  0.00    -0.195 OA
BRANCH   3   6
ATOM      6  N   UNL     1     -13.672 -45.512  27.329  1.00  0.00    -0.195 NA
ATOM      7  C   UNL     1     -14.066 -44.711  26.150  1.00  0.00     0.125 C 
ATOM      8  C   UNL     1     -12.711 -46.576  26.961  1.00  0.00     0.125 C 
ENDBRANCH   3   6
ENDBRANCH   1   3
BRANCH   1   9
ATOM      9  C   UNL     1     -10.834 -45.265  29.842  1.00  0.00     0.075 C 
ATOM     10  C   UNL     1      -9.980 -46.483  30.182  1.00  0.00     0.025 C 
ATOM     11  C   UNL     1     -10.994 -44.385  31.085  1.00  0.00     0.056 C 
ATOM     12  C   UNL     1      -8.575 -46.048  30.589  1.00  0.00     0.041 C 
ATOM     13  C   UNL     1      -9.691 -44.121  31.804  1.00  0.00    -0.040 A 
ATOM     14  C   UNL     1      -8.546 -44.919  31.590  1.00  0.00    -0.003 A 
ATOM     15  C   UNL     1      -9.651 -43.077  32.745  1.00  0.00     0.004 A 
ATOM     16  C   UNL     1      -7.375 -44.606  32.301  1.00  0.00     0.119 A 
ATOM     17  C   UNL     1      -8.486 -42.805  33.456  1.00  0.00     0.004 A 
ATOM     18  C   UNL     1      -7.346 -43.569  33.231  1.00  0.00     0.046 A 
BRANCH  16  19
ATOM     19  O   UNL     1      -6.199 -45.281  32.133  1.00  0.00    -0.508 OA
ATOM     20  H   UNL     1      -6.386 -46.206  31.914  1.00  0.00     0.293 HD
ENDBRANCH  16  19
ENDBRANCH   1   9
TORSDOF 4
ENDMDL
MODEL 6
REMARK VINA RESULT:    -7.598      4.254      6.882
REMARK INTER + INTRA:          -9.414
REMARK INTER:                  -9.100
REMARK INTRA:                  -0.314
REMARK UNBOUND:                -0.262
REMARK SMILES CN(C)S(=O)(=O)N[C@@H]1CCc2c(O)cccc2C1
REMARK SMILES IDX 7 1 4 3 5 4 6 5 2 6 1 7 3 8 8 9 9 10 18 11 10 12 17 13 11 14
REMARK SMILES IDX 16 15 12 16 15 17 14 18 13 19
REMARK H PARENT 7 2 13 20
ROOT
ATOM      1  N   UNL     1     -20.350 -41.922  27.209  1.00  0.00    -0.199 NA
ATOM      2  H   UNL     1     -20.505 -41.276  27.978  1.00  0.00     0.142 HD
ENDROOT
BRANCH   1   3
ATOM      3  S   UNL     1     -21.703 -42.725  26.682  1.00  0.00     0.279 S 
ATOM      4  O   UNL     1     -22.763 -42.436  27.615  1.00  0.00    -0.195 OA
ATOM      5  O   UNL     1     -21.836 -42.494  25.265  1.00  0.00    -0.195 OA
BRANCH   3   6
ATOM      6  N   UNL     1     -21.203 -44.323  26.935  1.00  0.00    -0.195 NA
ATOM      7  C   UNL     1     -21.784 -44.986  28.122  1.00  0.00     0.125 C 
ATOM      8  C   UNL     1     -21.330 -45.171  25.728  1.00  0.00     0.125 C 
ENDBRANCH   3   6
ENDBRANCH   1   3
BRANCH   1   9
ATOM      9  C   UNL     1     -19.029 -42.550  27.045  1.00  0.00     0.075 C 
ATOM     10  C   UNL     1     -18.070 -41.987  28.090  1.00  0.00     0.025 C 
ATOM     11  C   UNL     1     -18.497 -42.248  25.641  1.00  0.00     0.056 C 
ATOM     12  C   UNL     1     -16.711 -42.673  27.985  1.00  0.00     0.041 C 
ATOM     13  C   UNL     1     -17.033 -42.586  25.470  1.00  0.00    -0.040 A 
ATOM     14  C   UNL     1     -16.175 -42.767  26.577  1.00  0.00    -0.003 A 
ATOM     15  C   UNL     1     -16.519 -42.668  24.164  1.00  0.00     0.004 A 
ATOM     16  C   UNL     1     -14.828 -43.077  26.329  1.00  0.00     0.119 A 
ATOM     17  C   UNL     1     -15.173 -42.950  23.946  1.00  0.00     0.004 A 
ATOM     18  C   UNL     1     -14.328 -43.158  25.031  1.00  0.00     0.046 A 
BRANCH  16  19
ATOM     19  O   UNL     1     -13.925 -43.322  27.325  1.00  0.00    -0.508 OA
ATOM     20  H   UNL     1     -13.105 -42.836  27.146  1.00  0.00     0.293 HD
ENDBRANCH  16  19
ENDBRANCH   1   9
TORSDOF 4
ENDMDL
MODEL 7
REMARK VINA RESULT:    -7.584      4.529      7.818
REMARK INTER + INTRA:          -9.397
REMARK INTER:                  -9.892
REMARK INTRA:                   0.495
REMARK UNBOUND:                -0.262
REMARK SMILES CN(C)S(=O)(=O)N[C@@H]1CCc2c(O)cccc2C1
REMARK SMILES IDX 7 1 4 3 5 4 6 5 2 6 1 7 3 8 8 9 9 10 18 11 10 12 17 13 11 14
REMARK SMILES IDX 16 15 12 16 15 17 14 18 13 19
REMARK H PARENT 7 2 13 20
ROOT
ATOM      1  N   UNL     1     -19.344 -42.151  22.082  1.00  0.00    -0.199 NA
ATOM      2  H   UNL     1     -19.534 -42.797  21.322  1.00  0.00     0.142 HD
ENDROOT
BRANCH   1   3
ATOM      3  S   UNL     1     -19.145 -40.567  21.627  1.00  0.00     0.279 S 
ATOM      4  O   UNL     1     -19.984 -39.767  22.484  1.00  0.00    -0.195 OA
ATOM      5  O   UNL     1     -17.732 -40.319  21.477  1.00  0.00    -0.195 OA
BRANCH   3   6
ATOM      6  N   UNL     1     -19.860 -40.619  20.093  1.00  0.00    -0.195 NA
ATOM      7  C   UNL     1     -20.964 -41.592  19.944  1.00  0.00     0.125 C 
ATOM      8  C   UNL     1     -20.247 -39.284  19.585  1.00  0.00     0.125 C 
ENDBRANCH   3   6
ENDBRANCH   1   3
BRANCH   1   9
ATOM      9  C   UNL     1     -18.675 -42.640  23.299  1.00  0.00     0.075 C 
ATOM     10  C   UNL     1     -18.955 -41.678  24.450  1.00  0.00     0.025 C 
ATOM     11  C   UNL     1     -17.166 -42.718  23.049  1.00  0.00     0.056 C 
ATOM     12  C   UNL     1     -18.329 -42.199  25.740  1.00  0.00     0.041 C 
ATOM     13  C   UNL     1     -16.359 -42.918  24.312  1.00  0.00    -0.040 A 
ATOM     14  C   UNL     1     -16.897 -42.653  25.590  1.00  0.00    -0.003 A 
ATOM     15  C   UNL     1     -15.022 -43.332  24.187  1.00  0.00     0.004 A 
ATOM     16  C   UNL     1     -16.078 -42.863  26.712  1.00  0.00     0.119 A 
ATOM     17  C   UNL     1     -14.223 -43.507  25.313  1.00  0.00     0.004 A 
ATOM     18  C   UNL     1     -14.754 -43.275  26.578  1.00  0.00     0.046 A 
BRANCH  16  19
ATOM     19  O   UNL     1     -16.513 -42.686  27.995  1.00  0.00    -0.508 OA
ATOM     20  H   UNL     1     -17.380 -42.253  27.986  1.00  0.00     0.293 HD
ENDBRANCH  16  19
ENDBRANCH   1   9
TORSDOF 4
ENDMDL
MODEL 8
REMARK VINA RESULT:    -7.573      4.241      6.146
REMARK INTER + INTRA:          -9.384
REMARK INTER:                  -9.122
REMARK INTRA:                  -0.262
REMARK UNBOUND:                -0.262
REMARK SMILES CN(C)S(=O)(=O)N[C@@H]1CCc2c(O)cccc2C1
REMARK SMILES IDX 7 1 4 3 5 4 6 5 2 6 1 7 3 8 8 9 9 10 18 11 10 12 17 13 11 14
REMARK SMILES IDX 16 15 12 16 15 17 14 18 13 19
REMARK H PARENT 7 2 13 20
ROOT
ATOM      1  N   UNL     1      -9.265 -44.762  30.956  1.00  0.00    -0.199 NA
ATOM      2  H   UNL     1      -9.771 -44.871  31.830  1.00  0.00     0.142 HD
ENDROOT
BRANCH   1   3
ATOM      3  S   UNL     1      -7.702 -44.225  31.110  1.00  0.00     0.279 S 
ATOM      4  O   UNL     1      -6.918 -45.330  31.605  1.00  0.00    -0.195 OA
ATOM      5  O   UNL     1      -7.356 -43.508  29.908  1.00  0.00    -0.195 OA
BRANCH   3   6
ATOM      6  N   UNL     1      -7.904 -43.118  32.375  1.00  0.00    -0.195 NA
ATOM      7  C   UNL     1      -9.199 -43.199  33.085  1.00  0.00     0.125 C 
ATOM      8  C   UNL     1      -6.769 -43.106  33.325  1.00  0.00     0.125 C 
ENDBRANCH   3   6
ENDBRANCH   1   3
BRANCH   1   9
ATOM      9  C   UNL     1     -10.008 -44.470  29.720  1.00  0.00     0.075 C 
ATOM     10  C   UNL     1     -10.971 -43.313  29.971  1.00  0.00     0.025 C 
ATOM     11  C   UNL     1     -10.797 -45.714  29.298  1.00  0.00     0.056 C 
ATOM     12  C   UNL     1     -11.705 -42.946  28.684  1.00  0.00     0.041 C 
ATOM     13  C   UNL     1     -11.821 -45.438  28.221  1.00  0.00    -0.040 A 
ATOM     14  C   UNL     1     -12.273 -44.130  27.940  1.00  0.00    -0.003 A 
ATOM     15  C   UNL     1     -12.365 -46.532  27.526  1.00  0.00     0.004 A 
ATOM     16  C   UNL     1     -13.229 -43.962  26.924  1.00  0.00     0.119 A 
ATOM     17  C   UNL     1     -13.331 -46.340  26.542  1.00  0.00     0.004 A 
ATOM     18  C   UNL     1     -13.760 -45.052  26.239  1.00  0.00     0.046 A 
BRANCH  16  19
ATOM     19  O   UNL     1     -13.696 -42.737  26.537  1.00  0.00    -0.508 OA
ATOM     20  H   UNL     1     -13.910 -42.210  27.321  1.00  0.00     0.293 HD
ENDBRANCH  16  19
ENDBRANCH   1   9
TORSDOF 4
ENDMDL
MODEL 9
REMARK VINA RESULT:    -7.527      4.137      8.942
REMARK INTER + INTRA:          -9.329
REMARK INTER:                  -9.028
REMARK INTRA:                  -0.300
REMARK UNBOUND:                -0.262
REMARK SMILES CN(C)S(=O)(=O)N[C@@H]1CCc2c(O)cccc2C1
REMARK SMILES IDX 7 1 4 3 5 4 6 5 2 6 1 7 3 8 8 9 9 10 18 11 10 12 17 13 11 14
REMARK SMILES IDX 16 15 12 16 15 17 14 18 13 19
REMARK H PARENT 7 2 13 20
ROOT
ATOM      1  N   UNL     1     -12.377 -44.189  29.632  1.00  0.00    -0.199 NA
ATOM      2  H   UNL     1     -12.297 -43.425  28.968  1.00  0.00     0.142 HD
ENDROOT
BRANCH   1   3
ATOM      3  S   UNL     1     -13.720 -45.146  29.447  1.00  0.00     0.279 S 
ATOM      4  O   UNL     1     -13.619 -46.217  30.406  1.00  0.00    -0.195 OA
ATOM      5  O   UNL     1     -14.875 -44.285  29.369  1.00  0.00    -0.195 OA
BRANCH   3   6
ATOM      6  N   UNL     1     -13.405 -45.785  27.911  1.00  0.00    -0.195 NA
ATOM      7  C   UNL     1     -13.779 -44.915  26.775  1.00  0.00     0.125 C 
ATOM      8  C   UNL     1     -12.024 -46.297  27.766  1.00  0.00     0.125 C 
ENDBRANCH   3   6
ENDBRANCH   1   3
BRANCH   1   9
ATOM      9  C   UNL     1     -11.765 -44.057  30.964  1.00  0.00     0.075 C 
ATOM     10  C   UNL     1     -12.382 -42.864  31.687  1.00  0.00     0.025 C 
ATOM     11  C   UNL     1     -10.256 -43.842  30.808  1.00  0.00     0.056 C 
ATOM     12  C   UNL     1     -11.812 -42.747  33.098  1.00  0.00     0.041 C 
ATOM     13  C   UNL     1      -9.579 -43.398  32.084  1.00  0.00    -0.040 A 
ATOM     14  C   UNL     1     -10.308 -42.857  33.166  1.00  0.00    -0.003 A 
ATOM     15  C   UNL     1      -8.178 -43.487  32.159  1.00  0.00     0.004 A 
ATOM     16  C   UNL     1      -9.600 -42.467  34.316  1.00  0.00     0.119 A 
ATOM     17  C   UNL     1      -7.498 -43.068  33.299  1.00  0.00     0.004 A 
ATOM     18  C   UNL     1      -8.212 -42.561  34.380  1.00  0.00     0.046 A 
BRANCH  16  19
ATOM     19  O   UNL     1     -10.211 -41.980  35.437  1.00  0.00    -0.508 OA
ATOM     20  H   UNL     1      -9.730 -42.278  36.223  1.00  0.00     0.293 HD
ENDBRANCH  16  19
ENDBRANCH   1   9
TORSDOF 4
ENDMDL
