MODEL 1
REMARK VINA RESULT:   -12.461      0.000      0.000
REMARK INTER + INTRA:         -17.159
REMARK INTER:                 -16.467
REMARK INTRA:                  -0.692
REMARK UNBOUND:                -0.692
REMARK SMILES O=C1C(NCCN=c2c3c([nH]c4cc(Cl)ccc24)CCCC3)=CC(=O)c2c(O)cccc21
REMARK SMILES IDX 5 1 6 2 7 3 8 4 11 5 10 6 12 7 9 8 19 9 13 10 18 11 22 12
REMARK SMILES IDX 20 13 14 14 17 15 21 16 16 17 15 19 4 20 3 22 23 23 2 24
REMARK SMILES IDX 24 25 32 26 26 27 31 28 27 29 30 30 29 31 1 32 25 33 28 34
REMARK H PARENT 11 18 4 21 28 35
ROOT
ATOM      1  C   UNL     1     -12.919 -44.794  28.142  1.00  0.00     0.136 C 
ENDROOT
BRANCH   1   2
ATOM      2  C   UNL     1     -13.763 -45.398  29.273  1.00  0.00     0.164 C 
BRANCH   2   3
ATOM      3  N   UNL     1     -12.924 -45.849  30.367  1.00  0.00    -0.282 NA
BRANCH   3   4
ATOM      4  C   UNL     1     -12.378 -45.126  31.276  1.00  0.00     0.072 A 
ATOM      5  N   UNL     1     -10.779 -43.197  32.594  1.00  0.00    -0.358 N 
ATOM      6  C   UNL     1     -12.151 -43.168  32.750  1.00  0.00     0.021 A 
ATOM      7  C   UNL     1     -10.145 -44.345  32.104  1.00  0.00     0.049 A 
ATOM      8  C   UNL     1     -12.986 -44.068  32.181  1.00  0.00    -0.003 A 
ATOM      9  C   UNL     1     -12.664 -42.058  33.651  1.00  0.00     0.054 C 
ATOM     10  C   UNL     1      -8.755 -44.483  32.186  1.00  0.00     0.047 A 
ATOM     11  C   UNL     1     -10.895 -45.332  31.450  1.00  0.00     0.024 A 
ATOM     12  C   UNL     1     -14.457 -44.095  32.494  1.00  0.00     0.039 C 
ATOM     13  C   UNL     1     -14.180 -41.890  33.643  1.00  0.00     0.007 C 
ATOM     14  C   UNL     1      -8.132 -45.617  31.660  1.00  0.00     0.043 A 
ATOM     15  C   UNL     1     -10.262 -46.465  30.918  1.00  0.00     0.014 A 
ATOM     16  C   UNL     1     -14.858 -43.248  33.704  1.00  0.00     0.005 C 
ATOM     17  C   UNL     1      -8.879 -46.611  31.031  1.00  0.00     0.021 A 
ATOM     18  H   UNL     1     -10.240 -42.620  33.231  1.00  0.00     0.166 HD
ATOM     19  Cl  UNL     1      -6.424 -45.783  31.784  1.00  0.00    -0.084 Cl
ENDBRANCH   3   4
ENDBRANCH   2   3
ENDBRANCH   1   2
BRANCH   1  20
ATOM     20  N   UNL     1     -13.498 -43.535  27.687  1.00  0.00    -0.380 N 
ATOM     21  H   UNL     1     -13.690 -42.867  28.445  1.00  0.00     0.160 HD
BRANCH  20  22
ATOM     22  C   UNL     1     -14.464 -43.407  26.692  1.00  0.00     0.087 C 
ATOM     23  C   UNL     1     -14.284 -43.648  25.389  1.00  0.00     0.082 C 
ATOM     24  C   UNL     1     -15.817 -42.947  27.171  1.00  0.00     0.209 C 
ATOM     25  C   UNL     1     -15.346 -43.475  24.385  1.00  0.00     0.192 C 
ATOM     26  C   UNL     1     -16.888 -42.741  26.179  1.00  0.00     0.039 A 
ATOM     27  C   UNL     1     -16.664 -42.998  24.828  1.00  0.00     0.075 A 
ATOM     28  C   UNL     1     -18.144 -42.287  26.608  1.00  0.00     0.013 A 
ATOM     29  C   UNL     1     -17.701 -42.800  23.907  1.00  0.00     0.127 A 
ATOM     30  C   UNL     1     -19.171 -42.092  25.685  1.00  0.00     0.005 A 
ATOM     31  C   UNL     1     -18.949 -42.349  24.332  1.00  0.00     0.047 A 
ATOM     32  O   UNL     1     -16.018 -42.760  28.369  1.00  0.00    -0.287 OA
ATOM     33  O   UNL     1     -15.135 -43.717  23.200  1.00  0.00    -0.289 OA
BRANCH  29  34
ATOM     34  O   UNL     1     -17.565 -43.031  22.564  1.00  0.00    -0.507 OA
ATOM     35  H   UNL     1     -18.443 -42.917  22.137  1.00  0.00     0.293 HD
ENDBRANCH  29  34
ENDBRANCH  20  22
ENDBRANCH   1  20
TORSDOF 6
ENDMDL
MODEL 2
REMARK VINA RESULT:   -11.921      2.097      3.836
REMARK INTER + INTRA:         -16.445
REMARK INTER:                 -15.913
REMARK INTRA:                  -0.533
REMARK UNBOUND:                -0.692
REMARK SMILES O=C1C(NCCN=c2c3c([nH]c4cc(Cl)ccc24)CCCC3)=CC(=O)c2c(O)cccc21
REMARK SMILES IDX 5 1 6 2 7 3 8 4 11 5 10 6 12 7 9 8 19 9 13 10 18 11 22 12
REMARK SMILES IDX 20 13 14 14 17 15 21 16 16 17 15 19 4 20 3 22 23 23 2 24
REMARK SMILES IDX 24 25 32 26 26 27 31 28 27 29 30 30 29 31 1 32 25 33 28 34
REMARK H PARENT 11 18 4 21 28 35
ROOT
ATOM      1  C   UNL     1     -12.417 -44.267  28.210  1.00  0.00     0.136 C 
ENDROOT
BRANCH   1   2
ATOM      2  C   UNL     1     -12.013 -45.469  29.074  1.00  0.00     0.164 C 
BRANCH   2   3
ATOM      3  N   UNL     1     -12.256 -45.207  30.480  1.00  0.00    -0.282 NA
BRANCH   3   4
ATOM      4  C   UNL     1     -11.650 -44.357  31.227  1.00  0.00     0.072 A 
ATOM      5  N   UNL     1     -10.655 -42.977  33.490  1.00  0.00    -0.358 N 
ATOM      6  C   UNL     1      -9.772 -43.465  32.545  1.00  0.00     0.021 A 
ATOM      7  C   UNL     1     -12.014 -42.835  33.184  1.00  0.00     0.049 A 
ATOM      8  C   UNL     1     -10.164 -44.109  31.421  1.00  0.00    -0.003 A 
ATOM      9  C   UNL     1      -8.309 -43.190  32.842  1.00  0.00     0.054 C 
ATOM     10  C   UNL     1     -12.863 -42.107  34.026  1.00  0.00     0.047 A 
ATOM     11  C   UNL     1     -12.552 -43.493  32.070  1.00  0.00     0.024 A 
ATOM     12  C   UNL     1      -9.186 -44.492  30.344  1.00  0.00     0.039 C 
ATOM     13  C   UNL     1      -7.332 -43.917  31.923  1.00  0.00     0.007 C 
ATOM     14  C   UNL     1     -14.223 -42.004  33.729  1.00  0.00     0.043 A 
ATOM     15  C   UNL     1     -13.921 -43.390  31.781  1.00  0.00     0.014 A 
ATOM     16  C   UNL     1      -7.809 -43.838  30.484  1.00  0.00     0.005 C 
ATOM     17  C   UNL     1     -14.755 -42.638  32.608  1.00  0.00     0.021 A 
ATOM     18  H   UNL     1     -10.274 -42.328  34.170  1.00  0.00     0.166 HD
ATOM     19  Cl  UNL     1     -15.253 -41.092  34.763  1.00  0.00    -0.084 Cl
ENDBRANCH   3   4
ENDBRANCH   2   3
ENDBRANCH   1   2
BRANCH   1  20
ATOM     20  N   UNL     1     -13.866 -44.093  28.219  1.00  0.00    -0.380 N 
ATOM     21  H   UNL     1     -14.361 -44.762  28.822  1.00  0.00     0.160 HD
BRANCH  20  22
ATOM     22  C   UNL     1     -14.647 -43.795  27.105  1.00  0.00     0.087 C 
ATOM     23  C   UNL     1     -14.305 -44.004  25.829  1.00  0.00     0.082 C 
ATOM     24  C   UNL     1     -15.987 -43.179  27.412  1.00  0.00     0.209 C 
ATOM     25  C   UNL     1     -15.173 -43.647  24.696  1.00  0.00     0.192 C 
ATOM     26  C   UNL     1     -16.862 -42.790  26.291  1.00  0.00     0.039 A 
ATOM     27  C   UNL     1     -16.472 -43.018  24.973  1.00  0.00     0.075 A 
ATOM     28  C   UNL     1     -18.101 -42.191  26.563  1.00  0.00     0.013 A 
ATOM     29  C   UNL     1     -17.325 -42.644  23.927  1.00  0.00     0.127 A 
ATOM     30  C   UNL     1     -18.945 -41.821  25.516  1.00  0.00     0.005 A 
ATOM     31  C   UNL     1     -18.556 -42.048  24.196  1.00  0.00     0.047 A 
ATOM     32  O   UNL     1     -16.341 -43.018  28.578  1.00  0.00    -0.287 OA
ATOM     33  O   UNL     1     -14.818 -43.865  23.541  1.00  0.00    -0.289 OA
BRANCH  29  34
ATOM     34  O   UNL     1     -17.019 -42.834  22.606  1.00  0.00    -0.507 OA
ATOM     35  H   UNL     1     -17.728 -42.426  22.059  1.00  0.00     0.293 HD
ENDBRANCH  29  34
ENDBRANCH  20  22
ENDBRANCH   1  20
TORSDOF 6
ENDMDL
MODEL 3
REMARK VINA RESULT:   -11.480      0.927      1.976
REMARK INTER + INTRA:         -15.863
REMARK INTER:                 -15.562
REMARK INTRA:                  -0.300
REMARK UNBOUND:                -0.692
REMARK SMILES O=C1C(NCCN=c2c3c([nH]c4cc(Cl)ccc24)CCCC3)=CC(=O)c2c(O)cccc21
REMARK SMILES IDX 5 1 6 2 7 3 8 4 11 5 10 6 12 7 9 8 19 9 13 10 18 11 22 12
REMARK SMILES IDX 20 13 14 14 17 15 21 16 16 17 15 19 4 20 3 22 23 23 2 24
REMARK SMILES IDX 24 25 32 26 26 27 31 28 27 29 30 30 29 31 1 32 25 33 28 34
REMARK H PARENT 11 18 4 21 28 35
ROOT
ATOM      1  C   UNL     1     -12.739 -44.376  28.252  1.00  0.00     0.136 C 
ENDROOT
BRANCH   1   2
ATOM      2  C   UNL     1     -13.608 -45.297  29.119  1.00  0.00     0.164 C 
BRANCH   2   3
ATOM      3  N   UNL     1     -12.871 -45.777  30.272  1.00  0.00    -0.282 NA
BRANCH   3   4
ATOM      4  C   UNL     1     -12.343 -45.071  31.205  1.00  0.00     0.072 A 
ATOM      5  N   UNL     1     -10.768 -43.168  32.589  1.00  0.00    -0.358 N 
ATOM      6  C   UNL     1     -12.144 -43.139  32.717  1.00  0.00     0.021 A 
ATOM      7  C   UNL     1     -10.126 -44.310  32.093  1.00  0.00     0.049 A 
ATOM      8  C   UNL     1     -12.968 -44.027  32.115  1.00  0.00    -0.003 A 
ATOM      9  C   UNL     1     -12.674 -42.044  33.625  1.00  0.00     0.054 C 
ATOM     10  C   UNL     1      -8.739 -44.452  32.202  1.00  0.00     0.047 A 
ATOM     11  C   UNL     1     -10.865 -45.283  31.407  1.00  0.00     0.024 A 
ATOM     12  C   UNL     1     -14.446 -44.056  32.396  1.00  0.00     0.039 C 
ATOM     13  C   UNL     1     -14.188 -41.872  33.588  1.00  0.00     0.007 C 
ATOM     14  C   UNL     1      -8.107 -45.579  31.670  1.00  0.00     0.043 A 
ATOM     15  C   UNL     1     -10.222 -46.409  30.869  1.00  0.00     0.014 A 
ATOM     16  C   UNL     1     -14.870 -43.229  33.611  1.00  0.00     0.005 C 
ATOM     17  C   UNL     1      -8.842 -46.559  31.009  1.00  0.00     0.021 A 
ATOM     18  H   UNL     1     -10.242 -42.604  33.248  1.00  0.00     0.166 HD
ATOM     19  Cl  UNL     1      -6.402 -45.751  31.827  1.00  0.00    -0.084 Cl
ENDBRANCH   3   4
ENDBRANCH   2   3
ENDBRANCH   1   2
BRANCH   1  20
ATOM     20  N   UNL     1     -13.341 -44.193  26.936  1.00  0.00    -0.380 N 
ATOM     21  H   UNL     1     -12.680 -43.875  26.216  1.00  0.00     0.160 HD
BRANCH  20  22
ATOM     22  C   UNL     1     -14.599 -43.644  26.696  1.00  0.00     0.087 C 
ATOM     23  C   UNL     1     -15.473 -43.250  27.628  1.00  0.00     0.082 C 
ATOM     24  C   UNL     1     -14.968 -43.506  25.242  1.00  0.00     0.209 C 
ATOM     25  C   UNL     1     -16.796 -42.694  27.305  1.00  0.00     0.192 C 
ATOM     26  C   UNL     1     -16.299 -42.975  24.896  1.00  0.00     0.039 A 
ATOM     27  C   UNL     1     -17.187 -42.578  25.893  1.00  0.00     0.075 A 
ATOM     28  C   UNL     1     -16.666 -42.866  23.545  1.00  0.00     0.013 A 
ATOM     29  C   UNL     1     -18.443 -42.071  25.536  1.00  0.00     0.127 A 
ATOM     30  C   UNL     1     -17.918 -42.361  23.199  1.00  0.00     0.005 A 
ATOM     31  C   UNL     1     -18.808 -41.963  24.196  1.00  0.00     0.047 A 
ATOM     32  O   UNL     1     -14.164 -43.821  24.367  1.00  0.00    -0.287 OA
ATOM     33  O   UNL     1     -17.562 -42.338  28.197  1.00  0.00    -0.289 OA
BRANCH  29  34
ATOM     34  O   UNL     1     -19.373 -41.658  26.453  1.00  0.00    -0.507 OA
ATOM     35  H   UNL     1     -19.219 -42.144  27.294  1.00  0.00     0.293 HD
ENDBRANCH  29  34
ENDBRANCH  20  22
ENDBRANCH   1  20
TORSDOF 6
ENDMDL
MODEL 4
REMARK VINA RESULT:   -11.129      5.329     10.959
REMARK INTER + INTRA:         -15.399
REMARK INTER:                 -14.900
REMARK INTRA:                  -0.499
REMARK UNBOUND:                -0.692
REMARK SMILES O=C1C(NCCN=c2c3c([nH]c4cc(Cl)ccc24)CCCC3)=CC(=O)c2c(O)cccc21
REMARK SMILES IDX 5 1 6 2 7 3 8 4 11 5 10 6 12 7 9 8 19 9 13 10 18 11 22 12
REMARK SMILES IDX 20 13 14 14 17 15 21 16 16 17 15 19 4 20 3 22 23 23 2 24
REMARK SMILES IDX 24 25 32 26 26 27 31 28 27 29 30 30 29 31 1 32 25 33 28 34
REMARK H PARENT 11 18 4 21 28 35
ROOT
ATOM      1  C   UNL     1     -16.715 -43.016  23.700  1.00  0.00     0.136 C 
ENDROOT
BRANCH   1   2
ATOM      2  C   UNL     1     -17.266 -41.960  22.731  1.00  0.00     0.164 C 
BRANCH   2   3
ATOM      3  N   UNL     1     -18.700 -42.102  22.566  1.00  0.00    -0.282 NA
BRANCH   3   4
ATOM      4  C   UNL     1     -19.613 -41.308  22.993  1.00  0.00     0.072 A 
ATOM      5  N   UNL     1     -22.091 -39.986  23.354  1.00  0.00    -0.358 N 
ATOM      6  C   UNL     1     -21.485 -40.606  24.430  1.00  0.00     0.021 A 
ATOM      7  C   UNL     1     -21.355 -39.691  22.199  1.00  0.00     0.049 A 
ATOM      8  C   UNL     1     -20.289 -41.234  24.352  1.00  0.00    -0.003 A 
ATOM      9  C   UNL     1     -22.250 -40.501  25.737  1.00  0.00     0.054 C 
ATOM     10  C   UNL     1     -21.877 -38.840  21.219  1.00  0.00     0.047 A 
ATOM     11  C   UNL     1     -20.120 -40.314  21.980  1.00  0.00     0.024 A 
ATOM     12  C   UNL     1     -19.591 -41.767  25.574  1.00  0.00     0.039 C 
ATOM     13  C   UNL     1     -21.698 -41.369  26.862  1.00  0.00     0.007 C 
ATOM     14  C   UNL     1     -21.149 -38.583  20.055  1.00  0.00     0.043 A 
ATOM     15  C   UNL     1     -19.397 -40.057  20.805  1.00  0.00     0.014 A 
ATOM     16  C   UNL     1     -20.182 -41.279  26.898  1.00  0.00     0.005 C 
ATOM     17  C   UNL     1     -19.910 -39.183  19.846  1.00  0.00     0.021 A 
ATOM     18  H   UNL     1     -22.864 -39.366  23.568  1.00  0.00     0.166 HD
ATOM     19  Cl  UNL     1     -21.795 -37.520  18.866  1.00  0.00    -0.084 Cl
ENDBRANCH   3   4
ENDBRANCH   2   3
ENDBRANCH   1   2
BRANCH   1  20
ATOM     20  N   UNL     1     -15.955 -42.381  24.771  1.00  0.00    -0.380 N 
ATOM     21  H   UNL     1     -15.199 -41.770  24.439  1.00  0.00     0.160 HD
BRANCH  20  22
ATOM     22  C   UNL     1     -15.576 -42.997  25.962  1.00  0.00     0.087 C 
ATOM     23  C   UNL     1     -16.088 -42.747  27.171  1.00  0.00     0.082 C 
ATOM     24  C   UNL     1     -14.482 -44.025  25.828  1.00  0.00     0.209 C 
ATOM     25  C   UNL     1     -15.626 -43.422  28.395  1.00  0.00     0.192 C 
ATOM     26  C   UNL     1     -13.987 -44.695  27.044  1.00  0.00     0.039 A 
ATOM     27  C   UNL     1     -14.541 -44.407  28.289  1.00  0.00     0.075 A 
ATOM     28  C   UNL     1     -12.951 -45.635  26.936  1.00  0.00     0.013 A 
ATOM     29  C   UNL     1     -14.055 -45.063  29.428  1.00  0.00     0.127 A 
ATOM     30  C   UNL     1     -12.472 -46.283  28.075  1.00  0.00     0.005 A 
ATOM     31  C   UNL     1     -13.025 -45.996  29.322  1.00  0.00     0.047 A 
ATOM     32  O   UNL     1     -14.026 -44.302  24.721  1.00  0.00    -0.287 OA
ATOM     33  O   UNL     1     -16.133 -43.165  29.483  1.00  0.00    -0.289 OA
BRANCH  29  34
ATOM     34  O   UNL     1     -14.544 -44.840  30.687  1.00  0.00    -0.507 OA
ATOM     35  H   UNL     1     -14.153 -44.006  31.031  1.00  0.00     0.293 HD
ENDBRANCH  29  34
ENDBRANCH  20  22
ENDBRANCH   1  20
TORSDOF 6
ENDMDL
MODEL 5
REMARK VINA RESULT:   -11.084      4.607      9.549
REMARK INTER + INTRA:         -15.339
REMARK INTER:                 -15.461
REMARK INTRA:                   0.121
REMARK UNBOUND:                -0.692
REMARK SMILES O=C1C(NCCN=c2c3c([nH]c4cc(Cl)ccc24)CCCC3)=CC(=O)c2c(O)cccc21
REMARK SMILES IDX 5 1 6 2 7 3 8 4 11 5 10 6 12 7 9 8 19 9 13 10 18 11 22 12
REMARK SMILES IDX 20 13 14 14 17 15 21 16 16 17 15 19 4 20 3 22 23 23 2 24
REMARK SMILES IDX 24 25 32 26 26 27 31 28 27 29 30 30 29 31 1 32 25 33 28 34
REMARK H PARENT 11 18 4 21 28 35
ROOT
ATOM      1  C   UNL     1     -13.781 -42.671  26.282  1.00  0.00     0.136 C 
ENDROOT
BRANCH   1   2
ATOM      2  C   UNL     1     -14.081 -42.893  24.793  1.00  0.00     0.164 C 
BRANCH   2   3
ATOM      3  N   UNL     1     -15.445 -43.346  24.597  1.00  0.00    -0.282 NA
BRANCH   3   4
ATOM      4  C   UNL     1     -16.521 -42.739  24.945  1.00  0.00     0.072 A 
ATOM      5  N   UNL     1     -19.237 -41.966  25.161  1.00  0.00    -0.358 N 
ATOM      6  C   UNL     1     -18.545 -42.355  26.293  1.00  0.00     0.021 A 
ATOM      7  C   UNL     1     -18.546 -41.607  23.997  1.00  0.00     0.049 A 
ATOM      8  C   UNL     1     -17.240 -42.711  26.283  1.00  0.00    -0.003 A 
ATOM      9  C   UNL     1     -19.356 -42.320  27.575  1.00  0.00     0.054 C 
ATOM     10  C   UNL     1     -19.208 -40.968  22.943  1.00  0.00     0.047 A 
ATOM     11  C   UNL     1     -17.198 -41.961  23.847  1.00  0.00     0.024 A 
ATOM     12  C   UNL     1     -16.482 -42.984  27.555  1.00  0.00     0.039 C 
ATOM     13  C   UNL     1     -18.666 -42.958  28.776  1.00  0.00     0.007 C 
ATOM     14  C   UNL     1     -18.517 -40.648  21.773  1.00  0.00     0.043 A 
ATOM     15  C   UNL     1     -16.512 -41.642  22.665  1.00  0.00     0.014 A 
ATOM     16  C   UNL     1     -17.208 -42.537  28.826  1.00  0.00     0.005 C 
ATOM     17  C   UNL     1     -17.171 -40.978  21.631  1.00  0.00     0.021 A 
ATOM     18  H   UNL     1     -20.133 -41.515  25.313  1.00  0.00     0.166 HD
ATOM     19  Cl  UNL     1     -19.339 -39.846  20.491  1.00  0.00    -0.084 Cl
ENDBRANCH   3   4
ENDBRANCH   2   3
ENDBRANCH   1   2
BRANCH   1  20
ATOM     20  N   UNL     1     -13.121 -43.841  26.851  1.00  0.00    -0.380 N 
ATOM     21  H   UNL     1     -13.769 -44.583  27.143  1.00  0.00     0.160 HD
BRANCH  20  22
ATOM     22  C   UNL     1     -12.024 -43.808  27.709  1.00  0.00     0.087 C 
ATOM     23  C   UNL     1     -11.070 -42.872  27.726  1.00  0.00     0.082 C 
ATOM     24  C   UNL     1     -11.944 -44.953  28.686  1.00  0.00     0.209 C 
ATOM     25  C   UNL     1      -9.925 -42.907  28.650  1.00  0.00     0.192 C 
ATOM     26  C   UNL     1     -10.792 -45.022  29.603  1.00  0.00     0.039 A 
ATOM     27  C   UNL     1      -9.813 -44.031  29.591  1.00  0.00     0.075 A 
ATOM     28  C   UNL     1     -10.691 -46.097  30.499  1.00  0.00     0.013 A 
ATOM     29  C   UNL     1      -8.732 -44.119  30.478  1.00  0.00     0.127 A 
ATOM     30  C   UNL     1      -9.611 -46.177  31.379  1.00  0.00     0.005 A 
ATOM     31  C   UNL     1      -8.630 -45.186  31.367  1.00  0.00     0.047 A 
ATOM     32  O   UNL     1     -12.832 -45.802  28.718  1.00  0.00    -0.287 OA
ATOM     33  O   UNL     1      -9.077 -42.019  28.634  1.00  0.00    -0.289 OA
BRANCH  29  34
ATOM     34  O   UNL     1      -7.729 -43.187  30.531  1.00  0.00    -0.507 OA
ATOM     35  H   UNL     1      -7.120 -43.426  31.265  1.00  0.00     0.293 HD
ENDBRANCH  29  34
ENDBRANCH  20  22
ENDBRANCH   1  20
TORSDOF 6
ENDMDL
MODEL 6
REMARK VINA RESULT:   -11.065      2.203      4.265
REMARK INTER + INTRA:         -15.315
REMARK INTER:                 -14.702
REMARK INTRA:                  -0.612
REMARK UNBOUND:                -0.692
REMARK SMILES O=C1C(NCCN=c2c3c([nH]c4cc(Cl)ccc24)CCCC3)=CC(=O)c2c(O)cccc21
REMARK SMILES IDX 5 1 6 2 7 3 8 4 11 5 10 6 12 7 9 8 19 9 13 10 18 11 22 12
REMARK SMILES IDX 20 13 14 14 17 15 21 16 16 17 15 19 4 20 3 22 23 23 2 24
REMARK SMILES IDX 24 25 32 26 26 27 31 28 27 29 30 30 29 31 1 32 25 33 28 34
REMARK H PARENT 11 18 4 21 28 35
ROOT
ATOM      1  C   UNL     1     -12.644 -44.472  28.498  1.00  0.00     0.136 C 
ENDROOT
BRANCH   1   2
ATOM      2  C   UNL     1     -12.869 -45.825  29.188  1.00  0.00     0.164 C 
BRANCH   2   3
ATOM      3  N   UNL     1     -12.571 -45.744  30.605  1.00  0.00    -0.282 NA
BRANCH   3   4
ATOM      4  C   UNL     1     -11.931 -44.811  31.212  1.00  0.00     0.072 A 
ATOM      5  N   UNL     1     -10.852 -43.151  33.236  1.00  0.00    -0.358 N 
ATOM      6  C   UNL     1     -10.003 -43.785  32.349  1.00  0.00     0.021 A 
ATOM      7  C   UNL     1     -12.216 -43.023  32.944  1.00  0.00     0.049 A 
ATOM      8  C   UNL     1     -10.436 -44.571  31.336  1.00  0.00    -0.003 A 
ATOM      9  C   UNL     1      -8.528 -43.505  32.571  1.00  0.00     0.054 C 
ATOM     10  C   UNL     1     -13.029 -42.166  33.694  1.00  0.00     0.047 A 
ATOM     11  C   UNL     1     -12.794 -43.818  31.945  1.00  0.00     0.024 A 
ATOM     12  C   UNL     1      -9.493 -45.123  30.302  1.00  0.00     0.039 C 
ATOM     13  C   UNL     1      -7.589 -44.375  31.743  1.00  0.00     0.007 C 
ATOM     14  C   UNL     1     -14.394 -42.075  33.416  1.00  0.00     0.043 A 
ATOM     15  C   UNL     1     -14.168 -43.726  31.676  1.00  0.00     0.014 A 
ATOM     16  C   UNL     1      -8.101 -44.487  30.317  1.00  0.00     0.005 C 
ATOM     17  C   UNL     1     -14.967 -42.846  32.408  1.00  0.00     0.021 A 
ATOM     18  H   UNL     1     -10.442 -42.422  33.809  1.00  0.00     0.166 HD
ATOM     19  Cl  UNL     1     -15.379 -41.004  34.335  1.00  0.00    -0.084 Cl
ENDBRANCH   3   4
ENDBRANCH   2   3
ENDBRANCH   1   2
BRANCH   1  20
ATOM     20  N   UNL     1     -13.278 -44.456  27.184  1.00  0.00    -0.380 N 
ATOM     21  H   UNL     1     -12.621 -44.315  26.407  1.00  0.00     0.160 HD
BRANCH  20  22
ATOM     22  C   UNL     1     -14.497 -43.851  26.886  1.00  0.00     0.087 C 
ATOM     23  C   UNL     1     -15.377 -43.381  27.776  1.00  0.00     0.082 C 
ATOM     24  C   UNL     1     -14.813 -43.744  25.417  1.00  0.00     0.209 C 
ATOM     25  C   UNL     1     -16.658 -42.768  27.393  1.00  0.00     0.192 C 
ATOM     26  C   UNL     1     -16.104 -43.157  25.011  1.00  0.00     0.039 A 
ATOM     27  C   UNL     1     -16.999 -42.680  25.966  1.00  0.00     0.075 A 
ATOM     28  C   UNL     1     -16.422 -43.075  23.647  1.00  0.00     0.013 A 
ATOM     29  C   UNL     1     -18.215 -42.122  25.552  1.00  0.00     0.127 A 
ATOM     30  C   UNL     1     -17.635 -42.518  23.244  1.00  0.00     0.005 A 
ATOM     31  C   UNL     1     -18.533 -42.041  24.198  1.00  0.00     0.047 A 
ATOM     32  O   UNL     1     -14.001 -44.130  24.579  1.00  0.00    -0.287 OA
ATOM     33  O   UNL     1     -17.431 -42.342  28.247  1.00  0.00    -0.289 OA
BRANCH  29  34
ATOM     34  O   UNL     1     -19.149 -41.629  26.425  1.00  0.00    -0.507 OA
ATOM     35  H   UNL     1     -19.817 -41.120  25.913  1.00  0.00     0.293 HD
ENDBRANCH  29  34
ENDBRANCH  20  22
ENDBRANCH   1  20
TORSDOF 6
ENDMDL
MODEL 7
REMARK VINA RESULT:   -11.030      4.238      9.764
REMARK INTER + INTRA:         -15.268
REMARK INTER:                 -14.871
REMARK INTRA:                  -0.397
REMARK UNBOUND:                -0.692
REMARK SMILES O=C1C(NCCN=c2c3c([nH]c4cc(Cl)ccc24)CCCC3)=CC(=O)c2c(O)cccc21
REMARK SMILES IDX 5 1 6 2 7 3 8 4 11 5 10 6 12 7 9 8 19 9 13 10 18 11 22 12
REMARK SMILES IDX 20 13 14 14 17 15 21 16 16 17 15 19 4 20 3 22 23 23 2 24
REMARK SMILES IDX 24 25 32 26 26 27 31 28 27 29 30 30 29 31 1 32 25 33 28 34
REMARK H PARENT 11 18 4 21 28 35
ROOT
ATOM      1  C   UNL     1     -15.807 -42.549  30.828  1.00  0.00     0.136 C 
ENDROOT
BRANCH   1   2
ATOM      2  C   UNL     1     -16.231 -43.291  29.554  1.00  0.00     0.164 C 
BRANCH   2   3
ATOM      3  N   UNL     1     -16.768 -42.372  28.568  1.00  0.00    -0.282 NA
BRANCH   3   4
ATOM      4  C   UNL     1     -16.920 -42.584  27.312  1.00  0.00     0.072 A 
ATOM      5  N   UNL     1     -17.298 -42.192  24.533  1.00  0.00    -0.358 N 
ATOM      6  C   UNL     1     -16.185 -42.877  24.981  1.00  0.00     0.021 A 
ATOM      7  C   UNL     1     -18.401 -42.004  25.375  1.00  0.00     0.049 A 
ATOM      8  C   UNL     1     -15.943 -43.134  26.287  1.00  0.00    -0.003 A 
ATOM      9  C   UNL     1     -15.255 -43.363  23.883  1.00  0.00     0.054 C 
ATOM     10  C   UNL     1     -19.621 -41.549  24.862  1.00  0.00     0.047 A 
ATOM     11  C   UNL     1     -18.265 -42.193  26.757  1.00  0.00     0.024 A 
ATOM     12  C   UNL     1     -14.801 -44.011  26.725  1.00  0.00     0.039 C 
ATOM     13  C   UNL     1     -13.925 -43.918  24.383  1.00  0.00     0.007 C 
ATOM     14  C   UNL     1     -20.703 -41.332  25.718  1.00  0.00     0.043 A 
ATOM     15  C   UNL     1     -19.355 -41.966  27.612  1.00  0.00     0.014 A 
ATOM     16  C   UNL     1     -14.151 -44.809  25.592  1.00  0.00     0.005 C 
ATOM     17  C   UNL     1     -20.577 -41.542  27.089  1.00  0.00     0.021 A 
ATOM     18  H   UNL     1     -17.492 -42.246  23.539  1.00  0.00     0.166 HD
ATOM     19  Cl  UNL     1     -22.203 -40.790  25.072  1.00  0.00    -0.084 Cl
ENDBRANCH   3   4
ENDBRANCH   2   3
ENDBRANCH   1   2
BRANCH   1  20
ATOM     20  N   UNL     1     -15.151 -43.462  31.759  1.00  0.00    -0.380 N 
ATOM     21  H   UNL     1     -15.634 -43.555  32.660  1.00  0.00     0.160 HD
BRANCH  20  22
ATOM     22  C   UNL     1     -13.775 -43.565  31.948  1.00  0.00     0.087 C 
ATOM     23  C   UNL     1     -12.998 -42.664  32.558  1.00  0.00     0.082 C 
ATOM     24  C   UNL     1     -13.147 -44.819  31.395  1.00  0.00     0.209 C 
ATOM     25  C   UNL     1     -11.543 -42.828  32.709  1.00  0.00     0.192 C 
ATOM     26  C   UNL     1     -11.688 -44.991  31.512  1.00  0.00     0.039 A 
ATOM     27  C   UNL     1     -10.908 -44.030  32.150  1.00  0.00     0.075 A 
ATOM     28  C   UNL     1     -11.087 -46.141  30.977  1.00  0.00     0.013 A 
ATOM     29  C   UNL     1      -9.523 -44.222  32.252  1.00  0.00     0.127 A 
ATOM     30  C   UNL     1      -9.709 -46.324  31.083  1.00  0.00     0.005 A 
ATOM     31  C   UNL     1      -8.926 -45.363  31.721  1.00  0.00     0.047 A 
ATOM     32  O   UNL     1     -13.847 -45.681  30.869  1.00  0.00    -0.287 OA
ATOM     33  O   UNL     1     -10.872 -41.976  33.284  1.00  0.00    -0.289 OA
BRANCH  29  34
ATOM     34  O   UNL     1      -8.686 -43.328  32.864  1.00  0.00    -0.507 OA
ATOM     35  H   UNL     1      -9.225 -42.578  33.204  1.00  0.00     0.293 HD
ENDBRANCH  29  34
ENDBRANCH  20  22
ENDBRANCH   1  20
TORSDOF 6
ENDMDL
MODEL 8
REMARK VINA RESULT:   -10.717      4.942     10.684
REMARK INTER + INTRA:         -14.855
REMARK INTER:                 -13.976
REMARK INTRA:                  -0.879
REMARK UNBOUND:                -0.692
REMARK SMILES O=C1C(NCCN=c2c3c([nH]c4cc(Cl)ccc24)CCCC3)=CC(=O)c2c(O)cccc21
REMARK SMILES IDX 5 1 6 2 7 3 8 4 11 5 10 6 12 7 9 8 19 9 13 10 18 11 22 12
REMARK SMILES IDX 20 13 14 14 17 15 21 16 16 17 15 19 4 20 3 22 23 23 2 24
REMARK SMILES IDX 24 25 32 26 26 27 31 28 27 29 30 30 29 31 1 32 25 33 28 34
REMARK H PARENT 11 18 4 21 28 35
ROOT
ATOM      1  C   UNL     1     -15.619 -41.658  23.126  1.00  0.00     0.136 C 
ENDROOT
BRANCH   1   2
ATOM      2  C   UNL     1     -16.835 -41.013  22.447  1.00  0.00     0.164 C 
BRANCH   2   3
ATOM      3  N   UNL     1     -18.037 -41.789  22.684  1.00  0.00    -0.282 NA
BRANCH   3   4
ATOM      4  C   UNL     1     -19.246 -41.357  22.713  1.00  0.00     0.072 A 
ATOM      5  N   UNL     1     -21.627 -40.048  23.508  1.00  0.00    -0.358 N 
ATOM      6  C   UNL     1     -21.072 -39.766  22.275  1.00  0.00     0.021 A 
ATOM      7  C   UNL     1     -21.252 -41.202  24.208  1.00  0.00     0.049 A 
ATOM      8  C   UNL     1     -19.954 -40.367  21.806  1.00  0.00    -0.003 A 
ATOM      9  C   UNL     1     -21.836 -38.743  21.453  1.00  0.00     0.054 C 
ATOM     10  C   UNL     1     -21.986 -41.633  25.318  1.00  0.00     0.047 A 
ATOM     11  C   UNL     1     -20.085 -41.889  23.847  1.00  0.00     0.024 A 
ATOM     12  C   UNL     1     -19.464 -40.145  20.400  1.00  0.00     0.039 C 
ATOM     13  C   UNL     1     -21.109 -38.270  20.200  1.00  0.00     0.007 C 
ATOM     14  C   UNL     1     -21.580 -42.765  26.029  1.00  0.00     0.043 A 
ATOM     15  C   UNL     1     -19.680 -43.021  24.570  1.00  0.00     0.014 A 
ATOM     16  C   UNL     1     -20.474 -39.450  19.485  1.00  0.00     0.005 C 
ATOM     17  C   UNL     1     -20.433 -43.463  25.657  1.00  0.00     0.021 A 
ATOM     18  H   UNL     1     -22.571 -39.710  23.666  1.00  0.00     0.166 HD
ATOM     19  Cl  UNL     1     -22.501 -43.296  27.381  1.00  0.00    -0.084 Cl
ENDBRANCH   3   4
ENDBRANCH   2   3
ENDBRANCH   1   2
BRANCH   1  20
ATOM     20  N   UNL     1     -16.001 -42.901  23.788  1.00  0.00    -0.380 N 
ATOM     21  H   UNL     1     -16.959 -43.206  23.577  1.00  0.00     0.160 HD
BRANCH  20  22
ATOM     22  C   UNL     1     -15.672 -43.250  25.095  1.00  0.00     0.087 C 
ATOM     23  C   UNL     1     -16.190 -42.713  26.204  1.00  0.00     0.082 C 
ATOM     24  C   UNL     1     -14.628 -44.330  25.224  1.00  0.00     0.209 C 
ATOM     25  C   UNL     1     -15.783 -43.116  27.560  1.00  0.00     0.192 C 
ATOM     26  C   UNL     1     -14.186 -44.731  26.571  1.00  0.00     0.039 A 
ATOM     27  C   UNL     1     -14.745 -44.147  27.706  1.00  0.00     0.075 A 
ATOM     28  C   UNL     1     -13.196 -45.716  26.704  1.00  0.00     0.013 A 
ATOM     29  C   UNL     1     -14.310 -44.552  28.975  1.00  0.00     0.127 A 
ATOM     30  C   UNL     1     -12.769 -46.113  27.971  1.00  0.00     0.005 A 
ATOM     31  C   UNL     1     -13.327 -45.529  29.108  1.00  0.00     0.047 A 
ATOM     32  O   UNL     1     -14.169 -44.868  24.219  1.00  0.00    -0.287 OA
ATOM     33  O   UNL     1     -16.294 -42.599  28.549  1.00  0.00    -0.289 OA
BRANCH  29  34
ATOM     34  O   UNL     1     -14.809 -44.030  30.139  1.00  0.00    -0.507 OA
ATOM     35  H   UNL     1     -15.132 -43.118  29.960  1.00  0.00     0.293 HD
ENDBRANCH  29  34
ENDBRANCH  20  22
ENDBRANCH   1  20
TORSDOF 6
ENDMDL
MODEL 9
REMARK VINA RESULT:   -10.431      5.564      9.262
REMARK INTER + INTRA:         -14.476
REMARK INTER:                 -13.767
REMARK INTRA:                  -0.709
REMARK UNBOUND:                -0.692
REMARK SMILES O=C1C(NCCN=c2c3c([nH]c4cc(Cl)ccc24)CCCC3)=CC(=O)c2c(O)cccc21
REMARK SMILES IDX 5 1 6 2 7 3 8 4 11 5 10 6 12 7 9 8 19 9 13 10 18 11 22 12
REMARK SMILES IDX 20 13 14 14 17 15 21 16 16 17 15 19 4 20 3 22 23 23 2 24
REMARK SMILES IDX 24 25 32 26 26 27 31 28 27 29 30 30 29 31 1 32 25 33 28 34
REMARK H PARENT 11 18 4 21 28 35
ROOT
ATOM      1  C   UNL     1     -18.189 -40.208  21.825  1.00  0.00     0.136 C 
ENDROOT
BRANCH   1   2
ATOM      2  C   UNL     1     -16.949 -41.048  22.160  1.00  0.00     0.164 C 
BRANCH   2   3
ATOM      3  N   UNL     1     -17.320 -42.285  22.822  1.00  0.00    -0.282 NA
BRANCH   3   4
ATOM      4  C   UNL     1     -17.556 -42.455  24.072  1.00  0.00     0.072 A 
ATOM      5  N   UNL     1     -17.471 -42.223  26.892  1.00  0.00    -0.358 N 
ATOM      6  C   UNL     1     -18.665 -42.020  26.226  1.00  0.00     0.021 A 
ATOM      7  C   UNL     1     -16.408 -42.879  26.259  1.00  0.00     0.049 A 
ATOM      8  C   UNL     1     -18.799 -42.140  24.885  1.00  0.00    -0.003 A 
ATOM      9  C   UNL     1     -19.843 -41.683  27.122  1.00  0.00     0.054 C 
ATOM     10  C   UNL     1     -15.303 -43.320  26.995  1.00  0.00     0.047 A 
ATOM     11  C   UNL     1     -16.408 -43.025  24.865  1.00  0.00     0.024 A 
ATOM     12  C   UNL     1     -20.143 -42.059  24.212  1.00  0.00     0.039 C 
ATOM     13  C   UNL     1     -21.097 -41.242  26.376  1.00  0.00     0.007 C 
ATOM     14  C   UNL     1     -14.233 -43.940  26.346  1.00  0.00     0.043 A 
ATOM     15  C   UNL     1     -15.326 -43.643  24.220  1.00  0.00     0.014 A 
ATOM     16  C   UNL     1     -21.332 -42.137  25.172  1.00  0.00     0.005 C 
ATOM     17  C   UNL     1     -14.241 -44.108  24.963  1.00  0.00     0.021 A 
ATOM     18  H   UNL     1     -17.529 -42.324  27.900  1.00  0.00     0.166 HD
ATOM     19  Cl  UNL     1     -12.887 -44.495  27.264  1.00  0.00    -0.084 Cl
ENDBRANCH   3   4
ENDBRANCH   2   3
ENDBRANCH   1   2
BRANCH   1  20
ATOM     20  N   UNL     1     -19.081 -40.943  20.935  1.00  0.00    -0.380 N 
ATOM     21  H   UNL     1     -18.607 -41.659  20.371  1.00  0.00     0.160 HD
BRANCH  20  22
ATOM     22  C   UNL     1     -20.129 -40.385  20.206  1.00  0.00     0.087 C 
ATOM     23  C   UNL     1     -20.226 -39.107  19.825  1.00  0.00     0.082 C 
ATOM     24  C   UNL     1     -21.233 -41.344  19.841  1.00  0.00     0.209 C 
ATOM     25  C   UNL     1     -21.373 -38.578  19.071  1.00  0.00     0.192 C 
ATOM     26  C   UNL     1     -22.404 -40.830  19.107  1.00  0.00     0.039 A 
ATOM     27  C   UNL     1     -22.474 -39.491  18.730  1.00  0.00     0.075 A 
ATOM     28  C   UNL     1     -23.451 -41.706  18.784  1.00  0.00     0.013 A 
ATOM     29  C   UNL     1     -23.596 -39.030  18.028  1.00  0.00     0.127 A 
ATOM     30  C   UNL     1     -24.564 -41.240  18.086  1.00  0.00     0.005 A 
ATOM     31  C   UNL     1     -24.636 -39.900  17.708  1.00  0.00     0.047 A 
ATOM     32  O   UNL     1     -21.145 -42.532  20.142  1.00  0.00    -0.287 OA
ATOM     33  O   UNL     1     -21.414 -37.398  18.736  1.00  0.00    -0.289 OA
BRANCH  29  34
ATOM     34  O   UNL     1     -23.743 -37.731  17.620  1.00  0.00    -0.507 OA
ATOM     35  H   UNL     1     -23.990 -37.185  18.399  1.00  0.00     0.293 HD
ENDBRANCH  29  34
ENDBRANCH  20  22
ENDBRANCH   1  20
TORSDOF 6
ENDMDL
