MODEL 1
REMARK VINA RESULT:    -9.301      0.000      0.000
REMARK INTER + INTRA:         -14.291
REMARK INTER:                 -12.835
REMARK INTRA:                  -1.455
REMARK UNBOUND:                -1.455
REMARK SMILES COc1ccc(OC)c([C@H]2CC(c3cc(F)cc(F)c3)=NN2c2ccc(S(N)(=O)=O)cc2)c1
REMARK SMILES IDX 23 1 24 2 25 3 26 4 31 5 32 6 22 7 10 8 11 9 12 10 21 11
REMARK SMILES IDX 9 12 3 13 4 14 33 15 5 16 6 17 2 18 1 19 7 20 8 21 13 22
REMARK SMILES IDX 14 23 20 24 15 25 18 26 17 27 16 28 19 29 27 30 29 31 30 32
REMARK SMILES IDX 28 33
REMARK H PARENT 28 34 28 35
ROOT
ATOM      1  C   UNL     1     -20.196 -40.995  23.701  1.00  0.00     0.060 A 
ATOM      2  C   UNL     1     -19.582 -40.839  22.444  1.00  0.00     0.029 A 
ATOM      3  C   UNL     1     -20.249 -40.263  21.357  1.00  0.00     0.024 A 
ATOM      4  C   UNL     1     -21.558 -39.819  21.519  1.00  0.00     0.082 A 
ATOM      5  C   UNL     1     -22.207 -39.970  22.744  1.00  0.00     0.024 A 
ATOM      6  C   UNL     1     -21.525 -40.550  23.820  1.00  0.00     0.029 A 
ENDROOT
BRANCH   1   7
ATOM      7  N   UNL     1     -19.504 -41.575  24.763  1.00  0.00    -0.257 N 
ATOM      8  C   UNL     1     -20.037 -41.806  26.112  1.00  0.00     0.148 C 
ATOM      9  C   UNL     1     -18.778 -42.123  26.919  1.00  0.00     0.091 C 
ATOM     10  C   UNL     1     -17.779 -42.296  25.808  1.00  0.00     0.071 C 
ATOM     11  N   UNL     1     -18.199 -41.950  24.629  1.00  0.00    -0.176 NA
BRANCH   8  12
ATOM     12  C   UNL     1     -21.032 -42.958  26.193  1.00  0.00     0.023 A 
ATOM     13  C   UNL     1     -21.661 -45.269  25.681  1.00  0.00     0.119 A 
ATOM     14  C   UNL     1     -22.848 -45.095  26.385  1.00  0.00     0.050 A 
ATOM     15  C   UNL     1     -20.760 -44.205  25.595  1.00  0.00     0.056 A 
ATOM     16  C   UNL     1     -23.130 -43.870  27.001  1.00  0.00     0.050 A 
ATOM     17  C   UNL     1     -22.230 -42.803  26.916  1.00  0.00     0.124 A 
BRANCH  13  18
ATOM     18  O   UNL     1     -21.260 -46.412  25.048  1.00  0.00    -0.497 OA
ATOM     19  C   UNL     1     -22.222 -47.073  24.236  1.00  0.00     0.278 C 
ENDBRANCH  13  18
BRANCH  17  20
ATOM     20  O   UNL     1     -22.417 -41.581  27.511  1.00  0.00    -0.496 OA
ATOM     21  C   UNL     1     -23.598 -40.863  27.175  1.00  0.00     0.278 C 
ENDBRANCH  17  20
ENDBRANCH   8  12
BRANCH  10  22
ATOM     22  C   UNL     1     -16.407 -42.792  26.058  1.00  0.00     0.004 A 
ATOM     23  C   UNL     1     -16.052 -43.377  27.277  1.00  0.00     0.049 A 
ATOM     24  C   UNL     1     -15.447 -42.666  25.046  1.00  0.00     0.049 A 
ATOM     25  C   UNL     1     -14.748 -43.828  27.466  1.00  0.00     0.126 A 
ATOM     26  C   UNL     1     -14.151 -43.126  25.264  1.00  0.00     0.126 A 
ATOM     27  C   UNL     1     -13.790 -43.709  26.470  1.00  0.00     0.078 A 
ATOM     28  F   UNL     1     -14.414 -44.386  28.637  1.00  0.00    -0.207 F 
ATOM     29  F   UNL     1     -13.237 -43.003  24.293  1.00  0.00    -0.207 F 
ENDBRANCH  10  22
ENDBRANCH   1   7
BRANCH   4  30
ATOM     30  S   UNL     1     -22.416 -39.080  20.158  1.00  0.00     0.238 S 
ATOM     31  O   UNL     1     -23.701 -39.724  20.016  1.00  0.00    -0.207 OA
ATOM     32  O   UNL     1     -21.495 -38.929  19.056  1.00  0.00    -0.207 OA
BRANCH  30  33
ATOM     33  N   UNL     1     -22.684 -37.522  20.743  1.00  0.00    -0.225 NA
ATOM     34  H   UNL     1     -21.892 -37.154  21.268  1.00  0.00     0.137 HD
ATOM     35  H   UNL     1     -22.931 -36.918  19.957  1.00  0.00     0.137 HD
ENDBRANCH  30  33
ENDBRANCH   4  30
TORSDOF 7
ENDMDL
MODEL 2
REMARK VINA RESULT:    -9.299      1.059      1.694
REMARK INTER + INTRA:         -14.288
REMARK INTER:                 -12.991
REMARK INTRA:                  -1.297
REMARK UNBOUND:                -1.455
REMARK SMILES COc1ccc(OC)c([C@H]2CC(c3cc(F)cc(F)c3)=NN2c2ccc(S(N)(=O)=O)cc2)c1
REMARK SMILES IDX 23 1 24 2 25 3 26 4 31 5 32 6 22 7 10 8 11 9 12 10 21 11
REMARK SMILES IDX 9 12 3 13 4 14 33 15 5 16 6 17 2 18 1 19 7 20 8 21 13 22
REMARK SMILES IDX 14 23 20 24 15 25 18 26 17 27 16 28 19 29 27 30 29 31 30 32
REMARK SMILES IDX 28 33
REMARK H PARENT 28 34 28 35
ROOT
ATOM      1  C   UNL     1     -20.245 -40.564  23.056  1.00  0.00     0.060 A 
ATOM      2  C   UNL     1     -19.577 -40.269  21.852  1.00  0.00     0.029 A 
ATOM      3  C   UNL     1     -20.193 -39.561  20.814  1.00  0.00     0.024 A 
ATOM      4  C   UNL     1     -21.504 -39.123  20.974  1.00  0.00     0.082 A 
ATOM      5  C   UNL     1     -22.205 -39.408  22.145  1.00  0.00     0.024 A 
ATOM      6  C   UNL     1     -21.573 -40.119  23.172  1.00  0.00     0.029 A 
ENDROOT
BRANCH   1   7
ATOM      7  N   UNL     1     -19.603 -41.273  24.070  1.00  0.00    -0.257 N 
ATOM      8  C   UNL     1     -20.105 -41.461  25.437  1.00  0.00     0.148 C 
ATOM      9  C   UNL     1     -18.873 -41.989  26.175  1.00  0.00     0.091 C 
ATOM     10  C   UNL     1     -17.963 -42.277  25.014  1.00  0.00     0.071 C 
ATOM     11  N   UNL     1     -18.377 -41.837  23.865  1.00  0.00    -0.176 NA
BRANCH   8  12
ATOM     12  C   UNL     1     -21.259 -42.452  25.540  1.00  0.00     0.023 A 
ATOM     13  C   UNL     1     -22.381 -44.498  24.798  1.00  0.00     0.119 A 
ATOM     14  C   UNL     1     -23.363 -44.301  25.763  1.00  0.00     0.050 A 
ATOM     15  C   UNL     1     -21.335 -43.579  24.696  1.00  0.00     0.056 A 
ATOM     16  C   UNL     1     -23.297 -43.199  26.623  1.00  0.00     0.050 A 
ATOM     17  C   UNL     1     -22.251 -42.276  26.523  1.00  0.00     0.124 A 
BRANCH  13  18
ATOM     18  O   UNL     1     -22.321 -45.536  23.910  1.00  0.00    -0.497 OA
ATOM     19  C   UNL     1     -22.131 -46.837  24.449  1.00  0.00     0.278 C 
ENDBRANCH  13  18
BRANCH  17  20
ATOM     20  O   UNL     1     -22.097 -41.185  27.340  1.00  0.00    -0.496 OA
ATOM     21  C   UNL     1     -23.013 -40.109  27.175  1.00  0.00     0.278 C 
ENDBRANCH  17  20
ENDBRANCH   8  12
BRANCH  10  22
ATOM     22  C   UNL     1     -16.672 -42.982  25.186  1.00  0.00     0.004 A 
ATOM     23  C   UNL     1     -16.012 -43.571  24.104  1.00  0.00     0.049 A 
ATOM     24  C   UNL     1     -16.109 -43.059  26.465  1.00  0.00     0.049 A 
ATOM     25  C   UNL     1     -14.800 -44.224  24.315  1.00  0.00     0.126 A 
ATOM     26  C   UNL     1     -14.896 -43.719  26.646  1.00  0.00     0.126 A 
ATOM     27  C   UNL     1     -14.233 -44.305  25.578  1.00  0.00     0.078 A 
ATOM     28  F   UNL     1     -14.173 -44.788  23.274  1.00  0.00    -0.207 F 
ATOM     29  F   UNL     1     -14.361 -43.789  27.872  1.00  0.00    -0.207 F 
ENDBRANCH  10  22
ENDBRANCH   1   7
BRANCH   4  30
ATOM     30  S   UNL     1     -22.298 -38.219  19.676  1.00  0.00     0.238 S 
ATOM     31  O   UNL     1     -23.292 -39.067  19.061  1.00  0.00    -0.207 OA
ATOM     32  O   UNL     1     -21.290 -37.520  18.912  1.00  0.00    -0.207 OA
BRANCH  30  33
ATOM     33  N   UNL     1     -23.110 -37.027  20.550  1.00  0.00    -0.225 NA
ATOM     34  H   UNL     1     -23.128 -36.127  20.072  1.00  0.00     0.137 HD
ATOM     35  H   UNL     1     -24.051 -37.363  20.762  1.00  0.00     0.137 HD
ENDBRANCH  30  33
ENDBRANCH   4  30
TORSDOF 7
ENDMDL
MODEL 3
REMARK VINA RESULT:    -8.634      4.531      7.743
REMARK INTER + INTRA:         -13.370
REMARK INTER:                 -12.025
REMARK INTRA:                  -1.345
REMARK UNBOUND:                -1.455
REMARK SMILES COc1ccc(OC)c([C@H]2CC(c3cc(F)cc(F)c3)=NN2c2ccc(S(N)(=O)=O)cc2)c1
REMARK SMILES IDX 23 1 24 2 25 3 26 4 31 5 32 6 22 7 10 8 11 9 12 10 21 11
REMARK SMILES IDX 9 12 3 13 4 14 33 15 5 16 6 17 2 18 1 19 7 20 8 21 13 22
REMARK SMILES IDX 14 23 20 24 15 25 18 26 17 27 16 28 19 29 27 30 29 31 30 32
REMARK SMILES IDX 28 33
REMARK H PARENT 28 34 28 35
ROOT
ATOM      1  C   UNL     1     -19.175 -41.822  26.124  1.00  0.00     0.060 A 
ATOM      2  C   UNL     1     -18.587 -42.037  27.384  1.00  0.00     0.029 A 
ATOM      3  C   UNL     1     -17.280 -42.517  27.523  1.00  0.00     0.024 A 
ATOM      4  C   UNL     1     -16.528 -42.784  26.382  1.00  0.00     0.082 A 
ATOM      5  C   UNL     1     -17.080 -42.597  25.115  1.00  0.00     0.024 A 
ATOM      6  C   UNL     1     -18.389 -42.118  24.996  1.00  0.00     0.029 A 
ENDROOT
BRANCH   1   7
ATOM      7  N   UNL     1     -20.480 -41.344  26.020  1.00  0.00    -0.257 N 
ATOM      8  C   UNL     1     -21.181 -41.020  24.771  1.00  0.00     0.148 C 
ATOM      9  C   UNL     1     -22.398 -40.237  25.263  1.00  0.00     0.091 C 
ATOM     10  C   UNL     1     -22.316 -40.506  26.740  1.00  0.00     0.071 C 
ATOM     11  N   UNL     1     -21.225 -41.089  27.135  1.00  0.00    -0.176 NA
BRANCH   8  12
ATOM     12  C   UNL     1     -21.616 -42.244  23.973  1.00  0.00     0.023 A 
ATOM     13  C   UNL     1     -22.483 -44.534  23.888  1.00  0.00     0.119 A 
ATOM     14  C   UNL     1     -22.462 -44.482  22.498  1.00  0.00     0.050 A 
ATOM     15  C   UNL     1     -22.067 -43.415  24.615  1.00  0.00     0.056 A 
ATOM     16  C   UNL     1     -22.035 -43.323  21.841  1.00  0.00     0.050 A 
ATOM     17  C   UNL     1     -21.617 -42.202  22.565  1.00  0.00     0.124 A 
BRANCH  13  18
ATOM     18  O   UNL     1     -22.888 -45.593  24.649  1.00  0.00    -0.497 OA
ATOM     19  C   UNL     1     -22.086 -46.766  24.604  1.00  0.00     0.278 C 
ENDBRANCH  13  18
BRANCH  17  20
ATOM     20  O   UNL     1     -21.208 -41.021  22.002  1.00  0.00    -0.496 OA
ATOM     21  C   UNL     1     -19.941 -41.007  21.356  1.00  0.00     0.278 C 
ENDBRANCH  17  20
ENDBRANCH   8  12
BRANCH  10  22
ATOM     22  C   UNL     1     -23.392 -40.099  27.672  1.00  0.00     0.004 A 
ATOM     23  C   UNL     1     -23.631 -38.754  27.968  1.00  0.00     0.049 A 
ATOM     24  C   UNL     1     -24.180 -41.090  28.269  1.00  0.00     0.049 A 
ATOM     25  C   UNL     1     -24.655 -38.420  28.852  1.00  0.00     0.126 A 
ATOM     26  C   UNL     1     -25.196 -40.726  29.149  1.00  0.00     0.126 A 
ATOM     27  C   UNL     1     -25.442 -39.394  29.448  1.00  0.00     0.078 A 
ATOM     28  F   UNL     1     -24.878 -37.129  29.133  1.00  0.00    -0.207 F 
ATOM     29  F   UNL     1     -25.948 -41.677  29.718  1.00  0.00    -0.207 F 
ENDBRANCH  10  22
ENDBRANCH   1   7
BRANCH   4  30
ATOM     30  S   UNL     1     -14.870 -43.384  26.536  1.00  0.00     0.238 S 
ATOM     31  O   UNL     1     -13.967 -42.257  26.533  1.00  0.00    -0.207 OA
ATOM     32  O   UNL     1     -14.703 -44.518  25.657  1.00  0.00    -0.207 OA
BRANCH  30  33
ATOM     33  N   UNL     1     -14.892 -44.021  28.097  1.00  0.00    -0.225 NA
ATOM     34  H   UNL     1     -14.537 -43.369  28.796  1.00  0.00     0.137 HD
ATOM     35  H   UNL     1     -15.843 -44.326  28.311  1.00  0.00     0.137 HD
ENDBRANCH  30  33
ENDBRANCH   4  30
TORSDOF 7
ENDMDL
MODEL 4
REMARK VINA RESULT:    -8.615      3.558      6.181
REMARK INTER + INTRA:         -13.344
REMARK INTER:                 -11.877
REMARK INTRA:                  -1.467
REMARK UNBOUND:                -1.455
REMARK SMILES COc1ccc(OC)c([C@H]2CC(c3cc(F)cc(F)c3)=NN2c2ccc(S(N)(=O)=O)cc2)c1
REMARK SMILES IDX 23 1 24 2 25 3 26 4 31 5 32 6 22 7 10 8 11 9 12 10 21 11
REMARK SMILES IDX 9 12 3 13 4 14 33 15 5 16 6 17 2 18 1 19 7 20 8 21 13 22
REMARK SMILES IDX 14 23 20 24 15 25 18 26 17 27 16 28 19 29 27 30 29 31 30 32
REMARK SMILES IDX 28 33
REMARK H PARENT 28 34 28 35
ROOT
ATOM      1  C   UNL     1     -23.286 -40.088  27.257  1.00  0.00     0.060 A 
ATOM      2  C   UNL     1     -23.546 -38.743  26.935  1.00  0.00     0.029 A 
ATOM      3  C   UNL     1     -24.552 -38.007  27.570  1.00  0.00     0.024 A 
ATOM      4  C   UNL     1     -25.318 -38.614  28.560  1.00  0.00     0.082 A 
ATOM      5  C   UNL     1     -25.102 -39.950  28.898  1.00  0.00     0.024 A 
ATOM      6  C   UNL     1     -24.093 -40.671  28.250  1.00  0.00     0.029 A 
ENDROOT
BRANCH   1   7
ATOM      7  N   UNL     1     -22.277 -40.794  26.604  1.00  0.00    -0.257 N 
ATOM      8  C   UNL     1     -22.416 -41.511  25.330  1.00  0.00     0.148 C 
ATOM      9  C   UNL     1     -21.143 -42.357  25.282  1.00  0.00     0.091 C 
ATOM     10  C   UNL     1     -20.367 -41.746  26.415  1.00  0.00     0.071 C 
ATOM     11  N   UNL     1     -21.033 -40.909  27.153  1.00  0.00    -0.176 NA
BRANCH   8  12
ATOM     12  C   UNL     1     -22.499 -40.596  24.112  1.00  0.00     0.023 A 
ATOM     13  C   UNL     1     -21.412 -39.362  22.298  1.00  0.00     0.119 A 
ATOM     14  C   UNL     1     -22.659 -38.948  21.842  1.00  0.00     0.050 A 
ATOM     15  C   UNL     1     -21.340 -40.186  23.423  1.00  0.00     0.056 A 
ATOM     16  C   UNL     1     -23.824 -39.358  22.501  1.00  0.00     0.050 A 
ATOM     17  C   UNL     1     -23.755 -40.183  23.629  1.00  0.00     0.124 A 
BRANCH  13  18
ATOM     18  O   UNL     1     -20.205 -39.047  21.740  1.00  0.00    -0.497 OA
ATOM     19  C   UNL     1     -19.854 -39.718  20.538  1.00  0.00     0.278 C 
ENDBRANCH  13  18
BRANCH  17  20
ATOM     20  O   UNL     1     -24.845 -40.650  24.317  1.00  0.00    -0.496 OA
ATOM     21  C   UNL     1     -26.069 -39.940  24.165  1.00  0.00     0.278 C 
ENDBRANCH  17  20
ENDBRANCH   8  12
BRANCH  10  22
ATOM     22  C   UNL     1     -18.957 -42.106  26.684  1.00  0.00     0.004 A 
ATOM     23  C   UNL     1     -18.057 -42.358  25.644  1.00  0.00     0.049 A 
ATOM     24  C   UNL     1     -18.523 -42.198  28.012  1.00  0.00     0.049 A 
ATOM     25  C   UNL     1     -16.739 -42.694  25.947  1.00  0.00     0.126 A 
ATOM     26  C   UNL     1     -17.200 -42.536  28.283  1.00  0.00     0.126 A 
ATOM     27  C   UNL     1     -16.299 -42.786  27.259  1.00  0.00     0.078 A 
ATOM     28  F   UNL     1     -15.882 -42.936  24.946  1.00  0.00    -0.207 F 
ATOM     29  F   UNL     1     -16.790 -42.623  29.555  1.00  0.00    -0.207 F 
ENDBRANCH  10  22
ENDBRANCH   1   7
BRANCH   4  30
ATOM     30  S   UNL     1     -26.590 -37.698  29.382  1.00  0.00     0.238 S 
ATOM     31  O   UNL     1     -27.283 -38.580  30.291  1.00  0.00    -0.207 OA
ATOM     32  O   UNL     1     -27.281 -36.886  28.406  1.00  0.00    -0.207 OA
BRANCH  30  33
ATOM     33  N   UNL     1     -25.679 -36.620  30.304  1.00  0.00    -0.225 NA
ATOM     34  H   UNL     1     -24.675 -36.761  30.202  1.00  0.00     0.137 HD
ATOM     35  H   UNL     1     -25.955 -35.668  30.059  1.00  0.00     0.137 HD
ENDBRANCH  30  33
ENDBRANCH   4  30
TORSDOF 7
ENDMDL
MODEL 5
REMARK VINA RESULT:    -8.440      4.379      7.740
REMARK INTER + INTRA:         -13.103
REMARK INTER:                 -11.761
REMARK INTRA:                  -1.342
REMARK UNBOUND:                -1.455
REMARK SMILES COc1ccc(OC)c([C@H]2CC(c3cc(F)cc(F)c3)=NN2c2ccc(S(N)(=O)=O)cc2)c1
REMARK SMILES IDX 23 1 24 2 25 3 26 4 31 5 32 6 22 7 10 8 11 9 12 10 21 11
REMARK SMILES IDX 9 12 3 13 4 14 33 15 5 16 6 17 2 18 1 19 7 20 8 21 13 22
REMARK SMILES IDX 14 23 20 24 15 25 18 26 17 27 16 28 19 29 27 30 29 31 30 32
REMARK SMILES IDX 28 33
REMARK H PARENT 28 34 28 35
ROOT
ATOM      1  C   UNL     1     -18.944 -42.284  24.365  1.00  0.00     0.060 A 
ATOM      2  C   UNL     1     -17.754 -42.665  23.717  1.00  0.00     0.029 A 
ATOM      3  C   UNL     1     -16.571 -42.914  24.421  1.00  0.00     0.024 A 
ATOM      4  C   UNL     1     -16.565 -42.793  25.808  1.00  0.00     0.082 A 
ATOM      5  C   UNL     1     -17.720 -42.404  26.486  1.00  0.00     0.024 A 
ATOM      6  C   UNL     1     -18.894 -42.157  25.764  1.00  0.00     0.029 A 
ENDROOT
BRANCH   1   7
ATOM      7  N   UNL     1     -20.105 -42.042  23.634  1.00  0.00    -0.257 N 
ATOM      8  C   UNL     1     -21.408 -42.683  23.852  1.00  0.00     0.148 C 
ATOM      9  C   UNL     1     -22.180 -42.314  22.585  1.00  0.00     0.091 C 
ATOM     10  C   UNL     1     -21.260 -41.279  21.998  1.00  0.00     0.071 C 
ATOM     11  N   UNL     1     -20.103 -41.176  22.579  1.00  0.00    -0.176 NA
BRANCH   8  12
ATOM     12  C   UNL     1     -22.142 -42.184  25.093  1.00  0.00     0.023 A 
ATOM     13  C   UNL     1     -23.287 -40.397  26.314  1.00  0.00     0.119 A 
ATOM     14  C   UNL     1     -23.533 -41.280  27.360  1.00  0.00     0.050 A 
ATOM     15  C   UNL     1     -22.600 -40.855  25.187  1.00  0.00     0.056 A 
ATOM     16  C   UNL     1     -23.102 -42.609  27.279  1.00  0.00     0.050 A 
ATOM     17  C   UNL     1     -22.413 -43.071  26.152  1.00  0.00     0.124 A 
BRANCH  13  18
ATOM     18  O   UNL     1     -23.664 -39.085  26.262  1.00  0.00    -0.497 OA
ATOM     19  C   UNL     1     -23.871 -38.422  27.502  1.00  0.00     0.278 C 
ENDBRANCH  13  18
BRANCH  17  20
ATOM     20  O   UNL     1     -21.979 -44.360  25.981  1.00  0.00    -0.496 OA
ATOM     21  C   UNL     1     -21.393 -45.008  27.104  1.00  0.00     0.278 C 
ENDBRANCH  17  20
ENDBRANCH   8  12
BRANCH  10  22
ATOM     22  C   UNL     1     -21.643 -40.467  20.821  1.00  0.00     0.004 A 
ATOM     23  C   UNL     1     -21.257 -39.129  20.701  1.00  0.00     0.049 A 
ATOM     24  C   UNL     1     -22.412 -41.058  19.812  1.00  0.00     0.049 A 
ATOM     25  C   UNL     1     -21.642 -38.404  19.575  1.00  0.00     0.126 A 
ATOM     26  C   UNL     1     -22.782 -40.309  18.699  1.00  0.00     0.126 A 
ATOM     27  C   UNL     1     -22.403 -38.982  18.569  1.00  0.00     0.078 A 
ATOM     28  F   UNL     1     -21.270 -37.122  19.466  1.00  0.00    -0.207 F 
ATOM     29  F   UNL     1     -23.518 -40.880  17.736  1.00  0.00    -0.207 F 
ENDBRANCH  10  22
ENDBRANCH   1   7
BRANCH   4  30
ATOM     30  S   UNL     1     -15.081 -43.112  26.718  1.00  0.00     0.238 S 
ATOM     31  O   UNL     1     -15.437 -43.524  28.055  1.00  0.00    -0.207 OA
ATOM     32  O   UNL     1     -14.138 -42.049  26.455  1.00  0.00    -0.207 OA
BRANCH  30  33
ATOM     33  N   UNL     1     -14.479 -44.463  25.907  1.00  0.00    -0.225 NA
ATOM     34  H   UNL     1     -13.469 -44.563  25.999  1.00  0.00     0.137 HD
ATOM     35  H   UNL     1     -14.974 -45.291  26.243  1.00  0.00     0.137 HD
ENDBRANCH  30  33
ENDBRANCH   4  30
TORSDOF 7
ENDMDL
MODEL 6
REMARK VINA RESULT:    -8.402      4.408      7.595
REMARK INTER + INTRA:         -13.051
REMARK INTER:                 -11.631
REMARK INTRA:                  -1.419
REMARK UNBOUND:                -1.455
REMARK SMILES COc1ccc(OC)c([C@H]2CC(c3cc(F)cc(F)c3)=NN2c2ccc(S(N)(=O)=O)cc2)c1
REMARK SMILES IDX 23 1 24 2 25 3 26 4 31 5 32 6 22 7 10 8 11 9 12 10 21 11
REMARK SMILES IDX 9 12 3 13 4 14 33 15 5 16 6 17 2 18 1 19 7 20 8 21 13 22
REMARK SMILES IDX 14 23 20 24 15 25 18 26 17 27 16 28 19 29 27 30 29 31 30 32
REMARK SMILES IDX 28 33
REMARK H PARENT 28 34 28 35
ROOT
ATOM      1  C   UNL     1     -18.646 -42.380  24.167  1.00  0.00     0.060 A 
ATOM      2  C   UNL     1     -17.581 -42.539  23.260  1.00  0.00     0.029 A 
ATOM      3  C   UNL     1     -16.264 -42.737  23.688  1.00  0.00     0.024 A 
ATOM      4  C   UNL     1     -15.991 -42.790  25.051  1.00  0.00     0.082 A 
ATOM      5  C   UNL     1     -17.016 -42.622  25.982  1.00  0.00     0.024 A 
ATOM      6  C   UNL     1     -18.327 -42.422  25.536  1.00  0.00     0.029 A 
ENDROOT
BRANCH   1   7
ATOM      7  N   UNL     1     -19.947 -42.182  23.708  1.00  0.00    -0.257 N 
ATOM      8  C   UNL     1     -21.033 -43.170  23.753  1.00  0.00     0.148 C 
ATOM      9  C   UNL     1     -22.084 -42.553  22.828  1.00  0.00     0.091 C 
ATOM     10  C   UNL     1     -21.512 -41.174  22.649  1.00  0.00     0.071 C 
ATOM     11  N   UNL     1     -20.312 -41.009  23.115  1.00  0.00    -0.176 NA
BRANCH   8  12
ATOM     12  C   UNL     1     -21.609 -43.392  25.147  1.00  0.00     0.023 A 
ATOM     13  C   UNL     1     -22.697 -42.528  27.164  1.00  0.00     0.119 A 
ATOM     14  C   UNL     1     -22.711 -43.812  27.698  1.00  0.00     0.050 A 
ATOM     15  C   UNL     1     -22.153 -42.327  25.893  1.00  0.00     0.056 A 
ATOM     16  C   UNL     1     -22.192 -44.886  26.967  1.00  0.00     0.050 A 
ATOM     17  C   UNL     1     -21.646 -44.689  25.694  1.00  0.00     0.124 A 
BRANCH  13  18
ATOM     18  O   UNL     1     -23.182 -41.400  27.765  1.00  0.00    -0.497 OA
ATOM     19  C   UNL     1     -22.852 -40.155  27.165  1.00  0.00     0.278 C 
ENDBRANCH  13  18
BRANCH  17  20
ATOM     20  O   UNL     1     -21.140 -45.687  24.902  1.00  0.00    -0.496 OA
ATOM     21  C   UNL     1     -22.036 -46.711  24.486  1.00  0.00     0.278 C 
ENDBRANCH  17  20
ENDBRANCH   8  12
BRANCH  10  22
ATOM     22  C   UNL     1     -22.260 -40.100  21.956  1.00  0.00     0.004 A 
ATOM     23  C   UNL     1     -23.636 -39.936  22.136  1.00  0.00     0.049 A 
ATOM     24  C   UNL     1     -21.565 -39.236  21.101  1.00  0.00     0.049 A 
ATOM     25  C   UNL     1     -24.296 -38.911  21.462  1.00  0.00     0.126 A 
ATOM     26  C   UNL     1     -22.252 -38.221  20.441  1.00  0.00     0.126 A 
ATOM     27  C   UNL     1     -23.618 -38.048  20.614  1.00  0.00     0.078 A 
ATOM     28  F   UNL     1     -25.616 -38.759  21.637  1.00  0.00    -0.207 F 
ATOM     29  F   UNL     1     -21.583 -37.396  19.624  1.00  0.00    -0.207 F 
ENDBRANCH  10  22
ENDBRANCH   1   7
BRANCH   4  30
ATOM     30  S   UNL     1     -14.332 -43.048  25.612  1.00  0.00     0.238 S 
ATOM     31  O   UNL     1     -14.176 -42.420  26.903  1.00  0.00    -0.207 OA
ATOM     32  O   UNL     1     -13.427 -42.804  24.513  1.00  0.00    -0.207 OA
BRANCH  30  33
ATOM     33  N   UNL     1     -14.318 -44.718  25.848  1.00  0.00    -0.225 NA
ATOM     34  H   UNL     1     -14.406 -44.981  26.829  1.00  0.00     0.137 HD
ATOM     35  H   UNL     1     -15.056 -45.133  25.277  1.00  0.00     0.137 HD
ENDBRANCH  30  33
ENDBRANCH   4  30
TORSDOF 7
ENDMDL
MODEL 7
REMARK VINA RESULT:    -7.982      2.155      2.939
REMARK INTER + INTRA:         -12.471
REMARK INTER:                 -11.154
REMARK INTRA:                  -1.317
REMARK UNBOUND:                -1.455
REMARK SMILES COc1ccc(OC)c([C@H]2CC(c3cc(F)cc(F)c3)=NN2c2ccc(S(N)(=O)=O)cc2)c1
REMARK SMILES IDX 23 1 24 2 25 3 26 4 31 5 32 6 22 7 10 8 11 9 12 10 21 11
REMARK SMILES IDX 9 12 3 13 4 14 33 15 5 16 6 17 2 18 1 19 7 20 8 21 13 22
REMARK SMILES IDX 14 23 20 24 15 25 18 26 17 27 16 28 19 29 27 30 29 31 30 32
REMARK SMILES IDX 28 33
REMARK H PARENT 28 34 28 35
ROOT
ATOM      1  C   UNL     1     -21.322 -40.277  22.314  1.00  0.00     0.060 A 
ATOM      2  C   UNL     1     -20.805 -40.366  21.008  1.00  0.00     0.029 A 
ATOM      3  C   UNL     1     -21.270 -39.554  19.968  1.00  0.00     0.024 A 
ATOM      4  C   UNL     1     -22.268 -38.620  20.227  1.00  0.00     0.082 A 
ATOM      5  C   UNL     1     -22.817 -38.511  21.505  1.00  0.00     0.024 A 
ATOM      6  C   UNL     1     -22.341 -39.334  22.533  1.00  0.00     0.029 A 
ENDROOT
BRANCH   1   7
ATOM      7  N   UNL     1     -20.838 -41.102  23.328  1.00  0.00    -0.257 N 
ATOM      8  C   UNL     1     -21.653 -41.804  24.328  1.00  0.00     0.148 C 
ATOM      9  C   UNL     1     -20.611 -42.248  25.356  1.00  0.00     0.091 C 
ATOM     10  C   UNL     1     -19.343 -41.960  24.601  1.00  0.00     0.071 C 
ATOM     11  N   UNL     1     -19.497 -41.292  23.498  1.00  0.00    -0.176 NA
BRANCH   8  12
ATOM     12  C   UNL     1     -22.407 -43.008  23.774  1.00  0.00     0.023 A 
ATOM     13  C   UNL     1     -22.749 -44.685  22.022  1.00  0.00     0.119 A 
ATOM     14  C   UNL     1     -23.769 -45.255  22.777  1.00  0.00     0.050 A 
ATOM     15  C   UNL     1     -22.072 -43.573  22.527  1.00  0.00     0.056 A 
ATOM     16  C   UNL     1     -24.106 -44.721  24.026  1.00  0.00     0.050 A 
ATOM     17  C   UNL     1     -23.431 -43.606  24.533  1.00  0.00     0.124 A 
BRANCH  13  18
ATOM     18  O   UNL     1     -22.314 -45.116  20.801  1.00  0.00    -0.497 OA
ATOM     19  C   UNL     1     -21.742 -44.142  19.938  1.00  0.00     0.278 C 
ENDBRANCH  13  18
BRANCH  17  20
ATOM     20  O   UNL     1     -23.680 -43.037  25.755  1.00  0.00    -0.496 OA
ATOM     21  C   UNL     1     -24.382 -43.821  26.712  1.00  0.00     0.278 C 
ENDBRANCH  17  20
ENDBRANCH   8  12
BRANCH  10  22
ATOM     22  C   UNL     1     -18.017 -42.381  25.107  1.00  0.00     0.004 A 
ATOM     23  C   UNL     1     -16.998 -42.781  24.238  1.00  0.00     0.049 A 
ATOM     24  C   UNL     1     -17.788 -42.380  26.488  1.00  0.00     0.049 A 
ATOM     25  C   UNL     1     -15.767 -43.170  24.761  1.00  0.00     0.126 A 
ATOM     26  C   UNL     1     -16.548 -42.774  26.982  1.00  0.00     0.126 A 
ATOM     27  C   UNL     1     -15.529 -43.170  26.128  1.00  0.00     0.078 A 
ATOM     28  F   UNL     1     -14.794 -43.553  23.923  1.00  0.00    -0.207 F 
ATOM     29  F   UNL     1     -16.333 -42.771  28.304  1.00  0.00    -0.207 F 
ENDBRANCH  10  22
ENDBRANCH   1   7
BRANCH   4  30
ATOM     30  S   UNL     1     -22.864 -37.578  18.926  1.00  0.00     0.238 S 
ATOM     31  O   UNL     1     -24.307 -37.642  18.905  1.00  0.00    -0.207 OA
ATOM     32  O   UNL     1     -22.057 -37.799  17.748  1.00  0.00    -0.207 OA
BRANCH  30  33
ATOM     33  N   UNL     1     -22.426 -36.053  19.496  1.00  0.00    -0.225 NA
ATOM     34  H   UNL     1     -23.061 -35.698  20.210  1.00  0.00     0.137 HD
ATOM     35  H   UNL     1     -21.463 -36.096  19.834  1.00  0.00     0.137 HD
ENDBRANCH  30  33
ENDBRANCH   4  30
TORSDOF 7
ENDMDL
MODEL 8
REMARK VINA RESULT:    -7.847      3.316      6.175
REMARK INTER + INTRA:         -12.284
REMARK INTER:                 -10.889
REMARK INTRA:                  -1.394
REMARK UNBOUND:                -1.455
REMARK SMILES COc1ccc(OC)c([C@H]2CC(c3cc(F)cc(F)c3)=NN2c2ccc(S(N)(=O)=O)cc2)c1
REMARK SMILES IDX 23 1 24 2 25 3 26 4 31 5 32 6 22 7 10 8 11 9 12 10 21 11
REMARK SMILES IDX 9 12 3 13 4 14 33 15 5 16 6 17 2 18 1 19 7 20 8 21 13 22
REMARK SMILES IDX 14 23 20 24 15 25 18 26 17 27 16 28 19 29 27 30 29 31 30 32
REMARK SMILES IDX 28 33
REMARK H PARENT 28 34 28 35
ROOT
ATOM      1  C   UNL     1     -22.760 -40.268  25.739  1.00  0.00     0.060 A 
ATOM      2  C   UNL     1     -23.607 -39.219  25.336  1.00  0.00     0.029 A 
ATOM      3  C   UNL     1     -24.470 -38.574  26.228  1.00  0.00     0.024 A 
ATOM      4  C   UNL     1     -24.489 -38.970  27.562  1.00  0.00     0.082 A 
ATOM      5  C   UNL     1     -23.676 -40.016  27.999  1.00  0.00     0.024 A 
ATOM      6  C   UNL     1     -22.821 -40.651  27.091  1.00  0.00     0.029 A 
ENDROOT
BRANCH   1   7
ATOM      7  N   UNL     1     -21.913 -40.891  24.824  1.00  0.00    -0.257 N 
ATOM      8  C   UNL     1     -22.336 -41.640  23.634  1.00  0.00     0.148 C 
ATOM      9  C   UNL     1     -21.055 -42.368  23.224  1.00  0.00     0.091 C 
ATOM     10  C   UNL     1     -20.053 -41.669  24.100  1.00  0.00     0.071 C 
ATOM     11  N   UNL     1     -20.560 -40.883  25.001  1.00  0.00    -0.176 NA
BRANCH   8  12
ATOM     12  C   UNL     1     -22.841 -40.759  22.496  1.00  0.00     0.023 A 
ATOM     13  C   UNL     1     -22.420 -39.123  20.723  1.00  0.00     0.119 A 
ATOM     14  C   UNL     1     -23.764 -39.171  20.370  1.00  0.00     0.050 A 
ATOM     15  C   UNL     1     -21.966 -39.920  21.776  1.00  0.00     0.056 A 
ATOM     16  C   UNL     1     -24.646 -40.011  21.060  1.00  0.00     0.050 A 
ATOM     17  C   UNL     1     -24.196 -40.809  22.116  1.00  0.00     0.124 A 
BRANCH  13  18
ATOM     18  O   UNL     1     -21.457 -38.361  20.124  1.00  0.00    -0.497 OA
ATOM     19  C   UNL     1     -20.256 -39.020  19.743  1.00  0.00     0.278 C 
ENDBRANCH  13  18
BRANCH  17  20
ATOM     20  O   UNL     1     -24.985 -41.676  22.827  1.00  0.00    -0.496 OA
ATOM     21  C   UNL     1     -26.266 -41.210  23.236  1.00  0.00     0.278 C 
ENDBRANCH  17  20
ENDBRANCH   8  12
BRANCH  10  22
ATOM     22  C   UNL     1     -18.597 -41.894  23.960  1.00  0.00     0.004 A 
ATOM     23  C   UNL     1     -17.889 -41.424  22.850  1.00  0.00     0.049 A 
ATOM     24  C   UNL     1     -17.921 -42.599  24.964  1.00  0.00     0.049 A 
ATOM     25  C   UNL     1     -16.519 -41.662  22.762  1.00  0.00     0.126 A 
ATOM     26  C   UNL     1     -16.552 -42.821  24.848  1.00  0.00     0.126 A 
ATOM     27  C   UNL     1     -15.840 -42.357  23.751  1.00  0.00     0.078 A 
ATOM     28  F   UNL     1     -15.846 -41.210  21.695  1.00  0.00    -0.207 F 
ATOM     29  F   UNL     1     -15.910 -43.496  25.811  1.00  0.00    -0.207 F 
ENDBRANCH  10  22
ENDBRANCH   1   7
BRANCH   4  30
ATOM     30  S   UNL     1     -25.567 -38.162  28.710  1.00  0.00     0.238 S 
ATOM     31  O   UNL     1     -25.703 -38.993  29.883  1.00  0.00    -0.207 OA
ATOM     32  O   UNL     1     -26.706 -37.641  27.989  1.00  0.00    -0.207 OA
BRANCH  30  33
ATOM     33  N   UNL     1     -24.647 -36.815  29.137  1.00  0.00    -0.225 NA
ATOM     34  H   UNL     1     -23.671 -37.044  29.322  1.00  0.00     0.137 HD
ATOM     35  H   UNL     1     -24.738 -36.112  28.401  1.00  0.00     0.137 HD
ENDBRANCH  30  33
ENDBRANCH   4  30
TORSDOF 7
ENDMDL
MODEL 9
REMARK VINA RESULT:    -7.775      4.318      7.951
REMARK INTER + INTRA:         -12.185
REMARK INTER:                 -10.712
REMARK INTRA:                  -1.473
REMARK UNBOUND:                -1.455
REMARK SMILES COc1ccc(OC)c([C@H]2CC(c3cc(F)cc(F)c3)=NN2c2ccc(S(N)(=O)=O)cc2)c1
REMARK SMILES IDX 23 1 24 2 25 3 26 4 31 5 32 6 22 7 10 8 11 9 12 10 21 11
REMARK SMILES IDX 9 12 3 13 4 14 33 15 5 16 6 17 2 18 1 19 7 20 8 21 13 22
REMARK SMILES IDX 14 23 20 24 15 25 18 26 17 27 16 28 19 29 27 30 29 31 30 32
REMARK SMILES IDX 28 33
REMARK H PARENT 28 34 28 35
ROOT
ATOM      1  C   UNL     1     -22.313 -44.087  24.684  1.00  0.00     0.060 A 
ATOM      2  C   UNL     1     -23.041 -44.116  23.480  1.00  0.00     0.029 A 
ATOM      3  C   UNL     1     -23.279 -45.305  22.783  1.00  0.00     0.024 A 
ATOM      4  C   UNL     1     -22.791 -46.504  23.295  1.00  0.00     0.082 A 
ATOM      5  C   UNL     1     -22.052 -46.515  24.478  1.00  0.00     0.024 A 
ATOM      6  C   UNL     1     -21.823 -45.315  25.161  1.00  0.00     0.029 A 
ENDROOT
BRANCH   1   7
ATOM      7  N   UNL     1     -22.092 -42.884  25.353  1.00  0.00    -0.257 N 
ATOM      8  C   UNL     1     -20.783 -42.272  25.612  1.00  0.00     0.148 C 
ATOM      9  C   UNL     1     -21.115 -41.196  26.647  1.00  0.00     0.091 C 
ATOM     10  C   UNL     1     -22.617 -41.204  26.575  1.00  0.00     0.071 C 
ATOM     11  N   UNL     1     -23.131 -42.173  25.880  1.00  0.00    -0.176 NA
BRANCH   8  12
ATOM     12  C   UNL     1     -20.138 -41.649  24.378  1.00  0.00     0.023 A 
ATOM     13  C   UNL     1     -20.185 -40.038  22.535  1.00  0.00     0.119 A 
ATOM     14  C   UNL     1     -18.926 -40.472  22.133  1.00  0.00     0.050 A 
ATOM     15  C   UNL     1     -20.779 -40.623  23.655  1.00  0.00     0.056 A 
ATOM     16  C   UNL     1     -18.264 -41.477  22.848  1.00  0.00     0.050 A 
ATOM     17  C   UNL     1     -18.856 -42.066  23.969  1.00  0.00     0.124 A 
BRANCH  13  18
ATOM     18  O   UNL     1     -20.928 -39.060  21.937  1.00  0.00    -0.497 OA
ATOM     19  C   UNL     1     -20.856 -38.968  20.520  1.00  0.00     0.278 C 
ENDBRANCH  13  18
BRANCH  17  20
ATOM     20  O   UNL     1     -18.269 -43.037  24.739  1.00  0.00    -0.496 OA
ATOM     21  C   UNL     1     -16.995 -42.744  25.302  1.00  0.00     0.278 C 
ENDBRANCH  17  20
ENDBRANCH   8  12
BRANCH  10  22
ATOM     22  C   UNL     1     -23.441 -40.197  27.280  1.00  0.00     0.004 A 
ATOM     23  C   UNL     1     -23.563 -38.889  26.802  1.00  0.00     0.049 A 
ATOM     24  C   UNL     1     -24.107 -40.568  28.454  1.00  0.00     0.049 A 
ATOM     25  C   UNL     1     -24.349 -37.975  27.500  1.00  0.00     0.126 A 
ATOM     26  C   UNL     1     -24.886 -39.634  29.131  1.00  0.00     0.126 A 
ATOM     27  C   UNL     1     -25.014 -38.334  28.663  1.00  0.00     0.078 A 
ATOM     28  F   UNL     1     -24.461 -36.723  27.037  1.00  0.00    -0.207 F 
ATOM     29  F   UNL     1     -25.521 -39.995  30.254  1.00  0.00    -0.207 F 
ENDBRANCH  10  22
ENDBRANCH   1   7
BRANCH   4  30
ATOM     30  S   UNL     1     -23.088 -48.020  22.433  1.00  0.00     0.238 S 
ATOM     31  O   UNL     1     -23.081 -47.755  21.013  1.00  0.00    -0.207 OA
ATOM     32  O   UNL     1     -24.167 -48.724  23.088  1.00  0.00    -0.207 OA
BRANCH  30  33
ATOM     33  N   UNL     1     -21.691 -48.890  22.801  1.00  0.00    -0.225 NA
ATOM     34  H   UNL     1     -21.840 -49.591  23.526  1.00  0.00     0.137 HD
ATOM     35  H   UNL     1     -21.330 -49.305  21.941  1.00  0.00     0.137 HD
ENDBRANCH  30  33
ENDBRANCH   4  30
TORSDOF 7
ENDMDL
