MODEL 1
REMARK VINA RESULT:   -10.688      0.000      0.000
REMARK INTER + INTRA:         -17.081
REMARK INTER:                 -16.311
REMARK INTRA:                  -0.770
REMARK UNBOUND:                -0.770
REMARK SMILES COc1cc2c(cc1OC)S[C@@H](C(=O)CCc1cc[n+](Cc3coc([N+](=O)[O-])c3)cc1)C2
REMARK SMILES IDX 16 1 15 2 13 3 14 4 12 5 3 6 4 7 8 8 5 9 7 10 6 11 32 12
REMARK SMILES IDX 11 13 2 14 1 15 9 16 10 17 17 18 18 19 31 20 19 21 30 22
REMARK SMILES IDX 20 23 21 24 22 25 23 26 29 27 24 28 25 29 26 30 27 31 28 32
REMARK H PARENT
ROOT
ATOM      1  C   UNL     1     -14.145 -44.533  26.355  1.00  0.00     0.044 C 
ENDROOT
BRANCH   1   2
ATOM      2  C   UNL     1     -15.207 -43.514  26.375  1.00  0.00     0.081 C 
BRANCH   2   3
ATOM      3  C   UNL     1     -15.211 -43.060  24.913  1.00  0.00     0.146 C 
ATOM      4  O   UNL     1     -14.118 -43.315  24.272  1.00  0.00    -0.298 OA
BRANCH   3   5
ATOM      5  C   UNL     1     -16.349 -42.433  24.378  1.00  0.00     0.123 C 
ATOM      6  C   UNL     1     -19.531 -40.005  21.929  1.00  0.00     0.161 A 
ATOM      7  C   UNL     1     -18.318 -40.626  21.876  1.00  0.00     0.055 A 
ATOM      8  C   UNL     1     -20.434 -40.385  22.904  1.00  0.00     0.161 A 
ATOM      9  C   UNL     1     -17.969 -41.622  22.793  1.00  0.00    -0.029 A 
ATOM     10  C   UNL     1     -20.148 -41.401  23.852  1.00  0.00     0.065 A 
ATOM     11  C   UNL     1     -18.877 -41.942  23.704  1.00  0.00     0.015 A 
ATOM     12  C   UNL     1     -16.703 -42.339  22.910  1.00  0.00     0.059 C 
ATOM     13  S   UNL     1     -17.965 -42.666  25.131  1.00  0.00    -0.114 SA
BRANCH   6  14
ATOM     14  O   UNL     1     -19.935 -38.975  21.094  1.00  0.00    -0.493 OA
ATOM     15  C   UNL     1     -20.208 -39.221  19.736  1.00  0.00     0.278 C 
ENDBRANCH   6  14
BRANCH   8  16
ATOM     16  O   UNL     1     -21.669 -39.763  23.018  1.00  0.00    -0.493 OA
ATOM     17  C   UNL     1     -22.775 -40.434  22.463  1.00  0.00     0.278 C 
ENDBRANCH   8  16
ENDBRANCH   3   5
ENDBRANCH   2   3
ENDBRANCH   1   2
BRANCH   1  18
ATOM     18  C   UNL     1     -13.224 -44.883  27.388  1.00  0.00    -0.036 A 
ATOM     19  C   UNL     1     -12.511 -46.052  27.503  1.00  0.00     0.074 A 
ATOM     20  C   UNL     1     -13.428 -44.053  28.571  1.00  0.00     0.074 A 
ATOM     21  C   UNL     1     -11.941 -46.520  28.714  1.00  0.00     0.308 A 
ATOM     22  C   UNL     1     -12.842 -44.559  29.710  1.00  0.00     0.308 A 
ATOM     23  N   UNL     1     -12.142 -45.735  29.752  1.00  0.00    -0.201 N 
BRANCH  23  24
ATOM     24  C   UNL     1     -12.025 -46.180  31.170  1.00  0.00     0.397 C 
BRANCH  24  25
ATOM     25  C   UNL     1     -10.494 -45.803  31.425  1.00  0.00     0.063 A 
ATOM     26  C   UNL     1      -9.388 -46.537  31.132  1.00  0.00     0.213 A 
ATOM     27  C   UNL     1     -10.039 -44.598  31.869  1.00  0.00     0.143 A 
ATOM     28  O   UNL     1      -8.368 -45.781  31.404  1.00  0.00    -0.409 OA
ATOM     29  C   UNL     1      -8.667 -44.612  31.837  1.00  0.00     0.433 A 
BRANCH  29  30
ATOM     30  N   UNL     1      -7.779 -43.525  32.223  1.00  0.00     0.102 N 
ATOM     31  O   UNL     1      -7.170 -42.924  31.363  1.00  0.00    -0.256 OA
ATOM     32  O   UNL     1      -7.661 -43.118  33.530  1.00  0.00    -0.256 OA
ENDBRANCH  29  30
ENDBRANCH  24  25
ENDBRANCH  23  24
ENDBRANCH   1  18
TORSDOF 9
ENDMDL
MODEL 2
REMARK VINA RESULT:   -10.585      4.104     10.933
REMARK INTER + INTRA:         -16.924
REMARK INTER:                 -16.258
REMARK INTRA:                  -0.666
REMARK UNBOUND:                -0.770
REMARK SMILES COc1cc2c(cc1OC)S[C@@H](C(=O)CCc1cc[n+](Cc3coc([N+](=O)[O-])c3)cc1)C2
REMARK SMILES IDX 16 1 15 2 13 3 14 4 12 5 3 6 4 7 8 8 5 9 7 10 6 11 32 12
REMARK SMILES IDX 11 13 2 14 1 15 9 16 10 17 17 18 18 19 31 20 19 21 30 22
REMARK SMILES IDX 20 23 21 24 22 25 23 26 29 27 24 28 25 29 26 30 27 31 28 32
REMARK H PARENT
ROOT
ATOM      1  C   UNL     1     -12.934 -45.175  27.184  1.00  0.00     0.044 C 
ENDROOT
BRANCH   1   2
ATOM      2  C   UNL     1     -12.500 -46.556  27.449  1.00  0.00     0.081 C 
BRANCH   2   3
ATOM      3  C   UNL     1     -11.301 -46.320  28.373  1.00  0.00     0.146 C 
ATOM      4  O   UNL     1     -10.221 -46.929  28.009  1.00  0.00    -0.298 OA
BRANCH   3   5
ATOM      5  C   UNL     1     -11.437 -45.489  29.497  1.00  0.00     0.123 C 
ATOM      6  C   UNL     1     -12.837 -42.810  33.086  1.00  0.00     0.161 A 
ATOM      7  C   UNL     1     -13.196 -43.816  32.238  1.00  0.00     0.055 A 
ATOM      8  C   UNL     1     -11.494 -42.572  33.311  1.00  0.00     0.161 A 
ATOM      9  C   UNL     1     -12.235 -44.595  31.584  1.00  0.00    -0.029 A 
ATOM     10  C   UNL     1     -10.472 -43.339  32.693  1.00  0.00     0.065 A 
ATOM     11  C   UNL     1     -10.965 -44.318  31.841  1.00  0.00     0.015 A 
ATOM     12  C   UNL     1     -12.447 -45.661  30.611  1.00  0.00     0.059 C 
ATOM     13  S   UNL     1      -9.989 -44.923  30.400  1.00  0.00    -0.114 SA
BRANCH   6  14
ATOM     14  O   UNL     1     -13.722 -41.960  33.731  1.00  0.00    -0.493 OA
ATOM     15  C   UNL     1     -15.016 -41.752  33.220  1.00  0.00     0.278 C 
ENDBRANCH   6  14
BRANCH   8  16
ATOM     16  O   UNL     1     -11.078 -41.542  34.142  1.00  0.00    -0.493 OA
ATOM     17  C   UNL     1      -9.858 -41.723  34.821  1.00  0.00     0.278 C 
ENDBRANCH   8  16
ENDBRANCH   3   5
ENDBRANCH   2   3
ENDBRANCH   1   2
BRANCH   1  18
ATOM     18  C   UNL     1     -14.050 -44.721  26.419  1.00  0.00    -0.036 A 
ATOM     19  C   UNL     1     -14.185 -44.747  25.052  1.00  0.00     0.074 A 
ATOM     20  C   UNL     1     -14.881 -43.810  27.200  1.00  0.00     0.074 A 
ATOM     21  C   UNL     1     -15.097 -43.939  24.327  1.00  0.00     0.308 A 
ATOM     22  C   UNL     1     -15.750 -43.062  26.438  1.00  0.00     0.308 A 
ATOM     23  N   UNL     1     -15.832 -43.141  25.073  1.00  0.00    -0.201 N 
BRANCH  23  24
ATOM     24  C   UNL     1     -16.536 -41.931  24.559  1.00  0.00     0.397 C 
BRANCH  24  25
ATOM     25  C   UNL     1     -18.035 -42.338  24.929  1.00  0.00     0.063 A 
ATOM     26  C   UNL     1     -18.896 -43.112  24.216  1.00  0.00     0.213 A 
ATOM     27  C   UNL     1     -18.658 -42.073  26.111  1.00  0.00     0.143 A 
ATOM     28  O   UNL     1     -19.947 -43.266  24.962  1.00  0.00    -0.409 OA
ATOM     29  C   UNL     1     -19.883 -42.690  26.105  1.00  0.00     0.433 A 
BRANCH  29  30
ATOM     30  N   UNL     1     -20.871 -42.669  27.175  1.00  0.00     0.102 N 
ATOM     31  O   UNL     1     -20.828 -43.521  28.037  1.00  0.00    -0.256 OA
ATOM     32  O   UNL     1     -21.812 -41.671  27.270  1.00  0.00    -0.256 OA
ENDBRANCH  29  30
ENDBRANCH  24  25
ENDBRANCH  23  24
ENDBRANCH   1  18
TORSDOF 9
ENDMDL
MODEL 3
REMARK VINA RESULT:   -10.552      2.187      3.445
REMARK INTER + INTRA:         -16.875
REMARK INTER:                 -16.779
REMARK INTRA:                  -0.095
REMARK UNBOUND:                -0.770
REMARK SMILES COc1cc2c(cc1OC)S[C@@H](C(=O)CCc1cc[n+](Cc3coc([N+](=O)[O-])c3)cc1)C2
REMARK SMILES IDX 16 1 15 2 13 3 14 4 12 5 3 6 4 7 8 8 5 9 7 10 6 11 32 12
REMARK SMILES IDX 11 13 2 14 1 15 9 16 10 17 17 18 18 19 31 20 19 21 30 22
REMARK SMILES IDX 20 23 21 24 22 25 23 26 29 27 24 28 25 29 26 30 27 31 28 32
REMARK H PARENT
ROOT
ATOM      1  C   UNL     1     -13.794 -45.131  28.359  1.00  0.00     0.044 C 
ENDROOT
BRANCH   1   2
ATOM      2  C   UNL     1     -13.710 -45.111  26.890  1.00  0.00     0.081 C 
BRANCH   2   3
ATOM      3  C   UNL     1     -14.092 -43.658  26.589  1.00  0.00     0.146 C 
ATOM      4  O   UNL     1     -13.192 -42.791  26.919  1.00  0.00    -0.298 OA
BRANCH   3   5
ATOM      5  C   UNL     1     -15.331 -43.370  25.994  1.00  0.00     0.123 C 
ATOM      6  C   UNL     1     -19.825 -42.613  24.878  1.00  0.00     0.161 A 
ATOM      7  C   UNL     1     -18.920 -42.655  25.897  1.00  0.00     0.055 A 
ATOM      8  C   UNL     1     -19.372 -42.395  23.590  1.00  0.00     0.161 A 
ATOM      9  C   UNL     1     -17.550 -42.500  25.662  1.00  0.00    -0.029 A 
ATOM     10  C   UNL     1     -17.997 -42.211  23.288  1.00  0.00     0.065 A 
ATOM     11  C   UNL     1     -17.179 -42.295  24.406  1.00  0.00     0.015 A 
ATOM     12  C   UNL     1     -16.455 -42.576  26.623  1.00  0.00     0.059 C 
ATOM     13  S   UNL     1     -15.423 -42.840  24.278  1.00  0.00    -0.114 SA
BRANCH   6  14
ATOM     14  O   UNL     1     -21.190 -42.810  25.017  1.00  0.00    -0.493 OA
ATOM     15  C   UNL     1     -21.737 -43.179  26.260  1.00  0.00     0.278 C 
ENDBRANCH   6  14
BRANCH   8  16
ATOM     16  O   UNL     1     -20.250 -42.373  22.516  1.00  0.00    -0.493 OA
ATOM     17  C   UNL     1     -20.116 -41.308  21.605  1.00  0.00     0.278 C 
ENDBRANCH   8  16
ENDBRANCH   3   5
ENDBRANCH   2   3
ENDBRANCH   1   2
BRANCH   1  18
ATOM     18  C   UNL     1     -12.880 -45.695  29.298  1.00  0.00    -0.036 A 
ATOM     19  C   UNL     1     -12.803 -45.429  30.644  1.00  0.00     0.074 A 
ATOM     20  C   UNL     1     -11.725 -46.273  28.618  1.00  0.00     0.074 A 
ATOM     21  C   UNL     1     -11.659 -45.684  31.441  1.00  0.00     0.308 A 
ATOM     22  C   UNL     1     -10.652 -46.504  29.450  1.00  0.00     0.308 A 
ATOM     23  N   UNL     1     -10.645 -46.214  30.789  1.00  0.00    -0.201 N 
BRANCH  23  24
ATOM     24  C   UNL     1      -9.235 -46.187  31.271  1.00  0.00     0.397 C 
BRANCH  24  25
ATOM     25  C   UNL     1      -8.816 -44.740  30.740  1.00  0.00     0.063 A 
ATOM     26  C   UNL     1      -7.852 -43.913  31.224  1.00  0.00     0.213 A 
ATOM     27  C   UNL     1      -9.283 -44.149  29.605  1.00  0.00     0.143 A 
ATOM     28  O   UNL     1      -7.789 -42.910  30.404  1.00  0.00    -0.409 OA
ATOM     29  C   UNL     1      -8.598 -42.976  29.412  1.00  0.00     0.433 A 
BRANCH  29  30
ATOM     30  N   UNL     1      -8.780 -42.035  28.315  1.00  0.00     0.102 N 
ATOM     31  O   UNL     1      -7.807 -41.624  27.721  1.00  0.00    -0.256 OA
ATOM     32  O   UNL     1     -10.030 -41.650  27.893  1.00  0.00    -0.256 OA
ENDBRANCH  29  30
ENDBRANCH  24  25
ENDBRANCH  23  24
ENDBRANCH   1  18
TORSDOF 9
ENDMDL
MODEL 4
REMARK VINA RESULT:   -10.523      2.404      3.512
REMARK INTER + INTRA:         -16.830
REMARK INTER:                 -15.801
REMARK INTRA:                  -1.030
REMARK UNBOUND:                -0.770
REMARK SMILES COc1cc2c(cc1OC)S[C@@H](C(=O)CCc1cc[n+](Cc3coc([N+](=O)[O-])c3)cc1)C2
REMARK SMILES IDX 16 1 15 2 13 3 14 4 12 5 3 6 4 7 8 8 5 9 7 10 6 11 32 12
REMARK SMILES IDX 11 13 2 14 1 15 9 16 10 17 17 18 18 19 31 20 19 21 30 22
REMARK SMILES IDX 20 23 21 24 22 25 23 26 29 27 24 28 25 29 26 30 27 31 28 32
REMARK H PARENT
ROOT
ATOM      1  C   UNL     1     -13.979 -44.117  26.100  1.00  0.00     0.044 C 
ENDROOT
BRANCH   1   2
ATOM      2  C   UNL     1     -14.404 -42.745  25.780  1.00  0.00     0.081 C 
BRANCH   2   3
ATOM      3  C   UNL     1     -15.471 -43.004  24.713  1.00  0.00     0.146 C 
ATOM      4  O   UNL     1     -15.000 -43.365  23.565  1.00  0.00    -0.298 OA
BRANCH   3   5
ATOM      5  C   UNL     1     -16.830 -42.851  25.032  1.00  0.00     0.123 C 
ATOM      6  C   UNL     1     -21.120 -42.758  26.930  1.00  0.00     0.161 A 
ATOM      7  C   UNL     1     -19.783 -42.807  27.195  1.00  0.00     0.055 A 
ATOM      8  C   UNL     1     -21.543 -42.242  25.720  1.00  0.00     0.161 A 
ATOM      9  C   UNL     1     -18.839 -42.363  26.263  1.00  0.00    -0.029 A 
ATOM     10  C   UNL     1     -20.637 -41.758  24.740  1.00  0.00     0.065 A 
ATOM     11  C   UNL     1     -19.308 -41.880  25.121  1.00  0.00     0.015 A 
ATOM     12  C   UNL     1     -17.384 -42.400  26.365  1.00  0.00     0.059 C 
ATOM     13  S   UNL     1     -17.960 -42.060  23.878  1.00  0.00    -0.114 SA
BRANCH   6  14
ATOM     14  O   UNL     1     -22.117 -43.225  27.774  1.00  0.00    -0.493 OA
ATOM     15  C   UNL     1     -22.263 -44.604  28.014  1.00  0.00     0.278 C 
ENDBRANCH   6  14
BRANCH   8  16
ATOM     16  O   UNL     1     -22.891 -42.198  25.391  1.00  0.00    -0.493 OA
ATOM     17  C   UNL     1     -23.284 -42.875  24.222  1.00  0.00     0.278 C 
ENDBRANCH   8  16
ENDBRANCH   3   5
ENDBRANCH   2   3
ENDBRANCH   1   2
BRANCH   1  18
ATOM     18  C   UNL     1     -13.979 -44.780  27.364  1.00  0.00    -0.036 A 
ATOM     19  C   UNL     1     -14.491 -44.308  28.548  1.00  0.00     0.074 A 
ATOM     20  C   UNL     1     -12.985 -45.849  27.392  1.00  0.00     0.074 A 
ATOM     21  C   UNL     1     -14.119 -44.797  29.827  1.00  0.00     0.308 A 
ATOM     22  C   UNL     1     -12.676 -46.284  28.660  1.00  0.00     0.308 A 
ATOM     23  N   UNL     1     -13.227 -45.766  29.802  1.00  0.00    -0.201 N 
BRANCH  23  24
ATOM     24  C   UNL     1     -12.380 -46.151  30.967  1.00  0.00     0.397 C 
BRANCH  24  25
ATOM     25  C   UNL     1     -11.369 -44.915  30.961  1.00  0.00     0.063 A 
ATOM     26  C   UNL     1     -11.392 -43.807  31.747  1.00  0.00     0.213 A 
ATOM     27  C   UNL     1     -10.218 -44.838  30.236  1.00  0.00     0.143 A 
ATOM     28  O   UNL     1     -10.311 -43.143  31.471  1.00  0.00    -0.409 OA
ATOM     29  C   UNL     1      -9.556 -43.691  30.592  1.00  0.00     0.433 A 
BRANCH  29  30
ATOM     30  N   UNL     1      -8.282 -43.225  30.062  1.00  0.00     0.102 N 
ATOM     31  O   UNL     1      -7.267 -43.821  30.351  1.00  0.00    -0.256 OA
ATOM     32  O   UNL     1      -8.206 -42.164  29.191  1.00  0.00    -0.256 OA
ENDBRANCH  29  30
ENDBRANCH  24  25
ENDBRANCH  23  24
ENDBRANCH   1  18
TORSDOF 9
ENDMDL
MODEL 5
REMARK VINA RESULT:   -10.508      2.544      3.742
REMARK INTER + INTRA:         -16.807
REMARK INTER:                 -15.948
REMARK INTRA:                  -0.859
REMARK UNBOUND:                -0.770
REMARK SMILES COc1cc2c(cc1OC)S[C@@H](C(=O)CCc1cc[n+](Cc3coc([N+](=O)[O-])c3)cc1)C2
REMARK SMILES IDX 16 1 15 2 13 3 14 4 12 5 3 6 4 7 8 8 5 9 7 10 6 11 32 12
REMARK SMILES IDX 11 13 2 14 1 15 9 16 10 17 17 18 18 19 31 20 19 21 30 22
REMARK SMILES IDX 20 23 21 24 22 25 23 26 29 27 24 28 25 29 26 30 27 31 28 32
REMARK H PARENT
ROOT
ATOM      1  C   UNL     1     -13.756 -45.014  27.838  1.00  0.00     0.044 C 
ENDROOT
BRANCH   1   2
ATOM      2  C   UNL     1     -13.884 -44.707  26.405  1.00  0.00     0.081 C 
BRANCH   2   3
ATOM      3  C   UNL     1     -14.505 -43.307  26.455  1.00  0.00     0.146 C 
ATOM      4  O   UNL     1     -13.647 -42.348  26.578  1.00  0.00    -0.298 OA
BRANCH   3   5
ATOM      5  C   UNL     1     -15.898 -43.156  26.359  1.00  0.00     0.123 C 
ATOM      6  C   UNL     1     -20.538 -42.848  26.985  1.00  0.00     0.161 A 
ATOM      7  C   UNL     1     -19.322 -42.764  27.596  1.00  0.00     0.055 A 
ATOM      8  C   UNL     1     -20.616 -42.650  25.620  1.00  0.00     0.161 A 
ATOM      9  C   UNL     1     -18.157 -42.500  26.867  1.00  0.00    -0.029 A 
ATOM     10  C   UNL     1     -19.475 -42.361  24.827  1.00  0.00     0.065 A 
ATOM     11  C   UNL     1     -18.297 -42.321  25.561  1.00  0.00     0.015 A 
ATOM     12  C   UNL     1     -16.783 -42.436  27.353  1.00  0.00     0.059 C 
ATOM     13  S   UNL     1     -16.668 -42.716  24.795  1.00  0.00    -0.114 SA
BRANCH   6  14
ATOM     14  O   UNL     1     -21.729 -43.156  27.624  1.00  0.00    -0.493 OA
ATOM     15  C   UNL     1     -22.032 -44.486  27.970  1.00  0.00     0.278 C 
ENDBRANCH   6  14
BRANCH   8  16
ATOM     16  O   UNL     1     -21.826 -42.755  24.948  1.00  0.00    -0.493 OA
ATOM     17  C   UNL     1     -22.015 -43.898  24.149  1.00  0.00     0.278 C 
ENDBRANCH   8  16
ENDBRANCH   3   5
ENDBRANCH   2   3
ENDBRANCH   1   2
BRANCH   1  18
ATOM     18  C   UNL     1     -12.639 -44.800  28.701  1.00  0.00    -0.036 A 
ATOM     19  C   UNL     1     -11.485 -44.113  28.409  1.00  0.00     0.074 A 
ATOM     20  C   UNL     1     -12.640 -45.758  29.802  1.00  0.00     0.074 A 
ATOM     21  C   UNL     1     -10.267 -44.266  29.119  1.00  0.00     0.308 A 
ATOM     22  C   UNL     1     -11.431 -45.851  30.455  1.00  0.00     0.308 A 
ATOM     23  N   UNL     1     -10.318 -45.133  30.109  1.00  0.00    -0.201 N 
BRANCH  23  24
ATOM     24  C   UNL     1      -9.118 -45.774  30.719  1.00  0.00     0.397 C 
BRANCH  24  25
ATOM     25  C   UNL     1      -8.681 -44.599  31.709  1.00  0.00     0.063 A 
ATOM     26  C   UNL     1      -7.523 -43.888  31.710  1.00  0.00     0.213 A 
ATOM     27  C   UNL     1      -9.478 -44.022  32.651  1.00  0.00     0.143 A 
ATOM     28  O   UNL     1      -7.666 -42.964  32.611  1.00  0.00    -0.409 OA
ATOM     29  C   UNL     1      -8.799 -42.968  33.208  1.00  0.00     0.433 A 
BRANCH  29  30
ATOM     30  N   UNL     1      -9.286 -42.076  34.252  1.00  0.00     0.102 N 
ATOM     31  O   UNL     1      -8.655 -41.970  35.281  1.00  0.00    -0.256 OA
ATOM     32  O   UNL     1     -10.409 -41.303  34.076  1.00  0.00    -0.256 OA
ENDBRANCH  29  30
ENDBRANCH  24  25
ENDBRANCH  23  24
ENDBRANCH   1  18
TORSDOF 9
ENDMDL
MODEL 6
REMARK VINA RESULT:   -10.437      2.140      3.155
REMARK INTER + INTRA:         -16.699
REMARK INTER:                 -15.919
REMARK INTRA:                  -0.780
REMARK UNBOUND:                -0.770
REMARK SMILES COc1cc2c(cc1OC)S[C@@H](C(=O)CCc1cc[n+](Cc3coc([N+](=O)[O-])c3)cc1)C2
REMARK SMILES IDX 16 1 15 2 13 3 14 4 12 5 3 6 4 7 8 8 5 9 7 10 6 11 32 12
REMARK SMILES IDX 11 13 2 14 1 15 9 16 10 17 17 18 18 19 31 20 19 21 30 22
REMARK SMILES IDX 20 23 21 24 22 25 23 26 29 27 24 28 25 29 26 30 27 31 28 32
REMARK H PARENT
ROOT
ATOM      1  C   UNL     1     -14.562 -44.674  26.212  1.00  0.00     0.044 C 
ENDROOT
BRANCH   1   2
ATOM      2  C   UNL     1     -14.255 -44.477  24.787  1.00  0.00     0.081 C 
BRANCH   2   3
ATOM      3  C   UNL     1     -14.966 -43.150  24.509  1.00  0.00     0.146 C 
ATOM      4  O   UNL     1     -14.223 -42.254  23.948  1.00  0.00    -0.298 OA
BRANCH   3   5
ATOM      5  C   UNL     1     -16.319 -42.996  24.854  1.00  0.00     0.123 C 
ATOM      6  C   UNL     1     -20.551 -42.800  26.870  1.00  0.00     0.161 A 
ATOM      7  C   UNL     1     -19.206 -42.791  27.096  1.00  0.00     0.055 A 
ATOM      8  C   UNL     1     -21.024 -42.425  25.627  1.00  0.00     0.161 A 
ATOM      9  C   UNL     1     -18.302 -42.426  26.092  1.00  0.00    -0.029 A 
ATOM     10  C   UNL     1     -20.160 -42.027  24.573  1.00  0.00     0.065 A 
ATOM     11  C   UNL     1     -18.817 -42.077  24.922  1.00  0.00     0.015 A 
ATOM     12  C   UNL     1     -16.845 -42.418  26.150  1.00  0.00     0.059 C 
ATOM     13  S   UNL     1     -17.503 -42.358  23.661  1.00  0.00    -0.114 SA
BRANCH   6  14
ATOM     14  O   UNL     1     -21.509 -43.198  27.791  1.00  0.00    -0.493 OA
ATOM     15  C   UNL     1     -21.631 -44.551  28.156  1.00  0.00     0.278 C 
ENDBRANCH   6  14
BRANCH   8  16
ATOM     16  O   UNL     1     -22.381 -42.447  25.340  1.00  0.00    -0.493 OA
ATOM     17  C   UNL     1     -22.849 -43.517  24.554  1.00  0.00     0.278 C 
ENDBRANCH   8  16
ENDBRANCH   3   5
ENDBRANCH   2   3
ENDBRANCH   1   2
BRANCH   1  18
ATOM     18  C   UNL     1     -13.661 -44.885  27.299  1.00  0.00    -0.036 A 
ATOM     19  C   UNL     1     -12.640 -45.802  27.365  1.00  0.00     0.074 A 
ATOM     20  C   UNL     1     -14.197 -44.325  28.536  1.00  0.00     0.074 A 
ATOM     21  C   UNL     1     -12.051 -46.252  28.574  1.00  0.00     0.308 A 
ATOM     22  C   UNL     1     -13.576 -44.795  29.671  1.00  0.00     0.308 A 
ATOM     23  N   UNL     1     -12.559 -45.713  29.662  1.00  0.00    -0.201 N 
BRANCH  23  24
ATOM     24  C   UNL     1     -12.424 -46.299  31.026  1.00  0.00     0.397 C 
BRANCH  24  25
ATOM     25  C   UNL     1     -10.929 -45.839  31.350  1.00  0.00     0.063 A 
ATOM     26  C   UNL     1      -9.771 -46.503  31.093  1.00  0.00     0.213 A 
ATOM     27  C   UNL     1     -10.564 -44.618  31.829  1.00  0.00     0.143 A 
ATOM     28  O   UNL     1      -8.809 -45.694  31.417  1.00  0.00    -0.409 OA
ATOM     29  C   UNL     1      -9.194 -44.552  31.853  1.00  0.00     0.433 A 
BRANCH  29  30
ATOM     30  N   UNL     1      -8.387 -43.421  32.291  1.00  0.00     0.102 N 
ATOM     31  O   UNL     1      -8.696 -42.831  33.304  1.00  0.00    -0.256 OA
ATOM     32  O   UNL     1      -7.247 -43.045  31.622  1.00  0.00    -0.256 OA
ENDBRANCH  29  30
ENDBRANCH  24  25
ENDBRANCH  23  24
ENDBRANCH   1  18
TORSDOF 9
ENDMDL
MODEL 7
REMARK VINA RESULT:   -10.407      1.711      2.174
REMARK INTER + INTRA:         -16.653
REMARK INTER:                 -15.971
REMARK INTRA:                  -0.682
REMARK UNBOUND:                -0.770
REMARK SMILES COc1cc2c(cc1OC)S[C@@H](C(=O)CCc1cc[n+](Cc3coc([N+](=O)[O-])c3)cc1)C2
REMARK SMILES IDX 16 1 15 2 13 3 14 4 12 5 3 6 4 7 8 8 5 9 7 10 6 11 32 12
REMARK SMILES IDX 11 13 2 14 1 15 9 16 10 17 17 18 18 19 31 20 19 21 30 22
REMARK SMILES IDX 20 23 21 24 22 25 23 26 29 27 24 28 25 29 26 30 27 31 28 32
REMARK H PARENT
ROOT
ATOM      1  C   UNL     1     -14.333 -44.426  26.603  1.00  0.00     0.044 C 
ENDROOT
BRANCH   1   2
ATOM      2  C   UNL     1     -15.069 -43.152  26.559  1.00  0.00     0.081 C 
BRANCH   2   3
ATOM      3  C   UNL     1     -15.216 -42.945  25.048  1.00  0.00     0.146 C 
ATOM      4  O   UNL     1     -14.193 -43.328  24.356  1.00  0.00    -0.298 OA
BRANCH   3   5
ATOM      5  C   UNL     1     -16.396 -42.388  24.530  1.00  0.00     0.123 C 
ATOM      6  C   UNL     1     -19.782 -40.298  22.044  1.00  0.00     0.161 A 
ATOM      7  C   UNL     1     -18.578 -40.934  21.975  1.00  0.00     0.055 A 
ATOM      8  C   UNL     1     -20.597 -40.524  23.137  1.00  0.00     0.161 A 
ATOM      9  C   UNL     1     -18.149 -41.793  22.992  1.00  0.00    -0.029 A 
ATOM     10  C   UNL     1     -20.228 -41.398  24.193  1.00  0.00     0.065 A 
ATOM     11  C   UNL     1     -18.975 -41.969  24.014  1.00  0.00     0.015 A 
ATOM     12  C   UNL     1     -16.877 -42.500  23.100  1.00  0.00     0.059 C 
ATOM     13  S   UNL     1     -17.940 -42.493  25.446  1.00  0.00    -0.114 SA
BRANCH   6  14
ATOM     14  O   UNL     1     -20.259 -39.393  21.108  1.00  0.00    -0.493 OA
ATOM     15  C   UNL     1     -19.786 -39.418  19.783  1.00  0.00     0.278 C 
ENDBRANCH   6  14
BRANCH   8  16
ATOM     16  O   UNL     1     -21.818 -39.878  23.267  1.00  0.00    -0.493 OA
ATOM     17  C   UNL     1     -22.970 -40.686  23.262  1.00  0.00     0.278 C 
ENDBRANCH   8  16
ENDBRANCH   3   5
ENDBRANCH   2   3
ENDBRANCH   1   2
BRANCH   1  18
ATOM     18  C   UNL     1     -13.730 -45.070  27.725  1.00  0.00    -0.036 A 
ATOM     19  C   UNL     1     -13.772 -44.664  29.036  1.00  0.00     0.074 A 
ATOM     20  C   UNL     1     -12.678 -45.987  27.295  1.00  0.00     0.074 A 
ATOM     21  C   UNL     1     -12.850 -45.083  30.029  1.00  0.00     0.308 A 
ATOM     22  C   UNL     1     -11.824 -46.362  28.308  1.00  0.00     0.308 A 
ATOM     23  N   UNL     1     -11.926 -45.916  29.599  1.00  0.00    -0.201 N 
BRANCH  23  24
ATOM     24  C   UNL     1     -10.635 -46.166  30.301  1.00  0.00     0.397 C 
BRANCH  24  25
ATOM     25  C   UNL     1      -9.928 -44.759  30.034  1.00  0.00     0.063 A 
ATOM     26  C   UNL     1      -9.370 -43.914  30.940  1.00  0.00     0.213 A 
ATOM     27  C   UNL     1      -9.650 -44.234  28.809  1.00  0.00     0.143 A 
ATOM     28  O   UNL     1      -8.813 -42.963  30.254  1.00  0.00    -0.409 OA
ATOM     29  C   UNL     1      -8.926 -43.082  28.983  1.00  0.00     0.433 A 
BRANCH  29  30
ATOM     30  N   UNL     1      -8.418 -42.208  27.934  1.00  0.00     0.102 N 
ATOM     31  O   UNL     1      -7.681 -41.293  28.232  1.00  0.00    -0.256 OA
ATOM     32  O   UNL     1      -8.701 -42.432  26.608  1.00  0.00    -0.256 OA
ENDBRANCH  29  30
ENDBRANCH  24  25
ENDBRANCH  23  24
ENDBRANCH   1  18
TORSDOF 9
ENDMDL
MODEL 8
REMARK VINA RESULT:   -10.315      3.332      4.273
REMARK INTER + INTRA:         -16.513
REMARK INTER:                 -15.687
REMARK INTRA:                  -0.826
REMARK UNBOUND:                -0.770
REMARK SMILES COc1cc2c(cc1OC)S[C@@H](C(=O)CCc1cc[n+](Cc3coc([N+](=O)[O-])c3)cc1)C2
REMARK SMILES IDX 16 1 15 2 13 3 14 4 12 5 3 6 4 7 8 8 5 9 7 10 6 11 32 12
REMARK SMILES IDX 11 13 2 14 1 15 9 16 10 17 17 18 18 19 31 20 19 21 30 22
REMARK SMILES IDX 20 23 21 24 22 25 23 26 29 27 24 28 25 29 26 30 27 31 28 32
REMARK H PARENT
ROOT
ATOM      1  C   UNL     1     -13.803 -44.462  26.538  1.00  0.00     0.044 C 
ENDROOT
BRANCH   1   2
ATOM      2  C   UNL     1     -13.959 -43.139  25.912  1.00  0.00     0.081 C 
BRANCH   2   3
ATOM      3  C   UNL     1     -15.010 -43.439  24.839  1.00  0.00     0.146 C 
ATOM      4  O   UNL     1     -14.534 -43.964  23.758  1.00  0.00    -0.298 OA
BRANCH   3   5
ATOM      5  C   UNL     1     -16.363 -43.151  25.086  1.00  0.00     0.123 C 
ATOM      6  C   UNL     1     -20.691 -42.533  26.788  1.00  0.00     0.161 A 
ATOM      7  C   UNL     1     -19.372 -42.658  27.111  1.00  0.00     0.055 A 
ATOM      8  C   UNL     1     -21.031 -42.113  25.517  1.00  0.00     0.161 A 
ATOM      9  C   UNL     1     -18.365 -42.386  26.180  1.00  0.00    -0.029 A 
ATOM     10  C   UNL     1     -20.057 -41.803  24.532  1.00  0.00     0.065 A 
ATOM     11  C   UNL     1     -18.755 -41.987  24.977  1.00  0.00     0.015 A 
ATOM     12  C   UNL     1     -16.922 -42.524  26.344  1.00  0.00     0.059 C 
ATOM     13  S   UNL     1     -17.386 -42.397  23.814  1.00  0.00    -0.114 SA
BRANCH   6  14
ATOM     14  O   UNL     1     -21.749 -42.833  27.633  1.00  0.00    -0.493 OA
ATOM     15  C   UNL     1     -22.140 -44.168  27.844  1.00  0.00     0.278 C 
ENDBRANCH   6  14
BRANCH   8  16
ATOM     16  O   UNL     1     -22.359 -41.999  25.131  1.00  0.00    -0.493 OA
ATOM     17  C   UNL     1     -22.640 -42.154  23.760  1.00  0.00     0.278 C 
ENDBRANCH   8  16
ENDBRANCH   3   5
ENDBRANCH   2   3
ENDBRANCH   1   2
BRANCH   1  18
ATOM     18  C   UNL     1     -12.893 -44.863  27.562  1.00  0.00    -0.036 A 
ATOM     19  C   UNL     1     -12.955 -46.003  28.326  1.00  0.00     0.074 A 
ATOM     20  C   UNL     1     -12.108 -43.728  28.036  1.00  0.00     0.074 A 
ATOM     21  C   UNL     1     -12.293 -46.163  29.571  1.00  0.00     0.308 A 
ATOM     22  C   UNL     1     -11.485 -43.952  29.243  1.00  0.00     0.308 A 
ATOM     23  N   UNL     1     -11.591 -45.118  29.954  1.00  0.00    -0.201 N 
BRANCH  23  24
ATOM     24  C   UNL     1     -11.164 -44.869  31.361  1.00  0.00     0.397 C 
BRANCH  24  25
ATOM     25  C   UNL     1     -12.553 -44.351  31.956  1.00  0.00     0.063 A 
ATOM     26  C   UNL     1     -13.660 -45.078  32.262  1.00  0.00     0.213 A 
ATOM     27  C   UNL     1     -12.806 -43.083  32.384  1.00  0.00     0.143 A 
ATOM     28  O   UNL     1     -14.489 -44.256  32.827  1.00  0.00    -0.409 OA
ATOM     29  C   UNL     1     -14.057 -43.055  32.946  1.00  0.00     0.433 A 
BRANCH  29  30
ATOM     30  N   UNL     1     -14.720 -41.898  33.533  1.00  0.00     0.102 N 
ATOM     31  O   UNL     1     -14.217 -41.353  34.492  1.00  0.00    -0.256 OA
ATOM     32  O   UNL     1     -15.865 -41.369  32.990  1.00  0.00    -0.256 OA
ENDBRANCH  29  30
ENDBRANCH  24  25
ENDBRANCH  23  24
ENDBRANCH   1  18
TORSDOF 9
ENDMDL
MODEL 9
REMARK VINA RESULT:   -10.252      2.412      2.836
REMARK INTER + INTRA:         -16.416
REMARK INTER:                 -15.882
REMARK INTRA:                  -0.534
REMARK UNBOUND:                -0.770
REMARK SMILES COc1cc2c(cc1OC)S[C@@H](C(=O)CCc1cc[n+](Cc3coc([N+](=O)[O-])c3)cc1)C2
REMARK SMILES IDX 16 1 15 2 13 3 14 4 12 5 3 6 4 7 8 8 5 9 7 10 6 11 32 12
REMARK SMILES IDX 11 13 2 14 1 15 9 16 10 17 17 18 18 19 31 20 19 21 30 22
REMARK SMILES IDX 20 23 21 24 22 25 23 26 29 27 24 28 25 29 26 30 27 31 28 32
REMARK H PARENT
ROOT
ATOM      1  C   UNL     1     -14.434 -44.189  26.472  1.00  0.00     0.044 C 
ENDROOT
BRANCH   1   2
ATOM      2  C   UNL     1     -14.824 -42.793  26.220  1.00  0.00     0.081 C 
BRANCH   2   3
ATOM      3  C   UNL     1     -15.154 -42.840  24.726  1.00  0.00     0.146 C 
ATOM      4  O   UNL     1     -14.273 -43.453  24.005  1.00  0.00    -0.298 OA
BRANCH   3   5
ATOM      5  C   UNL     1     -16.339 -42.254  24.251  1.00  0.00     0.123 C 
ATOM      6  C   UNL     1     -19.727 -39.945  21.970  1.00  0.00     0.161 A 
ATOM      7  C   UNL     1     -18.499 -40.527  21.853  1.00  0.00     0.055 A 
ATOM      8  C   UNL     1     -20.563 -40.347  22.994  1.00  0.00     0.161 A 
ATOM      9  C   UNL     1     -18.068 -41.505  22.754  1.00  0.00    -0.029 A 
ATOM     10  C   UNL     1     -20.192 -41.347  23.930  1.00  0.00     0.065 A 
ATOM     11  C   UNL     1     -18.915 -41.848  23.715  1.00  0.00     0.015 A 
ATOM     12  C   UNL     1     -16.775 -42.180  22.804  1.00  0.00     0.059 C 
ATOM     13  S   UNL     1     -17.902 -42.534  25.093  1.00  0.00    -0.114 SA
BRANCH   6  14
ATOM     14  O   UNL     1     -20.209 -38.933  21.153  1.00  0.00    -0.493 OA
ATOM     15  C   UNL     1     -20.548 -39.196  19.813  1.00  0.00     0.278 C 
ENDBRANCH   6  14
BRANCH   8  16
ATOM     16  O   UNL     1     -21.809 -39.764  23.173  1.00  0.00    -0.493 OA
ATOM     17  C   UNL     1     -22.652 -40.344  24.139  1.00  0.00     0.278 C 
ENDBRANCH   8  16
ENDBRANCH   3   5
ENDBRANCH   2   3
ENDBRANCH   1   2
BRANCH   1  18
ATOM     18  C   UNL     1     -13.253 -44.687  27.100  1.00  0.00    -0.036 A 
ATOM     19  C   UNL     1     -13.077 -45.923  27.674  1.00  0.00     0.074 A 
ATOM     20  C   UNL     1     -12.360 -43.594  27.472  1.00  0.00     0.074 A 
ATOM     21  C   UNL     1     -12.064 -46.223  28.621  1.00  0.00     0.308 A 
ATOM     22  C   UNL     1     -11.395 -43.954  28.386  1.00  0.00     0.308 A 
ATOM     23  N   UNL     1     -11.277 -45.211  28.918  1.00  0.00    -0.201 N 
BRANCH  23  24
ATOM     24  C   UNL     1     -10.438 -45.139  30.148  1.00  0.00     0.397 C 
BRANCH  24  25
ATOM     25  C   UNL     1     -11.313 -44.100  30.988  1.00  0.00     0.063 A 
ATOM     26  C   UNL     1     -11.060 -42.786  31.224  1.00  0.00     0.213 A 
ATOM     27  C   UNL     1     -12.550 -44.343  31.504  1.00  0.00     0.143 A 
ATOM     28  O   UNL     1     -12.102 -42.321  31.845  1.00  0.00    -0.409 OA
ATOM     29  C   UNL     1     -13.034 -43.178  32.042  1.00  0.00     0.433 A 
BRANCH  29  30
ATOM     30  N   UNL     1     -14.324 -42.992  32.692  1.00  0.00     0.102 N 
ATOM     31  O   UNL     1     -14.518 -43.498  33.777  1.00  0.00    -0.256 OA
ATOM     32  O   UNL     1     -15.306 -42.206  32.138  1.00  0.00    -0.256 OA
ENDBRANCH  29  30
ENDBRANCH  24  25
ENDBRANCH  23  24
ENDBRANCH   1  18
TORSDOF 9
ENDMDL
