MODEL 1
REMARK VINA RESULT:    -8.855      0.000      0.000
REMARK INTER + INTRA:          -9.971
REMARK INTER:                  -9.890
REMARK INTRA:                  -0.081
REMARK UNBOUND:                -0.081
REMARK SMILES CNC(=O)Oc1ccc2c(c1)[C@]1(C)CCO[C@@H]1N2C
REMARK SMILES IDX 5 1 3 2 2 3 1 4 4 6 6 7 7 8 11 9 8 10 10 11 9 12 12 13 18 14
REMARK SMILES IDX 14 15 17 16 15 17 16 18 13 19 19 20
REMARK H PARENT 2 5
ROOT
ATOM      1  O   UNL     1     -14.176 -45.041  26.668  1.00  0.00    -0.410 OA
ENDROOT
BRANCH   1   2
ATOM      2  C   UNL     1     -14.169 -43.741  26.184  1.00  0.00     0.412 C 
ATOM      3  N   UNL     1     -14.912 -43.688  25.036  1.00  0.00    -0.324 N 
ATOM      4  C   UNL     1     -15.192 -42.450  24.365  1.00  0.00     0.146 C 
ATOM      5  H   UNL     1     -15.421 -44.527  24.796  1.00  0.00     0.166 HD
ATOM      6  O   UNL     1     -13.606 -42.781  26.690  1.00  0.00    -0.224 OA
ENDBRANCH   1   2
BRANCH   1   7
ATOM      7  C   UNL     1     -13.248 -45.336  27.677  1.00  0.00     0.133 A 
ATOM      8  C   UNL     1     -12.142 -46.117  27.317  1.00  0.00     0.049 A 
ATOM      9  C   UNL     1     -13.463 -44.946  28.997  1.00  0.00     0.054 A 
ATOM     10  C   UNL     1     -11.205 -46.489  28.287  1.00  0.00     0.030 A 
ATOM     11  C   UNL     1     -12.515 -45.319  29.940  1.00  0.00    -0.010 A 
ATOM     12  C   UNL     1     -11.389 -46.078  29.599  1.00  0.00     0.043 A 
ATOM     13  C   UNL     1     -12.480 -45.000  31.412  1.00  0.00     0.042 C 
ATOM     14  N   UNL     1     -10.576 -46.362  30.707  1.00  0.00    -0.348 N 
ATOM     15  C   UNL     1     -12.428 -43.515  31.719  1.00  0.00     0.045 C 
ATOM     16  C   UNL     1     -11.051 -45.476  31.777  1.00  0.00     0.225 C 
ATOM     17  C   UNL     1     -10.976 -43.170  31.466  1.00  0.00     0.164 C 
ATOM     18  O   UNL     1     -10.215 -44.307  31.887  1.00  0.00    -0.357 OA
ATOM     19  C   UNL     1     -13.581 -45.744  32.161  1.00  0.00     0.021 C 
ATOM     20  C   UNL     1      -9.146 -46.491  30.502  1.00  0.00     0.146 C 
ENDBRANCH   1   7
TORSDOF 2
ENDMDL
MODEL 2
REMARK VINA RESULT:    -8.653      3.091      5.005
REMARK INTER + INTRA:          -9.746
REMARK INTER:                  -9.468
REMARK INTRA:                  -0.278
REMARK UNBOUND:                -0.081
REMARK SMILES CNC(=O)Oc1ccc2c(c1)[C@]1(C)CCO[C@@H]1N2C
REMARK SMILES IDX 5 1 3 2 2 3 1 4 4 6 6 7 7 8 11 9 8 10 10 11 9 12 12 13 18 14
REMARK SMILES IDX 14 15 17 16 15 17 16 18 13 19 19 20
REMARK H PARENT 2 5
ROOT
ATOM      1  O   UNL     1     -14.166 -44.236  33.286  1.00  0.00    -0.410 OA
ENDROOT
BRANCH   1   2
ATOM      2  C   UNL     1     -14.558 -42.906  33.231  1.00  0.00     0.412 C 
ATOM      3  N   UNL     1     -14.532 -42.381  34.495  1.00  0.00    -0.324 N 
ATOM      4  C   UNL     1     -14.772 -40.988  34.747  1.00  0.00     0.146 C 
ATOM      5  H   UNL     1     -14.138 -42.971  35.215  1.00  0.00     0.166 HD
ATOM      6  O   UNL     1     -14.872 -42.283  32.228  1.00  0.00    -0.224 OA
ENDBRANCH   1   2
BRANCH   1   7
ATOM      7  C   UNL     1     -13.344 -44.688  32.244  1.00  0.00     0.133 A 
ATOM      8  C   UNL     1     -13.883 -45.645  31.375  1.00  0.00     0.049 A 
ATOM      9  C   UNL     1     -12.020 -44.268  32.131  1.00  0.00     0.054 A 
ATOM     10  C   UNL     1     -13.099 -46.174  30.344  1.00  0.00     0.030 A 
ATOM     11  C   UNL     1     -11.263 -44.799  31.095  1.00  0.00    -0.010 A 
ATOM     12  C   UNL     1     -11.789 -45.740  30.200  1.00  0.00     0.043 A 
ATOM     13  C   UNL     1      -9.836 -44.495  30.724  1.00  0.00     0.042 C 
ATOM     14  N   UNL     1     -10.848 -46.160  29.248  1.00  0.00    -0.348 N 
ATOM     15  C   UNL     1      -9.591 -43.040  30.364  1.00  0.00     0.045 C 
ATOM     16  C   UNL     1      -9.735 -45.208  29.351  1.00  0.00     0.225 C 
ATOM     17  C   UNL     1     -10.126 -42.948  28.951  1.00  0.00     0.164 C 
ATOM     18  O   UNL     1      -9.824 -44.199  28.325  1.00  0.00    -0.357 OA
ATOM     19  C   UNL     1      -8.868 -45.040  31.768  1.00  0.00     0.021 C 
ATOM     20  C   UNL     1     -11.318 -46.532  27.927  1.00  0.00     0.146 C 
ENDBRANCH   1   7
TORSDOF 2
ENDMDL
MODEL 3
REMARK VINA RESULT:    -8.444      2.538      6.029
REMARK INTER + INTRA:          -9.512
REMARK INTER:                  -9.391
REMARK INTRA:                  -0.121
REMARK UNBOUND:                -0.081
REMARK SMILES CNC(=O)Oc1ccc2c(c1)[C@]1(C)CCO[C@@H]1N2C
REMARK SMILES IDX 5 1 3 2 2 3 1 4 4 6 6 7 7 8 11 9 8 10 10 11 9 12 12 13 18 14
REMARK SMILES IDX 14 15 17 16 15 17 16 18 13 19 19 20
REMARK H PARENT 2 5
ROOT
ATOM      1  O   UNL     1      -7.931 -43.135  29.593  1.00  0.00    -0.410 OA
ENDROOT
BRANCH   1   2
ATOM      2  C   UNL     1      -7.810 -43.585  30.900  1.00  0.00     0.412 C 
ATOM      3  N   UNL     1      -7.063 -44.731  30.910  1.00  0.00    -0.324 N 
ATOM      4  C   UNL     1      -6.663 -45.370  32.132  1.00  0.00     0.146 C 
ATOM      5  H   UNL     1      -6.637 -44.994  30.032  1.00  0.00     0.166 HD
ATOM      6  O   UNL     1      -8.279 -43.054  31.896  1.00  0.00    -0.224 OA
ENDBRANCH   1   2
BRANCH   1   7
ATOM      7  C   UNL     1      -9.205 -43.228  29.015  1.00  0.00     0.133 A 
ATOM      8  C   UNL     1      -9.545 -42.262  28.061  1.00  0.00     0.049 A 
ATOM      9  C   UNL     1     -10.123 -44.187  29.438  1.00  0.00     0.054 A 
ATOM     10  C   UNL     1     -10.818 -42.268  27.482  1.00  0.00     0.030 A 
ATOM     11  C   UNL     1     -11.378 -44.180  28.844  1.00  0.00    -0.010 A 
ATOM     12  C   UNL     1     -11.732 -43.238  27.869  1.00  0.00     0.043 A 
ATOM     13  C   UNL     1     -12.534 -45.116  29.081  1.00  0.00     0.042 C 
ATOM     14  N   UNL     1     -13.052 -43.398  27.421  1.00  0.00    -0.348 N 
ATOM     15  C   UNL     1     -12.223 -46.569  28.769  1.00  0.00     0.045 C 
ATOM     16  C   UNL     1     -13.478 -44.711  27.920  1.00  0.00     0.225 C 
ATOM     17  C   UNL     1     -12.313 -46.615  27.259  1.00  0.00     0.164 C 
ATOM     18  O   UNL     1     -13.363 -45.715  26.891  1.00  0.00    -0.357 OA
ATOM     19  C   UNL     1     -13.140 -44.901  30.463  1.00  0.00     0.021 C 
ATOM     20  C   UNL     1     -13.364 -43.046  26.049  1.00  0.00     0.146 C 
ENDBRANCH   1   7
TORSDOF 2
ENDMDL
MODEL 4
REMARK VINA RESULT:    -8.279      3.102      5.420
REMARK INTER + INTRA:          -9.327
REMARK INTER:                  -9.106
REMARK INTRA:                  -0.222
REMARK UNBOUND:                -0.081
REMARK SMILES CNC(=O)Oc1ccc2c(c1)[C@]1(C)CCO[C@@H]1N2C
REMARK SMILES IDX 5 1 3 2 2 3 1 4 4 6 6 7 7 8 11 9 8 10 10 11 9 12 12 13 18 14
REMARK SMILES IDX 14 15 17 16 15 17 16 18 13 19 19 20
REMARK H PARENT 2 5
ROOT
ATOM      1  O   UNL     1     -14.097 -43.722  33.023  1.00  0.00    -0.410 OA
ENDROOT
BRANCH   1   2
ATOM      2  C   UNL     1     -14.717 -42.508  33.277  1.00  0.00     0.412 C 
ATOM      3  N   UNL     1     -14.534 -42.181  34.594  1.00  0.00    -0.324 N 
ATOM      4  C   UNL     1     -14.959 -40.918  35.132  1.00  0.00     0.146 C 
ATOM      5  H   UNL     1     -13.910 -42.777  35.119  1.00  0.00     0.166 HD
ATOM      6  O   UNL     1     -15.326 -41.820  32.470  1.00  0.00    -0.224 OA
ENDBRANCH   1   2
BRANCH   1   7
ATOM      7  C   UNL     1     -12.995 -43.691  32.157  1.00  0.00     0.133 A 
ATOM      8  C   UNL     1     -11.838 -43.051  32.618  1.00  0.00     0.049 A 
ATOM      9  C   UNL     1     -13.078 -44.195  30.860  1.00  0.00     0.054 A 
ATOM     10  C   UNL     1     -10.720 -42.942  31.785  1.00  0.00     0.030 A 
ATOM     11  C   UNL     1     -11.954 -44.083  30.054  1.00  0.00    -0.010 A 
ATOM     12  C   UNL     1     -10.777 -43.470  30.503  1.00  0.00     0.043 A 
ATOM     13  C   UNL     1     -11.759 -44.572  28.643  1.00  0.00     0.042 C 
ATOM     14  N   UNL     1      -9.776 -43.444  29.521  1.00  0.00    -0.348 N 
ATOM     15  C   UNL     1     -11.913 -46.074  28.485  1.00  0.00     0.045 C 
ATOM     16  C   UNL     1     -10.231 -44.366  28.473  1.00  0.00     0.225 C 
ATOM     17  C   UNL     1     -10.592 -46.605  29.001  1.00  0.00     0.164 C 
ATOM     18  O   UNL     1      -9.597 -45.654  28.609  1.00  0.00    -0.357 OA
ATOM     19  C   UNL     1     -12.597 -43.762  27.660  1.00  0.00     0.021 C 
ATOM     20  C   UNL     1      -8.390 -43.511  29.944  1.00  0.00     0.146 C 
ENDBRANCH   1   7
TORSDOF 2
ENDMDL
MODEL 5
REMARK VINA RESULT:    -8.227      1.872      2.685
REMARK INTER + INTRA:          -9.270
REMARK INTER:                  -9.283
REMARK INTRA:                   0.013
REMARK UNBOUND:                -0.081
REMARK SMILES CNC(=O)Oc1ccc2c(c1)[C@]1(C)CCO[C@@H]1N2C
REMARK SMILES IDX 5 1 3 2 2 3 1 4 4 6 6 7 7 8 11 9 8 10 10 11 9 12 12 13 18 14
REMARK SMILES IDX 14 15 17 16 15 17 16 18 13 19 19 20
REMARK H PARENT 2 5
ROOT
ATOM      1  O   UNL     1     -14.544 -44.596  26.872  1.00  0.00    -0.410 OA
ENDROOT
BRANCH   1   2
ATOM      2  C   UNL     1     -15.314 -43.479  26.579  1.00  0.00     0.412 C 
ATOM      3  N   UNL     1     -15.582 -43.462  25.238  1.00  0.00    -0.324 N 
ATOM      4  C   UNL     1     -16.462 -42.492  24.648  1.00  0.00     0.146 C 
ATOM      5  H   UNL     1     -15.298 -44.279  24.715  1.00  0.00     0.166 HD
ATOM      6  O   UNL     1     -15.708 -42.640  27.376  1.00  0.00    -0.224 OA
ENDBRANCH   1   2
BRANCH   1   7
ATOM      7  C   UNL     1     -13.261 -44.353  27.383  1.00  0.00     0.133 A 
ATOM      8  C   UNL     1     -12.658 -43.136  27.041  1.00  0.00     0.049 A 
ATOM      9  C   UNL     1     -12.582 -45.318  28.124  1.00  0.00     0.054 A 
ATOM     10  C   UNL     1     -11.360 -42.852  27.477  1.00  0.00     0.030 A 
ATOM     11  C   UNL     1     -11.297 -45.011  28.554  1.00  0.00    -0.010 A 
ATOM     12  C   UNL     1     -10.684 -43.790  28.245  1.00  0.00     0.043 A 
ATOM     13  C   UNL     1     -10.365 -45.845  29.392  1.00  0.00     0.042 C 
ATOM     14  N   UNL     1      -9.381 -43.699  28.757  1.00  0.00    -0.348 N 
ATOM     15  C   UNL     1     -10.911 -46.184  30.768  1.00  0.00     0.045 C 
ATOM     16  C   UNL     1      -9.257 -44.808  29.711  1.00  0.00     0.225 C 
ATOM     17  C   UNL     1     -10.690 -44.903  31.543  1.00  0.00     0.164 C 
ATOM     18  O   UNL     1      -9.460 -44.350  31.062  1.00  0.00    -0.357 OA
ATOM     19  C   UNL     1      -9.862 -47.056  28.616  1.00  0.00     0.021 C 
ATOM     20  C   UNL     1      -8.880 -42.395  29.146  1.00  0.00     0.146 C 
ENDBRANCH   1   7
TORSDOF 2
ENDMDL
MODEL 6
REMARK VINA RESULT:    -7.830      1.801      2.236
REMARK INTER + INTRA:          -8.827
REMARK INTER:                  -8.862
REMARK INTRA:                   0.035
REMARK UNBOUND:                -0.081
REMARK SMILES CNC(=O)Oc1ccc2c(c1)[C@]1(C)CCO[C@@H]1N2C
REMARK SMILES IDX 5 1 3 2 2 3 1 4 4 6 6 7 7 8 11 9 8 10 10 11 9 12 12 13 18 14
REMARK SMILES IDX 14 15 17 16 15 17 16 18 13 19 19 20
REMARK H PARENT 2 5
ROOT
ATOM      1  O   UNL     1     -13.795 -45.214  26.551  1.00  0.00    -0.410 OA
ENDROOT
BRANCH   1   2
ATOM      2  C   UNL     1     -14.542 -44.047  26.491  1.00  0.00     0.412 C 
ATOM      3  N   UNL     1     -14.486 -43.546  25.219  1.00  0.00    -0.324 N 
ATOM      4  C   UNL     1     -15.261 -42.407  24.813  1.00  0.00     0.146 C 
ATOM      5  H   UNL     1     -14.038 -44.132  24.528  1.00  0.00     0.166 HD
ATOM      6  O   UNL     1     -15.163 -43.535  27.411  1.00  0.00    -0.224 OA
ENDBRANCH   1   2
BRANCH   1   7
ATOM      7  C   UNL     1     -12.722 -45.224  27.453  1.00  0.00     0.133 A 
ATOM      8  C   UNL     1     -12.190 -46.473  27.799  1.00  0.00     0.049 A 
ATOM      9  C   UNL     1     -12.265 -44.050  28.048  1.00  0.00     0.054 A 
ATOM     10  C   UNL     1     -11.151 -46.556  28.732  1.00  0.00     0.030 A 
ATOM     11  C   UNL     1     -11.227 -44.156  28.964  1.00  0.00    -0.010 A 
ATOM     12  C   UNL     1     -10.663 -45.392  29.306  1.00  0.00     0.043 A 
ATOM     13  C   UNL     1     -10.523 -43.057  29.716  1.00  0.00     0.042 C 
ATOM     14  N   UNL     1      -9.647 -45.271  30.266  1.00  0.00    -0.348 N 
ATOM     15  C   UNL     1      -9.836 -42.041  28.821  1.00  0.00     0.045 C 
ATOM     16  C   UNL     1      -9.331 -43.839  30.324  1.00  0.00     0.225 C 
ATOM     17  C   UNL     1      -8.570 -42.760  28.406  1.00  0.00     0.164 C 
ATOM     18  O   UNL     1      -8.162 -43.537  29.536  1.00  0.00    -0.357 OA
ATOM     19  C   UNL     1     -11.441 -42.432  30.762  1.00  0.00     0.021 C 
ATOM     20  C   UNL     1      -8.549 -46.219  30.234  1.00  0.00     0.146 C 
ENDBRANCH   1   7
TORSDOF 2
ENDMDL
MODEL 7
REMARK VINA RESULT:    -7.787      4.372      9.228
REMARK INTER + INTRA:          -8.779
REMARK INTER:                  -8.635
REMARK INTRA:                  -0.143
REMARK UNBOUND:                -0.081
REMARK SMILES CNC(=O)Oc1ccc2c(c1)[C@]1(C)CCO[C@@H]1N2C
REMARK SMILES IDX 5 1 3 2 2 3 1 4 4 6 6 7 7 8 11 9 8 10 10 11 9 12 12 13 18 14
REMARK SMILES IDX 14 15 17 16 15 17 16 18 13 19 19 20
REMARK H PARENT 2 5
ROOT
ATOM      1  O   UNL     1     -15.129 -43.132  24.578  1.00  0.00    -0.410 OA
ENDROOT
BRANCH   1   2
ATOM      2  C   UNL     1     -14.719 -43.086  25.903  1.00  0.00     0.412 C 
ATOM      3  N   UNL     1     -14.518 -44.363  26.353  1.00  0.00    -0.324 N 
ATOM      4  C   UNL     1     -13.973 -44.636  27.653  1.00  0.00     0.146 C 
ATOM      5  H   UNL     1     -14.577 -45.095  25.659  1.00  0.00     0.166 HD
ATOM      6  O   UNL     1     -14.549 -42.079  26.575  1.00  0.00    -0.224 OA
ENDBRANCH   1   2
BRANCH   1   7
ATOM      7  C   UNL     1     -16.430 -42.684  24.311  1.00  0.00     0.133 A 
ATOM      8  C   UNL     1     -16.639 -42.020  23.096  1.00  0.00     0.049 A 
ATOM      9  C   UNL     1     -17.449 -42.813  25.253  1.00  0.00     0.054 A 
ATOM     10  C   UNL     1     -17.902 -41.504  22.789  1.00  0.00     0.030 A 
ATOM     11  C   UNL     1     -18.696 -42.301  24.924  1.00  0.00    -0.010 A 
ATOM     12  C   UNL     1     -18.935 -41.655  23.703  1.00  0.00     0.043 A 
ATOM     13  C   UNL     1     -19.968 -42.338  25.730  1.00  0.00     0.042 C 
ATOM     14  N   UNL     1     -20.255 -41.196  23.587  1.00  0.00    -0.348 N 
ATOM     15  C   UNL     1     -20.455 -43.741  26.045  1.00  0.00     0.045 C 
ATOM     16  C   UNL     1     -20.994 -41.850  24.675  1.00  0.00     0.225 C 
ATOM     17  C   UNL     1     -21.100 -44.174  24.746  1.00  0.00     0.164 C 
ATOM     18  O   UNL     1     -21.709 -43.004  24.191  1.00  0.00    -0.357 OA
ATOM     19  C   UNL     1     -19.871 -41.432  26.952  1.00  0.00     0.021 C 
ATOM     20  C   UNL     1     -20.860 -41.154  22.270  1.00  0.00     0.146 C 
ENDBRANCH   1   7
TORSDOF 2
ENDMDL
MODEL 8
REMARK VINA RESULT:    -7.741      2.017      3.298
REMARK INTER + INTRA:          -8.727
REMARK INTER:                  -8.680
REMARK INTRA:                  -0.047
REMARK UNBOUND:                -0.081
REMARK SMILES CNC(=O)Oc1ccc2c(c1)[C@]1(C)CCO[C@@H]1N2C
REMARK SMILES IDX 5 1 3 2 2 3 1 4 4 6 6 7 7 8 11 9 8 10 10 11 9 12 12 13 18 14
REMARK SMILES IDX 14 15 17 16 15 17 16 18 13 19 19 20
REMARK H PARENT 2 5
ROOT
ATOM      1  O   UNL     1     -15.259 -44.071  24.965  1.00  0.00    -0.410 OA
ENDROOT
BRANCH   1   2
ATOM      2  C   UNL     1     -16.098 -42.977  24.805  1.00  0.00     0.412 C 
ATOM      3  N   UNL     1     -17.183 -43.124  25.626  1.00  0.00    -0.324 N 
ATOM      4  C   UNL     1     -18.172 -42.093  25.774  1.00  0.00     0.146 C 
ATOM      5  H   UNL     1     -17.151 -43.899  26.274  1.00  0.00     0.166 HD
ATOM      6  O   UNL     1     -15.913 -42.023  24.064  1.00  0.00    -0.224 OA
ENDBRANCH   1   2
BRANCH   1   7
ATOM      7  C   UNL     1     -14.221 -43.930  25.896  1.00  0.00     0.133 A 
ATOM      8  C   UNL     1     -13.577 -42.687  25.952  1.00  0.00     0.049 A 
ATOM      9  C   UNL     1     -13.790 -45.006  26.669  1.00  0.00     0.054 A 
ATOM     10  C   UNL     1     -12.501 -42.495  26.825  1.00  0.00     0.030 A 
ATOM     11  C   UNL     1     -12.726 -44.791  27.535  1.00  0.00    -0.010 A 
ATOM     12  C   UNL     1     -12.083 -43.549  27.625  1.00  0.00     0.043 A 
ATOM     13  C   UNL     1     -12.092 -45.756  28.501  1.00  0.00     0.042 C 
ATOM     14  N   UNL     1     -11.022 -43.559  28.543  1.00  0.00    -0.348 N 
ATOM     15  C   UNL     1     -13.046 -46.285  29.557  1.00  0.00     0.045 C 
ATOM     16  C   UNL     1     -11.181 -44.799  29.312  1.00  0.00     0.225 C 
ATOM     17  C   UNL     1     -13.129 -45.138  30.541  1.00  0.00     0.164 C 
ATOM     18  O   UNL     1     -11.828 -44.543  30.574  1.00  0.00    -0.357 OA
ATOM     19  C   UNL     1     -11.326 -46.849  27.763  1.00  0.00     0.021 C 
ATOM     20  C   UNL     1     -10.716 -42.336  29.260  1.00  0.00     0.146 C 
ENDBRANCH   1   7
TORSDOF 2
ENDMDL
MODEL 9
REMARK VINA RESULT:    -7.454      4.716     10.143
REMARK INTER + INTRA:          -8.406
REMARK INTER:                  -8.152
REMARK INTRA:                  -0.254
REMARK UNBOUND:                -0.081
REMARK SMILES CNC(=O)Oc1ccc2c(c1)[C@]1(C)CCO[C@@H]1N2C
REMARK SMILES IDX 5 1 3 2 2 3 1 4 4 6 6 7 7 8 11 9 8 10 10 11 9 12 12 13 18 14
REMARK SMILES IDX 14 15 17 16 15 17 16 18 13 19 19 20
REMARK H PARENT 2 5
ROOT
ATOM      1  O   UNL     1     -15.446 -43.306  23.614  1.00  0.00    -0.410 OA
ENDROOT
BRANCH   1   2
ATOM      2  C   UNL     1     -14.930 -43.141  24.891  1.00  0.00     0.412 C 
ATOM      3  N   UNL     1     -14.576 -44.365  25.390  1.00  0.00    -0.324 N 
ATOM      4  C   UNL     1     -13.899 -44.508  26.649  1.00  0.00     0.146 C 
ATOM      5  H   UNL     1     -14.629 -45.142  24.746  1.00  0.00     0.166 HD
ATOM      6  O   UNL     1     -14.795 -42.083  25.488  1.00  0.00    -0.224 OA
ENDBRANCH   1   2
BRANCH   1   7
ATOM      7  C   UNL     1     -16.554 -42.514  23.281  1.00  0.00     0.133 A 
ATOM      8  C   UNL     1     -16.352 -41.498  22.338  1.00  0.00     0.049 A 
ATOM      9  C   UNL     1     -17.778 -42.673  23.927  1.00  0.00     0.054 A 
ATOM     10  C   UNL     1     -17.404 -40.641  21.998  1.00  0.00     0.030 A 
ATOM     11  C   UNL     1     -18.811 -41.817  23.567  1.00  0.00    -0.010 A 
ATOM     12  C   UNL     1     -18.639 -40.810  22.608  1.00  0.00     0.043 A 
ATOM     13  C   UNL     1     -20.229 -41.794  24.072  1.00  0.00     0.042 C 
ATOM     14  N   UNL     1     -19.801 -40.048  22.416  1.00  0.00    -0.348 N 
ATOM     15  C   UNL     1     -20.996 -43.078  23.810  1.00  0.00     0.045 C 
ATOM     16  C   UNL     1     -20.876 -40.801  23.073  1.00  0.00     0.225 C 
ATOM     17  C   UNL     1     -21.365 -42.958  22.347  1.00  0.00     0.164 C 
ATOM     18  O   UNL     1     -21.626 -41.571  22.112  1.00  0.00    -0.357 OA
ATOM     19  C   UNL     1     -20.290 -41.327  25.522  1.00  0.00     0.021 C 
ATOM     20  C   UNL     1     -20.052 -39.490  21.101  1.00  0.00     0.146 C 
ENDBRANCH   1   7
TORSDOF 2
ENDMDL
