MODEL 1
REMARK VINA RESULT:   -11.650      0.000      0.000
REMARK INTER + INTRA:         -16.388
REMARK INTER:                 -15.736
REMARK INTRA:                  -0.652
REMARK UNBOUND:                -0.652
REMARK SMILES COc1ccc2onc(CC[C@H]3CC[N@H+](Cc4ccccc4)CC3)c2c1
REMARK SMILES IDX 11 1 12 2 14 3 15 4 13 5 23 6 24 7 16 9 17 10 18 11 22 12
REMARK SMILES IDX 19 13 21 14 20 15 10 16 9 17 8 18 25 19 7 20 26 21 6 22 3 23
REMARK SMILES IDX 5 24 4 25 2 26 1 27
REMARK H PARENT 15 8
ROOT
ATOM      1  C   UNL     1     -13.699 -45.410  26.481  1.00  0.00     0.010 C 
ENDROOT
BRANCH   1   2
ATOM      2  C   UNL     1     -13.098 -45.943  27.801  1.00  0.00     0.000 C 
ATOM      3  C   UNL     1     -12.878 -45.649  30.302  1.00  0.00     0.262 C 
ATOM      4  N   UNL     1     -11.376 -45.713  30.157  1.00  0.00    -0.331 N 
ATOM      5  C   UNL     1     -13.491 -45.100  29.020  1.00  0.00     0.065 C 
ATOM      6  C   UNL     1     -10.952 -46.561  28.986  1.00  0.00     0.262 C 
ATOM      7  C   UNL     1     -11.567 -46.014  27.704  1.00  0.00     0.065 C 
ATOM      8  H   UNL     1     -11.050 -44.754  29.988  1.00  0.00     0.348 HD
BRANCH   4   9
ATOM      9  C   UNL     1     -10.693 -46.163  31.434  1.00  0.00     0.299 C 
BRANCH   9  10
ATOM     10  C   UNL     1      -9.520 -45.301  31.811  1.00  0.00     0.006 A 
ATOM     11  C   UNL     1      -8.207 -45.749  31.589  1.00  0.00     0.009 A 
ATOM     12  C   UNL     1      -9.719 -44.029  32.369  1.00  0.00     0.009 A 
ATOM     13  C   UNL     1      -7.120 -44.937  31.914  1.00  0.00     0.001 A 
ATOM     14  C   UNL     1      -8.628 -43.221  32.692  1.00  0.00     0.001 A 
ATOM     15  C   UNL     1      -7.330 -43.673  32.462  1.00  0.00     0.000 A 
ENDBRANCH   9  10
ENDBRANCH   4   9
ENDBRANCH   1   2
BRANCH   1  16
ATOM     16  C   UNL     1     -13.898 -43.888  26.408  1.00  0.00     0.061 C 
BRANCH  16  17
ATOM     17  C   UNL     1     -14.880 -43.466  25.369  1.00  0.00     0.092 A 
ATOM     18  N   UNL     1     -14.533 -43.500  24.073  1.00  0.00    -0.084 NA
ATOM     19  C   UNL     1     -16.205 -42.991  25.543  1.00  0.00     0.049 A 
ATOM     20  O   UNL     1     -15.641 -43.044  23.378  1.00  0.00    -0.356 OA
ATOM     21  C   UNL     1     -17.082 -42.742  26.617  1.00  0.00     0.060 A 
ATOM     22  C   UNL     1     -16.636 -42.740  24.252  1.00  0.00     0.167 A 
ATOM     23  C   UNL     1     -18.363 -42.247  26.332  1.00  0.00     0.119 A 
ATOM     24  C   UNL     1     -17.894 -42.249  23.928  1.00  0.00     0.054 A 
ATOM     25  C   UNL     1     -18.752 -42.005  25.007  1.00  0.00     0.050 A 
BRANCH  23  26
ATOM     26  O   UNL     1     -19.326 -41.953  27.260  1.00  0.00    -0.497 OA
ATOM     27  C   UNL     1     -20.499 -41.297  26.796  1.00  0.00     0.278 C 
ENDBRANCH  23  26
ENDBRANCH  16  17
ENDBRANCH   1  16
TORSDOF 6
ENDMDL
MODEL 2
REMARK VINA RESULT:   -11.392      1.301      2.160
REMARK INTER + INTRA:         -16.040
REMARK INTER:                 -15.510
REMARK INTRA:                  -0.531
REMARK UNBOUND:                -0.652
REMARK SMILES COc1ccc2onc(CC[C@H]3CC[N@H+](Cc4ccccc4)CC3)c2c1
REMARK SMILES IDX 11 1 12 2 14 3 15 4 13 5 23 6 24 7 16 9 17 10 18 11 22 12
REMARK SMILES IDX 19 13 21 14 20 15 10 16 9 17 8 18 25 19 7 20 26 21 6 22 3 23
REMARK SMILES IDX 5 24 4 25 2 26 1 27
REMARK H PARENT 15 8
ROOT
ATOM      1  C   UNL     1     -13.999 -44.924  26.596  1.00  0.00     0.010 C 
ENDROOT
BRANCH   1   2
ATOM      2  C   UNL     1     -13.324 -45.627  27.794  1.00  0.00     0.000 C 
ATOM      3  C   UNL     1     -13.073 -45.764  30.306  1.00  0.00     0.262 C 
ATOM      4  N   UNL     1     -11.574 -45.669  30.140  1.00  0.00    -0.331 N 
ATOM      5  C   UNL     1     -13.760 -45.052  29.147  1.00  0.00     0.065 C 
ATOM      6  C   UNL     1     -11.107 -46.255  28.834  1.00  0.00     0.262 C 
ATOM      7  C   UNL     1     -11.796 -45.545  27.674  1.00  0.00     0.065 C 
ATOM      8  H   UNL     1     -11.336 -44.670  30.143  1.00  0.00     0.348 HD
BRANCH   4   9
ATOM      9  C   UNL     1     -10.826 -46.276  31.312  1.00  0.00     0.299 C 
BRANCH   9  10
ATOM     10  C   UNL     1      -9.567 -45.530  31.658  1.00  0.00     0.006 A 
ATOM     11  C   UNL     1      -8.310 -46.116  31.438  1.00  0.00     0.009 A 
ATOM     12  C   UNL     1      -9.629 -44.231  32.186  1.00  0.00     0.009 A 
ATOM     13  C   UNL     1      -7.142 -45.412  31.734  1.00  0.00     0.001 A 
ATOM     14  C   UNL     1      -8.458 -43.532  32.480  1.00  0.00     0.001 A 
ATOM     15  C   UNL     1      -7.216 -44.121  32.252  1.00  0.00     0.000 A 
ENDBRANCH   9  10
ENDBRANCH   4   9
ENDBRANCH   1   2
BRANCH   1  16
ATOM     16  C   UNL     1     -14.185 -43.405  26.735  1.00  0.00     0.061 C 
BRANCH  16  17
ATOM     17  C   UNL     1     -15.602 -42.997  26.956  1.00  0.00     0.092 A 
ATOM     18  N   UNL     1     -16.070 -42.869  28.207  1.00  0.00    -0.084 NA
ATOM     19  C   UNL     1     -16.604 -42.716  25.991  1.00  0.00     0.049 A 
ATOM     20  O   UNL     1     -17.398 -42.497  28.072  1.00  0.00    -0.356 OA
ATOM     21  C   UNL     1     -16.708 -42.688  24.587  1.00  0.00     0.060 A 
ATOM     22  C   UNL     1     -17.715 -42.407  26.754  1.00  0.00     0.167 A 
ATOM     23  C   UNL     1     -17.943 -42.345  24.016  1.00  0.00     0.119 A 
ATOM     24  C   UNL     1     -18.955 -42.065  26.229  1.00  0.00     0.054 A 
ATOM     25  C   UNL     1     -19.042 -42.044  24.832  1.00  0.00     0.050 A 
BRANCH  23  26
ATOM     26  O   UNL     1     -18.207 -42.276  22.674  1.00  0.00    -0.497 OA
ATOM     27  C   UNL     1     -18.931 -41.144  22.210  1.00  0.00     0.278 C 
ENDBRANCH  23  26
ENDBRANCH  16  17
ENDBRANCH   1  16
TORSDOF 6
ENDMDL
MODEL 3
REMARK VINA RESULT:   -11.315      3.387      8.726
REMARK INTER + INTRA:         -15.936
REMARK INTER:                 -15.106
REMARK INTRA:                  -0.829
REMARK UNBOUND:                -0.652
REMARK SMILES COc1ccc2onc(CC[C@H]3CC[N@H+](Cc4ccccc4)CC3)c2c1
REMARK SMILES IDX 11 1 12 2 14 3 15 4 13 5 23 6 24 7 16 9 17 10 18 11 22 12
REMARK SMILES IDX 19 13 21 14 20 15 10 16 9 17 8 18 25 19 7 20 26 21 6 22 3 23
REMARK SMILES IDX 5 24 4 25 2 26 1 27
REMARK H PARENT 15 8
ROOT
ATOM      1  C   UNL     1     -10.951 -46.412  29.043  1.00  0.00     0.010 C 
ENDROOT
BRANCH   1   2
ATOM      2  C   UNL     1     -11.612 -45.503  27.984  1.00  0.00     0.000 C 
ATOM      3  C   UNL     1     -12.218 -43.149  27.290  1.00  0.00     0.262 C 
ATOM      4  N   UNL     1     -13.648 -43.596  27.094  1.00  0.00    -0.331 N 
ATOM      5  C   UNL     1     -11.553 -44.015  28.352  1.00  0.00     0.065 C 
ATOM      6  C   UNL     1     -13.742 -45.047  26.700  1.00  0.00     0.262 C 
ATOM      7  C   UNL     1     -13.074 -45.914  27.760  1.00  0.00     0.065 C 
ATOM      8  H   UNL     1     -14.123 -43.482  27.998  1.00  0.00     0.348 HD
BRANCH   4   9
ATOM      9  C   UNL     1     -14.398 -42.713  26.116  1.00  0.00     0.299 C 
BRANCH   9  10
ATOM     10  C   UNL     1     -15.870 -42.626  26.411  1.00  0.00     0.006 A 
ATOM     11  C   UNL     1     -16.329 -42.570  27.738  1.00  0.00     0.009 A 
ATOM     12  C   UNL     1     -16.806 -42.577  25.366  1.00  0.00     0.009 A 
ATOM     13  C   UNL     1     -17.693 -42.462  28.009  1.00  0.00     0.001 A 
ATOM     14  C   UNL     1     -18.169 -42.468  25.643  1.00  0.00     0.001 A 
ATOM     15  C   UNL     1     -18.612 -42.408  26.963  1.00  0.00     0.000 A 
ENDBRANCH   9  10
ENDBRANCH   4   9
ENDBRANCH   1   2
BRANCH   1  16
ATOM     16  C   UNL     1     -11.391 -46.170  30.495  1.00  0.00     0.061 C 
BRANCH  16  17
ATOM     17  C   UNL     1     -10.446 -45.316  31.269  1.00  0.00     0.092 A 
ATOM     18  N   UNL     1      -9.126 -45.547  31.194  1.00  0.00    -0.084 NA
ATOM     19  C   UNL     1     -10.739 -44.235  32.140  1.00  0.00     0.049 A 
ATOM     20  O   UNL     1      -8.535 -44.608  32.023  1.00  0.00    -0.356 OA
ATOM     21  C   UNL     1     -11.886 -43.562  32.603  1.00  0.00     0.060 A 
ATOM     22  C   UNL     1      -9.494 -43.828  32.586  1.00  0.00     0.167 A 
ATOM     23  C   UNL     1     -11.718 -42.499  33.502  1.00  0.00     0.119 A 
ATOM     24  C   UNL     1      -9.285 -42.782  33.478  1.00  0.00     0.054 A 
ATOM     25  C   UNL     1     -10.436 -42.125  33.929  1.00  0.00     0.050 A 
BRANCH  23  26
ATOM     26  O   UNL     1     -12.728 -41.749  34.045  1.00  0.00    -0.497 OA
ATOM     27  C   UNL     1     -14.062 -42.148  33.758  1.00  0.00     0.278 C 
ENDBRANCH  23  26
ENDBRANCH  16  17
ENDBRANCH   1  16
TORSDOF 6
ENDMDL
MODEL 4
REMARK VINA RESULT:   -11.065      3.262      8.977
REMARK INTER + INTRA:         -15.598
REMARK INTER:                 -14.648
REMARK INTRA:                  -0.950
REMARK UNBOUND:                -0.652
REMARK SMILES COc1ccc2onc(CC[C@H]3CC[N@H+](Cc4ccccc4)CC3)c2c1
REMARK SMILES IDX 11 1 12 2 14 3 15 4 13 5 23 6 24 7 16 9 17 10 18 11 22 12
REMARK SMILES IDX 19 13 21 14 20 15 10 16 9 17 8 18 25 19 7 20 26 21 6 22 3 23
REMARK SMILES IDX 5 24 4 25 2 26 1 27
REMARK H PARENT 15 8
ROOT
ATOM      1  C   UNL     1     -10.909 -45.996  29.224  1.00  0.00     0.010 C 
ENDROOT
BRANCH   1   2
ATOM      2  C   UNL     1     -11.615 -45.277  28.054  1.00  0.00     0.000 C 
ATOM      3  C   UNL     1     -12.381 -43.078  27.068  1.00  0.00     0.262 C 
ATOM      4  N   UNL     1     -13.769 -43.655  26.913  1.00  0.00    -0.331 N 
ATOM      5  C   UNL     1     -11.675 -43.755  28.236  1.00  0.00     0.065 C 
ATOM      6  C   UNL     1     -13.746 -45.146  26.699  1.00  0.00     0.262 C 
ATOM      7  C   UNL     1     -13.037 -45.824  27.866  1.00  0.00     0.065 C 
ATOM      8  H   UNL     1     -14.270 -43.468  27.790  1.00  0.00     0.348 HD
BRANCH   4   9
ATOM      9  C   UNL     1     -14.563 -42.959  25.825  1.00  0.00     0.299 C 
BRANCH   9  10
ATOM     10  C   UNL     1     -16.003 -42.736  26.197  1.00  0.00     0.006 A 
ATOM     11  C   UNL     1     -16.383 -42.639  27.546  1.00  0.00     0.009 A 
ATOM     12  C   UNL     1     -16.985 -42.601  25.204  1.00  0.00     0.009 A 
ATOM     13  C   UNL     1     -17.715 -42.406  27.889  1.00  0.00     0.001 A 
ATOM     14  C   UNL     1     -18.316 -42.368  25.552  1.00  0.00     0.001 A 
ATOM     15  C   UNL     1     -18.680 -42.268  26.894  1.00  0.00     0.000 A 
ENDBRANCH   9  10
ENDBRANCH   4   9
ENDBRANCH   1   2
BRANCH   1  16
ATOM     16  C   UNL     1     -11.808 -46.372  30.412  1.00  0.00     0.061 C 
BRANCH  16  17
ATOM     17  C   UNL     1     -12.157 -45.214  31.284  1.00  0.00     0.092 A 
ATOM     18  N   UNL     1     -13.443 -44.867  31.445  1.00  0.00    -0.084 NA
ATOM     19  C   UNL     1     -11.289 -44.357  32.009  1.00  0.00     0.049 A 
ATOM     20  O   UNL     1     -13.430 -43.767  32.288  1.00  0.00    -0.356 OA
ATOM     21  C   UNL     1      -9.902 -44.225  32.216  1.00  0.00     0.060 A 
ATOM     22  C   UNL     1     -12.149 -43.464  32.623  1.00  0.00     0.167 A 
ATOM     23  C   UNL     1      -9.447 -43.188  33.042  1.00  0.00     0.119 A 
ATOM     24  C   UNL     1     -11.738 -42.422  33.446  1.00  0.00     0.054 A 
ATOM     25  C   UNL     1     -10.357 -42.304  33.640  1.00  0.00     0.050 A 
BRANCH  23  26
ATOM     26  O   UNL     1      -8.136 -42.925  33.340  1.00  0.00    -0.497 OA
ATOM     27  C   UNL     1      -7.147 -43.665  32.636  1.00  0.00     0.278 C 
ENDBRANCH  23  26
ENDBRANCH  16  17
ENDBRANCH   1  16
TORSDOF 6
ENDMDL
MODEL 5
REMARK VINA RESULT:   -10.748      1.817      2.813
REMARK INTER + INTRA:         -15.170
REMARK INTER:                 -14.435
REMARK INTRA:                  -0.735
REMARK UNBOUND:                -0.652
REMARK SMILES COc1ccc2onc(CC[C@H]3CC[N@H+](Cc4ccccc4)CC3)c2c1
REMARK SMILES IDX 11 1 12 2 14 3 15 4 13 5 23 6 24 7 16 9 17 10 18 11 22 12
REMARK SMILES IDX 19 13 21 14 20 15 10 16 9 17 8 18 25 19 7 20 26 21 6 22 3 23
REMARK SMILES IDX 5 24 4 25 2 26 1 27
REMARK H PARENT 15 8
ROOT
ATOM      1  C   UNL     1     -13.191 -45.621  27.270  1.00  0.00     0.010 C 
ENDROOT
BRANCH   1   2
ATOM      2  C   UNL     1     -11.879 -45.500  28.076  1.00  0.00     0.000 C 
ATOM      3  C   UNL     1     -10.661 -46.009  30.232  1.00  0.00     0.262 C 
ATOM      4  N   UNL     1     -10.297 -44.547  30.347  1.00  0.00    -0.331 N 
ATOM      5  C   UNL     1     -11.968 -46.149  29.463  1.00  0.00     0.065 C 
ATOM      6  C   UNL     1     -10.170 -43.883  29.001  1.00  0.00     0.262 C 
ATOM      7  C   UNL     1     -11.476 -44.026  28.230  1.00  0.00     0.065 C 
ATOM      8  H   UNL     1     -11.062 -44.087  30.856  1.00  0.00     0.348 HD
BRANCH   4   9
ATOM      9  C   UNL     1      -9.052 -44.327  31.186  1.00  0.00     0.299 C 
BRANCH   9  10
ATOM     10  C   UNL     1      -9.315 -43.529  32.433  1.00  0.00     0.006 A 
ATOM     11  C   UNL     1      -8.252 -43.137  33.264  1.00  0.00     0.009 A 
ATOM     12  C   UNL     1     -10.621 -43.147  32.775  1.00  0.00     0.009 A 
ATOM     13  C   UNL     1      -8.494 -42.374  34.406  1.00  0.00     0.001 A 
ATOM     14  C   UNL     1     -10.857 -42.383  33.918  1.00  0.00     0.001 A 
ATOM     15  C   UNL     1      -9.794 -41.995  34.732  1.00  0.00     0.000 A 
ENDBRANCH   9  10
ENDBRANCH   4   9
ENDBRANCH   1   2
BRANCH   1  16
ATOM     16  C   UNL     1     -13.639 -44.348  26.536  1.00  0.00     0.061 C 
BRANCH  16  17
ATOM     17  C   UNL     1     -14.898 -43.761  27.077  1.00  0.00     0.092 A 
ATOM     18  N   UNL     1     -15.097 -43.720  28.403  1.00  0.00    -0.084 NA
ATOM     19  C   UNL     1     -15.998 -43.213  26.367  1.00  0.00     0.049 A 
ATOM     20  O   UNL     1     -16.342 -43.137  28.577  1.00  0.00    -0.356 OA
ATOM     21  C   UNL     1     -16.355 -42.995  25.022  1.00  0.00     0.060 A 
ATOM     22  C   UNL     1     -16.878 -42.837  27.365  1.00  0.00     0.167 A 
ATOM     23  C   UNL     1     -17.595 -42.401  24.749  1.00  0.00     0.119 A 
ATOM     24  C   UNL     1     -18.116 -42.248  27.137  1.00  0.00     0.054 A 
ATOM     25  C   UNL     1     -18.456 -42.040  25.795  1.00  0.00     0.050 A 
BRANCH  23  26
ATOM     26  O   UNL     1     -18.088 -42.126  23.500  1.00  0.00    -0.497 OA
ATOM     27  C   UNL     1     -17.169 -41.639  22.530  1.00  0.00     0.278 C 
ENDBRANCH  23  26
ENDBRANCH  16  17
ENDBRANCH   1  16
TORSDOF 6
ENDMDL
MODEL 6
REMARK VINA RESULT:   -10.411      3.170      9.485
REMARK INTER + INTRA:         -14.714
REMARK INTER:                 -14.460
REMARK INTRA:                  -0.254
REMARK UNBOUND:                -0.652
REMARK SMILES COc1ccc2onc(CC[C@H]3CC[N@H+](Cc4ccccc4)CC3)c2c1
REMARK SMILES IDX 11 1 12 2 14 3 15 4 13 5 23 6 24 7 16 9 17 10 18 11 22 12
REMARK SMILES IDX 19 13 21 14 20 15 10 16 9 17 8 18 25 19 7 20 26 21 6 22 3 23
REMARK SMILES IDX 5 24 4 25 2 26 1 27
REMARK H PARENT 15 8
ROOT
ATOM      1  C   UNL     1     -12.780 -45.547  27.612  1.00  0.00     0.010 C 
ENDROOT
BRANCH   1   2
ATOM      2  C   UNL     1     -13.524 -44.473  26.788  1.00  0.00     0.000 C 
ATOM      3  C   UNL     1     -15.341 -42.715  26.745  1.00  0.00     0.262 C 
ATOM      4  N   UNL     1     -15.914 -43.367  25.508  1.00  0.00    -0.331 N 
ATOM      5  C   UNL     1     -14.624 -43.763  27.587  1.00  0.00     0.065 C 
ATOM      6  C   UNL     1     -14.855 -44.049  24.680  1.00  0.00     0.262 C 
ATOM      7  C   UNL     1     -14.135 -45.094  25.523  1.00  0.00     0.065 C 
ATOM      8  H   UNL     1     -16.576 -44.084  25.827  1.00  0.00     0.348 HD
BRANCH   4   9
ATOM      9  C   UNL     1     -16.724 -42.397  24.669  1.00  0.00     0.299 C 
BRANCH   9  10
ATOM     10  C   UNL     1     -18.090 -42.125  25.237  1.00  0.00     0.006 A 
ATOM     11  C   UNL     1     -18.325 -42.249  26.616  1.00  0.00     0.009 A 
ATOM     12  C   UNL     1     -19.143 -41.723  24.401  1.00  0.00     0.009 A 
ATOM     13  C   UNL     1     -19.585 -41.970  27.145  1.00  0.00     0.001 A 
ATOM     14  C   UNL     1     -20.402 -41.445  24.935  1.00  0.00     0.001 A 
ATOM     15  C   UNL     1     -20.621 -41.566  26.306  1.00  0.00     0.000 A 
ENDBRANCH   9  10
ENDBRANCH   4   9
ENDBRANCH   1   2
BRANCH   1  16
ATOM     16  C   UNL     1     -13.068 -45.545  29.121  1.00  0.00     0.061 C 
BRANCH  16  17
ATOM     17  C   UNL     1     -11.839 -45.609  29.961  1.00  0.00     0.092 A 
ATOM     18  N   UNL     1     -11.747 -46.525  30.938  1.00  0.00    -0.084 NA
ATOM     19  C   UNL     1     -10.679 -44.794  29.898  1.00  0.00     0.049 A 
ATOM     20  O   UNL     1     -10.511 -46.317  31.529  1.00  0.00    -0.356 OA
ATOM     21  C   UNL     1     -10.216 -43.713  29.123  1.00  0.00     0.060 A 
ATOM     22  C   UNL     1      -9.876 -45.287  30.911  1.00  0.00     0.167 A 
ATOM     23  C   UNL     1      -8.951 -43.178  29.412  1.00  0.00     0.119 A 
ATOM     24  C   UNL     1      -8.620 -44.785  31.230  1.00  0.00     0.054 A 
ATOM     25  C   UNL     1      -8.176 -43.710  30.452  1.00  0.00     0.050 A 
BRANCH  23  26
ATOM     26  O   UNL     1      -8.363 -42.130  28.755  1.00  0.00    -0.497 OA
ATOM     27  C   UNL     1      -8.495 -42.091  27.340  1.00  0.00     0.278 C 
ENDBRANCH  23  26
ENDBRANCH  16  17
ENDBRANCH   1  16
TORSDOF 6
ENDMDL
MODEL 7
REMARK VINA RESULT:   -10.231      3.310     10.690
REMARK INTER + INTRA:         -14.472
REMARK INTER:                 -13.921
REMARK INTRA:                  -0.551
REMARK UNBOUND:                -0.652
REMARK SMILES COc1ccc2onc(CC[C@H]3CC[N@H+](Cc4ccccc4)CC3)c2c1
REMARK SMILES IDX 11 1 12 2 14 3 15 4 13 5 23 6 24 7 16 9 17 10 18 11 22 12
REMARK SMILES IDX 19 13 21 14 20 15 10 16 9 17 8 18 25 19 7 20 26 21 6 22 3 23
REMARK SMILES IDX 5 24 4 25 2 26 1 27
REMARK H PARENT 15 8
ROOT
ATOM      1  C   UNL     1     -14.627 -42.811  26.020  1.00  0.00     0.010 C 
ENDROOT
BRANCH   1   2
ATOM      2  C   UNL     1     -15.916 -43.057  25.207  1.00  0.00     0.000 C 
ATOM      3  C   UNL     1     -17.125 -42.759  23.007  1.00  0.00     0.262 C 
ATOM      4  N   UNL     1     -18.290 -42.150  23.752  1.00  0.00    -0.331 N 
ATOM      5  C   UNL     1     -15.837 -42.504  23.778  1.00  0.00     0.065 C 
ATOM      6  C   UNL     1     -18.418 -42.694  25.151  1.00  0.00     0.262 C 
ATOM      7  C   UNL     1     -17.128 -42.443  25.923  1.00  0.00     0.065 C 
ATOM      8  H   UNL     1     -18.107 -41.141  23.820  1.00  0.00     0.348 HD
BRANCH   4   9
ATOM      9  C   UNL     1     -19.594 -42.284  22.991  1.00  0.00     0.299 C 
BRANCH   9  10
ATOM     10  C   UNL     1     -19.991 -41.024  22.274  1.00  0.00     0.006 A 
ATOM     11  C   UNL     1     -19.325 -40.633  21.100  1.00  0.00     0.009 A 
ATOM     12  C   UNL     1     -21.046 -40.231  22.752  1.00  0.00     0.009 A 
ATOM     13  C   UNL     1     -19.712 -39.478  20.421  1.00  0.00     0.001 A 
ATOM     14  C   UNL     1     -21.429 -39.077  22.069  1.00  0.00     0.001 A 
ATOM     15  C   UNL     1     -20.764 -38.702  20.903  1.00  0.00     0.000 A 
ENDBRANCH   9  10
ENDBRANCH   4   9
ENDBRANCH   1   2
BRANCH   1  16
ATOM     16  C   UNL     1     -13.826 -44.068  26.393  1.00  0.00     0.061 C 
BRANCH  16  17
ATOM     17  C   UNL     1     -13.880 -44.399  27.846  1.00  0.00     0.092 A 
ATOM     18  N   UNL     1     -14.963 -44.066  28.564  1.00  0.00    -0.084 NA
ATOM     19  C   UNL     1     -12.900 -45.042  28.645  1.00  0.00     0.049 A 
ATOM     20  O   UNL     1     -14.701 -44.493  29.856  1.00  0.00    -0.356 OA
ATOM     21  C   UNL     1     -11.615 -45.590  28.464  1.00  0.00     0.060 A 
ATOM     22  C   UNL     1     -13.473 -45.073  29.904  1.00  0.00     0.167 A 
ATOM     23  C   UNL     1     -10.966 -46.150  29.574  1.00  0.00     0.119 A 
ATOM     24  C   UNL     1     -12.863 -45.615  31.029  1.00  0.00     0.054 A 
ATOM     25  C   UNL     1     -11.586 -46.154  30.832  1.00  0.00     0.050 A 
BRANCH  23  26
ATOM     26  O   UNL     1      -9.719 -46.718  29.564  1.00  0.00    -0.497 OA
ATOM     27  C   UNL     1      -8.914 -46.541  30.722  1.00  0.00     0.278 C 
ENDBRANCH  23  26
ENDBRANCH  16  17
ENDBRANCH   1  16
TORSDOF 6
ENDMDL
MODEL 8
REMARK VINA RESULT:    -9.752      1.841      2.854
REMARK INTER + INTRA:         -13.825
REMARK INTER:                 -12.968
REMARK INTRA:                  -0.856
REMARK UNBOUND:                -0.652
REMARK SMILES COc1ccc2onc(CC[C@H]3CC[N@H+](Cc4ccccc4)CC3)c2c1
REMARK SMILES IDX 11 1 12 2 14 3 15 4 13 5 23 6 24 7 16 9 17 10 18 11 22 12
REMARK SMILES IDX 19 13 21 14 20 15 10 16 9 17 8 18 25 19 7 20 26 21 6 22 3 23
REMARK SMILES IDX 5 24 4 25 2 26 1 27
REMARK H PARENT 15 8
ROOT
ATOM      1  C   UNL     1     -14.671 -43.951  24.551  1.00  0.00     0.010 C 
ENDROOT
BRANCH   1   2
ATOM      2  C   UNL     1     -14.723 -44.440  26.015  1.00  0.00     0.000 C 
ATOM      3  C   UNL     1     -15.173 -43.852  28.433  1.00  0.00     0.262 C 
ATOM      4  N   UNL     1     -13.821 -44.418  28.801  1.00  0.00    -0.331 N 
ATOM      5  C   UNL     1     -15.137 -43.339  26.999  1.00  0.00     0.065 C 
ATOM      6  C   UNL     1     -13.396 -45.526  27.873  1.00  0.00     0.262 C 
ATOM      7  C   UNL     1     -13.363 -45.014  26.439  1.00  0.00     0.065 C 
ATOM      8  H   UNL     1     -13.143 -43.652  28.712  1.00  0.00     0.348 HD
BRANCH   4   9
ATOM      9  C   UNL     1     -13.758 -44.862  30.250  1.00  0.00     0.299 C 
BRANCH   9  10
ATOM     10  C   UNL     1     -12.362 -44.859  30.807  1.00  0.00     0.006 A 
ATOM     11  C   UNL     1     -11.783 -43.667  31.271  1.00  0.00     0.009 A 
ATOM     12  C   UNL     1     -11.625 -46.050  30.892  1.00  0.00     0.009 A 
ATOM     13  C   UNL     1     -10.497 -43.670  31.813  1.00  0.00     0.001 A 
ATOM     14  C   UNL     1     -10.339 -46.049  31.435  1.00  0.00     0.001 A 
ATOM     15  C   UNL     1      -9.777 -44.860  31.897  1.00  0.00     0.000 A 
ENDBRANCH   9  10
ENDBRANCH   4   9
ENDBRANCH   1   2
BRANCH   1  16
ATOM     16  C   UNL     1     -14.678 -42.427  24.358  1.00  0.00     0.061 C 
BRANCH  16  17
ATOM     17  C   UNL     1     -15.825 -41.936  23.541  1.00  0.00     0.092 A 
ATOM     18  N   UNL     1     -15.591 -41.254  22.410  1.00  0.00    -0.084 NA
ATOM     19  C   UNL     1     -17.214 -42.074  23.791  1.00  0.00     0.049 A 
ATOM     20  O   UNL     1     -16.840 -40.935  21.901  1.00  0.00    -0.356 OA
ATOM     21  C   UNL     1     -18.035 -42.657  24.777  1.00  0.00     0.060 A 
ATOM     22  C   UNL     1     -17.806 -41.423  22.724  1.00  0.00     0.167 A 
ATOM     23  C   UNL     1     -19.426 -42.554  24.633  1.00  0.00     0.119 A 
ATOM     24  C   UNL     1     -19.178 -41.296  22.546  1.00  0.00     0.054 A 
ATOM     25  C   UNL     1     -19.978 -41.879  23.535  1.00  0.00     0.050 A 
BRANCH  23  26
ATOM     26  O   UNL     1     -20.355 -43.062  25.502  1.00  0.00    -0.497 OA
ATOM     27  C   UNL     1     -21.725 -42.823  25.204  1.00  0.00     0.278 C 
ENDBRANCH  23  26
ENDBRANCH  16  17
ENDBRANCH   1  16
TORSDOF 6
ENDMDL
MODEL 9
REMARK VINA RESULT:    -9.714      2.953      9.459
REMARK INTER + INTRA:         -13.773
REMARK INTER:                 -13.262
REMARK INTRA:                  -0.511
REMARK UNBOUND:                -0.652
REMARK SMILES COc1ccc2onc(CC[C@H]3CC[N@H+](Cc4ccccc4)CC3)c2c1
REMARK SMILES IDX 11 1 12 2 14 3 15 4 13 5 23 6 24 7 16 9 17 10 18 11 22 12
REMARK SMILES IDX 19 13 21 14 20 15 10 16 9 17 8 18 25 19 7 20 26 21 6 22 3 23
REMARK SMILES IDX 5 24 4 25 2 26 1 27
REMARK H PARENT 15 8
ROOT
ATOM      1  C   UNL     1     -13.024 -43.656  26.839  1.00  0.00     0.010 C 
ENDROOT
BRANCH   1   2
ATOM      2  C   UNL     1     -14.259 -42.924  26.270  1.00  0.00     0.000 C 
ATOM      3  C   UNL     1     -16.752 -42.536  26.425  1.00  0.00     0.262 C 
ATOM      4  N   UNL     1     -16.874 -42.864  24.955  1.00  0.00    -0.331 N 
ATOM      5  C   UNL     1     -15.555 -43.270  27.014  1.00  0.00     0.065 C 
ATOM      6  C   UNL     1     -15.629 -42.507  24.186  1.00  0.00     0.262 C 
ATOM      7  C   UNL     1     -14.430 -43.239  24.777  1.00  0.00     0.065 C 
ATOM      8  H   UNL     1     -17.008 -43.880  24.886  1.00  0.00     0.348 HD
BRANCH   4   9
ATOM      9  C   UNL     1     -18.104 -42.240  24.325  1.00  0.00     0.299 C 
BRANCH   9  10
ATOM     10  C   UNL     1     -19.347 -42.424  25.152  1.00  0.00     0.006 A 
ATOM     11  C   UNL     1     -20.004 -43.665  25.183  1.00  0.00     0.009 A 
ATOM     12  C   UNL     1     -19.857 -41.366  25.920  1.00  0.00     0.009 A 
ATOM     13  C   UNL     1     -21.141 -43.841  25.971  1.00  0.00     0.001 A 
ATOM     14  C   UNL     1     -20.994 -41.548  26.707  1.00  0.00     0.001 A 
ATOM     15  C   UNL     1     -21.635 -42.785  26.734  1.00  0.00     0.000 A 
ENDBRANCH   9  10
ENDBRANCH   4   9
ENDBRANCH   1   2
BRANCH   1  16
ATOM     16  C   UNL     1     -13.310 -44.985  27.555  1.00  0.00     0.061 C 
BRANCH  16  17
ATOM     17  C   UNL     1     -12.127 -45.544  28.268  1.00  0.00     0.092 A 
ATOM     18  N   UNL     1     -11.438 -46.557  27.722  1.00  0.00    -0.084 NA
ATOM     19  C   UNL     1     -11.583 -45.158  29.521  1.00  0.00     0.049 A 
ATOM     20  O   UNL     1     -10.424 -46.848  28.620  1.00  0.00    -0.356 OA
ATOM     21  C   UNL     1     -11.862 -44.205  30.520  1.00  0.00     0.060 A 
ATOM     22  C   UNL     1     -10.511 -46.015  29.691  1.00  0.00     0.167 A 
ATOM     23  C   UNL     1     -11.036 -44.164  31.653  1.00  0.00     0.119 A 
ATOM     24  C   UNL     1      -9.671 -46.009  30.798  1.00  0.00     0.054 A 
ATOM     25  C   UNL     1      -9.964 -45.058  31.782  1.00  0.00     0.050 A 
BRANCH  23  26
ATOM     26  O   UNL     1     -11.176 -43.303  32.708  1.00  0.00    -0.497 OA
ATOM     27  C   UNL     1     -12.464 -42.740  32.924  1.00  0.00     0.278 C 
ENDBRANCH  23  26
ENDBRANCH  16  17
ENDBRANCH   1  16
TORSDOF 6
ENDMDL
