MODEL 1
REMARK VINA RESULT:    -9.542      0.000      0.000
REMARK INTER + INTRA:         -14.531
REMARK INTER:                 -13.167
REMARK INTRA:                  -1.364
REMARK UNBOUND:                -1.364
REMARK SMILES COc1ccc([C@@H]2C=C(c3cc(F)ccc3F)NN2c2ccc(S(N)(=O)=O)cc2)cc1OC
REMARK SMILES IDX 20 1 21 2 22 3 23 4 28 5 29 6 19 7 18 8 9 9 8 10 7 11 10 13
REMARK SMILES IDX 11 14 16 15 12 16 15 17 14 18 17 19 13 20 6 21 5 22 30 23
REMARK SMILES IDX 4 24 31 25 3 26 32 27 33 28 2 29 1 30 24 31 26 32 27 33
REMARK SMILES IDX 25 34
REMARK H PARENT 18 12 25 35 25 36
ROOT
ATOM      1  C   UNL     1     -18.576 -42.086  26.019  1.00  0.00     0.058 A 
ATOM      2  C   UNL     1     -18.102 -42.251  27.336  1.00  0.00     0.029 A 
ATOM      3  C   UNL     1     -16.821 -42.746  27.605  1.00  0.00     0.024 A 
ATOM      4  C   UNL     1     -15.979 -43.071  26.545  1.00  0.00     0.082 A 
ATOM      5  C   UNL     1     -16.413 -42.919  25.228  1.00  0.00     0.024 A 
ATOM      6  C   UNL     1     -17.697 -42.424  24.975  1.00  0.00     0.029 A 
ENDROOT
BRANCH   1   7
ATOM      7  N   UNL     1     -19.862 -41.564  25.784  1.00  0.00    -0.276 N 
ATOM      8  N   UNL     1     -20.677 -41.103  26.814  1.00  0.00    -0.297 N 
ATOM      9  C   UNL     1     -22.017 -41.258  26.486  1.00  0.00     0.063 C 
ATOM     10  C   UNL     1     -22.123 -41.911  25.318  1.00  0.00     0.033 C 
ATOM     11  C   UNL     1     -20.746 -42.200  24.750  1.00  0.00     0.161 C 
ATOM     12  H   UNL     1     -20.461 -40.166  27.156  1.00  0.00     0.188 HD
BRANCH   9  13
ATOM     13  C   UNL     1     -23.090 -40.751  27.345  1.00  0.00     0.038 A 
ATOM     14  C   UNL     1     -23.246 -39.367  27.524  1.00  0.00     0.052 A 
ATOM     15  C   UNL     1     -23.993 -41.602  28.001  1.00  0.00     0.132 A 
ATOM     16  C   UNL     1     -24.267 -38.872  28.331  1.00  0.00     0.124 A 
ATOM     17  C   UNL     1     -25.016 -41.101  28.810  1.00  0.00     0.043 A 
ATOM     18  C   UNL     1     -25.154 -39.725  28.976  1.00  0.00     0.042 A 
ATOM     19  F   UNL     1     -23.909 -42.933  27.856  1.00  0.00    -0.206 F 
ATOM     20  F   UNL     1     -24.397 -37.549  28.489  1.00  0.00    -0.207 F 
ENDBRANCH   9  13
BRANCH  11  21
ATOM     21  C   UNL     1     -20.576 -41.590  23.370  1.00  0.00    -0.016 A 
ATOM     22  C   UNL     1     -20.216 -40.251  23.182  1.00  0.00     0.010 A 
ATOM     23  C   UNL     1     -20.816 -42.373  22.231  1.00  0.00     0.056 A 
ATOM     24  C   UNL     1     -20.098 -39.712  21.896  1.00  0.00     0.051 A 
ATOM     25  C   UNL     1     -20.673 -41.850  20.938  1.00  0.00     0.161 A 
ATOM     26  C   UNL     1     -20.336 -40.497  20.761  1.00  0.00     0.160 A 
BRANCH  25  27
ATOM     27  O   UNL     1     -20.948 -42.764  19.953  1.00  0.00    -0.493 OA
ATOM     28  C   UNL     1     -21.675 -43.920  20.355  1.00  0.00     0.278 C 
ENDBRANCH  25  27
BRANCH  26  29
ATOM     29  O   UNL     1     -20.278 -40.016  19.480  1.00  0.00    -0.493 OA
ATOM     30  C   UNL     1     -21.260 -39.070  19.080  1.00  0.00     0.278 C 
ENDBRANCH  26  29
ENDBRANCH  11  21
ENDBRANCH   1   7
BRANCH   4  31
ATOM     31  S   UNL     1     -14.353 -43.697  26.859  1.00  0.00     0.238 S 
ATOM     32  O   UNL     1     -14.158 -44.892  26.070  1.00  0.00    -0.207 OA
ATOM     33  O   UNL     1     -13.425 -42.592  26.840  1.00  0.00    -0.207 OA
BRANCH  31  34
ATOM     34  N   UNL     1     -14.499 -44.227  28.451  1.00  0.00    -0.225 NA
ATOM     35  H   UNL     1     -14.602 -45.240  28.528  1.00  0.00     0.137 HD
ATOM     36  H   UNL     1     -13.700 -43.885  28.986  1.00  0.00     0.137 HD
ENDBRANCH  31  34
ENDBRANCH   4  31
TORSDOF 7
ENDMDL
MODEL 2
REMARK VINA RESULT:    -9.472      3.463      6.044
REMARK INTER + INTRA:         -14.436
REMARK INTER:                 -13.377
REMARK INTRA:                  -1.059
REMARK UNBOUND:                -1.364
REMARK SMILES COc1ccc([C@@H]2C=C(c3cc(F)ccc3F)NN2c2ccc(S(N)(=O)=O)cc2)cc1OC
REMARK SMILES IDX 20 1 21 2 22 3 23 4 28 5 29 6 19 7 18 8 9 9 8 10 7 11 10 13
REMARK SMILES IDX 11 14 16 15 12 16 15 17 14 18 17 19 13 20 6 21 5 22 30 23
REMARK SMILES IDX 4 24 31 25 3 26 32 27 33 28 2 29 1 30 24 31 26 32 27 33
REMARK SMILES IDX 25 34
REMARK H PARENT 18 12 25 35 25 36
ROOT
ATOM      1  C   UNL     1     -17.612 -42.612  25.224  1.00  0.00     0.058 A 
ATOM      2  C   UNL     1     -16.563 -43.163  24.462  1.00  0.00     0.029 A 
ATOM      3  C   UNL     1     -15.357 -43.564  25.046  1.00  0.00     0.024 A 
ATOM      4  C   UNL     1     -15.188 -43.434  26.422  1.00  0.00     0.082 A 
ATOM      5  C   UNL     1     -16.205 -42.895  27.208  1.00  0.00     0.024 A 
ATOM      6  C   UNL     1     -17.407 -42.497  26.610  1.00  0.00     0.029 A 
ENDROOT
BRANCH   1   7
ATOM      7  N   UNL     1     -18.822 -42.239  24.607  1.00  0.00    -0.276 N 
ATOM      8  N   UNL     1     -18.859 -41.557  23.394  1.00  0.00    -0.297 N 
ATOM      9  C   UNL     1     -19.994 -40.762  23.312  1.00  0.00     0.063 C 
ATOM     10  C   UNL     1     -20.659 -40.804  24.478  1.00  0.00     0.033 C 
ATOM     11  C   UNL     1     -19.963 -41.742  25.447  1.00  0.00     0.161 C 
ATOM     12  H   UNL     1     -18.722 -42.135  22.564  1.00  0.00     0.188 HD
BRANCH   9  13
ATOM     13  C   UNL     1     -20.338 -40.023  22.095  1.00  0.00     0.038 A 
ATOM     14  C   UNL     1     -21.576 -39.367  22.003  1.00  0.00     0.052 A 
ATOM     15  C   UNL     1     -19.464 -39.930  21.000  1.00  0.00     0.132 A 
ATOM     16  C   UNL     1     -21.911 -38.654  20.854  1.00  0.00     0.124 A 
ATOM     17  C   UNL     1     -19.804 -39.214  19.850  1.00  0.00     0.043 A 
ATOM     18  C   UNL     1     -21.038 -38.571  19.777  1.00  0.00     0.042 A 
ATOM     19  F   UNL     1     -18.259 -40.519  21.033  1.00  0.00    -0.206 F 
ATOM     20  F   UNL     1     -23.097 -38.037  20.787  1.00  0.00    -0.207 F 
ENDBRANCH   9  13
BRANCH  11  21
ATOM     21  C   UNL     1     -20.890 -42.854  25.904  1.00  0.00    -0.016 A 
ATOM     22  C   UNL     1     -20.872 -44.128  25.327  1.00  0.00     0.010 A 
ATOM     23  C   UNL     1     -21.827 -42.603  26.918  1.00  0.00     0.056 A 
ATOM     24  C   UNL     1     -21.761 -45.122  25.751  1.00  0.00     0.051 A 
ATOM     25  C   UNL     1     -22.703 -43.601  27.369  1.00  0.00     0.161 A 
ATOM     26  C   UNL     1     -22.694 -44.870  26.765  1.00  0.00     0.160 A 
BRANCH  25  27
ATOM     27  O   UNL     1     -23.544 -43.171  28.364  1.00  0.00    -0.493 OA
ATOM     28  C   UNL     1     -24.412 -42.093  28.029  1.00  0.00     0.278 C 
ENDBRANCH  25  27
BRANCH  26  29
ATOM     29  O   UNL     1     -23.616 -45.787  27.192  1.00  0.00    -0.493 OA
ATOM     30  C   UNL     1     -24.826 -45.906  26.456  1.00  0.00     0.278 C 
ENDBRANCH  26  29
ENDBRANCH  11  21
ENDBRANCH   1   7
BRANCH   4  31
ATOM     31  S   UNL     1     -13.672 -43.938  27.185  1.00  0.00     0.238 S 
ATOM     32  O   UNL     1     -13.279 -45.215  26.632  1.00  0.00    -0.207 OA
ATOM     33  O   UNL     1     -12.782 -42.802  27.229  1.00  0.00    -0.207 OA
BRANCH  31  34
ATOM     34  N   UNL     1     -14.179 -44.264  28.757  1.00  0.00    -0.225 NA
ATOM     35  H   UNL     1     -13.468 -44.734  29.319  1.00  0.00     0.137 HD
ATOM     36  H   UNL     1     -14.490 -43.393  29.189  1.00  0.00     0.137 HD
ENDBRANCH  31  34
ENDBRANCH   4  31
TORSDOF 7
ENDMDL
MODEL 3
REMARK VINA RESULT:    -9.420      1.439      2.323
REMARK INTER + INTRA:         -14.364
REMARK INTER:                 -13.484
REMARK INTRA:                  -0.879
REMARK UNBOUND:                -1.364
REMARK SMILES COc1ccc([C@@H]2C=C(c3cc(F)ccc3F)NN2c2ccc(S(N)(=O)=O)cc2)cc1OC
REMARK SMILES IDX 20 1 21 2 22 3 23 4 28 5 29 6 19 7 18 8 9 9 8 10 7 11 10 13
REMARK SMILES IDX 11 14 16 15 12 16 15 17 14 18 17 19 13 20 6 21 5 22 30 23
REMARK SMILES IDX 4 24 31 25 3 26 32 27 33 28 2 29 1 30 24 31 26 32 27 33
REMARK SMILES IDX 25 34
REMARK H PARENT 18 12 25 35 25 36
ROOT
ATOM      1  C   UNL     1     -18.675 -42.047  26.312  1.00  0.00     0.058 A 
ATOM      2  C   UNL     1     -17.881 -42.436  25.215  1.00  0.00     0.029 A 
ATOM      3  C   UNL     1     -16.575 -42.911  25.379  1.00  0.00     0.024 A 
ATOM      4  C   UNL     1     -16.045 -43.022  26.661  1.00  0.00     0.082 A 
ATOM      5  C   UNL     1     -16.803 -42.649  27.771  1.00  0.00     0.024 A 
ATOM      6  C   UNL     1     -18.107 -42.175  27.591  1.00  0.00     0.029 A 
ENDROOT
BRANCH   1   7
ATOM      7  N   UNL     1     -19.993 -41.594  26.113  1.00  0.00    -0.276 N 
ATOM      8  N   UNL     1     -20.904 -41.476  27.159  1.00  0.00    -0.297 N 
ATOM      9  C   UNL     1     -22.203 -41.657  26.703  1.00  0.00     0.063 C 
ATOM     10  C   UNL     1     -22.180 -42.005  25.406  1.00  0.00     0.033 C 
ATOM     11  C   UNL     1     -20.753 -42.025  24.891  1.00  0.00     0.161 C 
ATOM     12  H   UNL     1     -20.802 -40.638  27.735  1.00  0.00     0.188 HD
BRANCH   9  13
ATOM     13  C   UNL     1     -23.364 -41.474  27.575  1.00  0.00     0.038 A 
ATOM     14  C   UNL     1     -24.039 -42.596  28.085  1.00  0.00     0.052 A 
ATOM     15  C   UNL     1     -23.836 -40.204  27.943  1.00  0.00     0.132 A 
ATOM     16  C   UNL     1     -25.139 -42.435  28.923  1.00  0.00     0.124 A 
ATOM     17  C   UNL     1     -24.940 -40.048  28.784  1.00  0.00     0.043 A 
ATOM     18  C   UNL     1     -25.597 -41.172  29.277  1.00  0.00     0.042 A 
ATOM     19  F   UNL     1     -23.224 -39.093  27.506  1.00  0.00    -0.206 F 
ATOM     20  F   UNL     1     -25.769 -43.518  29.396  1.00  0.00    -0.207 F 
ENDBRANCH   9  13
BRANCH  11  21
ATOM     21  C   UNL     1     -20.573 -41.078  23.718  1.00  0.00    -0.016 A 
ATOM     22  C   UNL     1     -21.552 -40.149  23.349  1.00  0.00     0.010 A 
ATOM     23  C   UNL     1     -19.404 -41.146  22.945  1.00  0.00     0.056 A 
ATOM     24  C   UNL     1     -21.367 -39.312  22.242  1.00  0.00     0.051 A 
ATOM     25  C   UNL     1     -19.198 -40.293  21.852  1.00  0.00     0.161 A 
ATOM     26  C   UNL     1     -20.198 -39.381  21.474  1.00  0.00     0.160 A 
BRANCH  25  27
ATOM     27  O   UNL     1     -17.999 -40.505  21.220  1.00  0.00    -0.493 OA
ATOM     28  C   UNL     1     -16.908 -40.876  22.055  1.00  0.00     0.278 C 
ENDBRANCH  25  27
BRANCH  26  29
ATOM     29  O   UNL     1     -19.980 -38.619  20.357  1.00  0.00    -0.493 OA
ATOM     30  C   UNL     1     -20.982 -38.612  19.350  1.00  0.00     0.278 C 
ENDBRANCH  26  29
ENDBRANCH  11  21
ENDBRANCH   1   7
BRANCH   4  31
ATOM     31  S   UNL     1     -14.396 -43.624  26.894  1.00  0.00     0.238 S 
ATOM     32  O   UNL     1     -14.211 -44.794  26.067  1.00  0.00    -0.207 OA
ATOM     33  O   UNL     1     -13.491 -42.500  26.868  1.00  0.00    -0.207 OA
BRANCH  31  34
ATOM     34  N   UNL     1     -14.468 -44.198  28.476  1.00  0.00    -0.225 NA
ATOM     35  H   UNL     1     -14.252 -43.484  29.172  1.00  0.00     0.137 HD
ATOM     36  H   UNL     1     -15.387 -44.616  28.632  1.00  0.00     0.137 HD
ENDBRANCH  31  34
ENDBRANCH   4  31
TORSDOF 7
ENDMDL
MODEL 4
REMARK VINA RESULT:    -9.243      4.375      8.490
REMARK INTER + INTRA:         -14.120
REMARK INTER:                 -12.758
REMARK INTRA:                  -1.361
REMARK UNBOUND:                -1.364
REMARK SMILES COc1ccc([C@@H]2C=C(c3cc(F)ccc3F)NN2c2ccc(S(N)(=O)=O)cc2)cc1OC
REMARK SMILES IDX 20 1 21 2 22 3 23 4 28 5 29 6 19 7 18 8 9 9 8 10 7 11 10 13
REMARK SMILES IDX 11 14 16 15 12 16 15 17 14 18 17 19 13 20 6 21 5 22 30 23
REMARK SMILES IDX 4 24 31 25 3 26 32 27 33 28 2 29 1 30 24 31 26 32 27 33
REMARK SMILES IDX 25 34
REMARK H PARENT 18 12 25 35 25 36
ROOT
ATOM      1  C   UNL     1     -20.735 -40.493  22.758  1.00  0.00     0.058 A 
ATOM      2  C   UNL     1     -20.096 -39.391  22.157  1.00  0.00     0.029 A 
ATOM      3  C   UNL     1     -20.677 -38.690  21.095  1.00  0.00     0.024 A 
ATOM      4  C   UNL     1     -21.931 -39.075  20.626  1.00  0.00     0.082 A 
ATOM      5  C   UNL     1     -22.593 -40.160  21.199  1.00  0.00     0.024 A 
ATOM      6  C   UNL     1     -21.999 -40.853  22.260  1.00  0.00     0.029 A 
ENDROOT
BRANCH   1   7
ATOM      7  N   UNL     1     -20.132 -41.164  23.840  1.00  0.00    -0.276 N 
ATOM      8  N   UNL     1     -18.758 -41.372  23.913  1.00  0.00    -0.297 N 
ATOM      9  C   UNL     1     -18.473 -42.526  24.629  1.00  0.00     0.063 C 
ATOM     10  C   UNL     1     -19.617 -43.157  24.941  1.00  0.00     0.033 C 
ATOM     11  C   UNL     1     -20.809 -42.360  24.446  1.00  0.00     0.161 C 
ATOM     12  H   UNL     1     -18.211 -40.568  24.227  1.00  0.00     0.188 HD
BRANCH   9  13
ATOM     13  C   UNL     1     -17.100 -42.920  24.953  1.00  0.00     0.038 A 
ATOM     14  C   UNL     1     -16.283 -43.484  23.960  1.00  0.00     0.052 A 
ATOM     15  C   UNL     1     -16.549 -42.743  26.232  1.00  0.00     0.132 A 
ATOM     16  C   UNL     1     -14.973 -43.854  24.254  1.00  0.00     0.124 A 
ATOM     17  C   UNL     1     -15.234 -43.115  26.521  1.00  0.00     0.043 A 
ATOM     18  C   UNL     1     -14.440 -43.676  25.524  1.00  0.00     0.042 A 
ATOM     19  F   UNL     1     -17.271 -42.191  27.219  1.00  0.00    -0.206 F 
ATOM     20  F   UNL     1     -14.212 -44.393  23.292  1.00  0.00    -0.207 F 
ENDBRANCH   9  13
BRANCH  11  21
ATOM     21  C   UNL     1     -21.745 -41.997  25.584  1.00  0.00    -0.016 A 
ATOM     22  C   UNL     1     -21.906 -40.681  26.030  1.00  0.00     0.010 A 
ATOM     23  C   UNL     1     -22.457 -43.008  26.246  1.00  0.00     0.056 A 
ATOM     24  C   UNL     1     -22.754 -40.384  27.104  1.00  0.00     0.051 A 
ATOM     25  C   UNL     1     -23.330 -42.718  27.304  1.00  0.00     0.161 A 
ATOM     26  C   UNL     1     -23.466 -41.396  27.761  1.00  0.00     0.160 A 
BRANCH  25  27
ATOM     27  O   UNL     1     -23.937 -43.833  27.824  1.00  0.00    -0.493 OA
ATOM     28  C   UNL     1     -23.160 -44.603  28.735  1.00  0.00     0.278 C 
ENDBRANCH  25  27
BRANCH  26  29
ATOM     29  O   UNL     1     -24.276 -41.174  28.842  1.00  0.00    -0.493 OA
ATOM     30  C   UNL     1     -24.731 -39.847  29.070  1.00  0.00     0.278 C 
ENDBRANCH  26  29
ENDBRANCH  11  21
ENDBRANCH   1   7
BRANCH   4  31
ATOM     31  S   UNL     1     -22.688 -38.201  19.285  1.00  0.00     0.238 S 
ATOM     32  O   UNL     1     -22.104 -38.662  18.046  1.00  0.00    -0.207 OA
ATOM     33  O   UNL     1     -24.113 -38.164  19.508  1.00  0.00    -0.207 OA
BRANCH  31  34
ATOM     34  N   UNL     1     -22.084 -36.645  19.515  1.00  0.00    -0.225 NA
ATOM     35  H   UNL     1     -22.498 -36.169  20.316  1.00  0.00     0.137 HD
ATOM     36  H   UNL     1     -21.067 -36.695  19.586  1.00  0.00     0.137 HD
ENDBRANCH  31  34
ENDBRANCH   4  31
TORSDOF 7
ENDMDL
MODEL 5
REMARK VINA RESULT:    -8.632      3.404      6.275
REMARK INTER + INTRA:         -13.277
REMARK INTER:                 -11.861
REMARK INTRA:                  -1.416
REMARK UNBOUND:                -1.364
REMARK SMILES COc1ccc([C@@H]2C=C(c3cc(F)ccc3F)NN2c2ccc(S(N)(=O)=O)cc2)cc1OC
REMARK SMILES IDX 20 1 21 2 22 3 23 4 28 5 29 6 19 7 18 8 9 9 8 10 7 11 10 13
REMARK SMILES IDX 11 14 16 15 12 16 15 17 14 18 17 19 13 20 6 21 5 22 30 23
REMARK SMILES IDX 4 24 31 25 3 26 32 27 33 28 2 29 1 30 24 31 26 32 27 33
REMARK SMILES IDX 25 34
REMARK H PARENT 18 12 25 35 25 36
ROOT
ATOM      1  C   UNL     1     -18.819 -42.059  24.655  1.00  0.00     0.058 A 
ATOM      2  C   UNL     1     -17.723 -42.450  23.862  1.00  0.00     0.029 A 
ATOM      3  C   UNL     1     -16.502 -42.835  24.427  1.00  0.00     0.024 A 
ATOM      4  C   UNL     1     -16.366 -42.852  25.812  1.00  0.00     0.082 A 
ATOM      5  C   UNL     1     -17.430 -42.474  26.629  1.00  0.00     0.024 A 
ATOM      6  C   UNL     1     -18.645 -42.090  26.050  1.00  0.00     0.029 A 
ENDROOT
BRANCH   1   7
ATOM      7  N   UNL     1     -20.041 -41.698  24.055  1.00  0.00    -0.276 N 
ATOM      8  N   UNL     1     -20.138 -41.368  22.706  1.00  0.00    -0.297 N 
ATOM      9  C   UNL     1     -21.177 -40.473  22.493  1.00  0.00     0.063 C 
ATOM     10  C   UNL     1     -21.706 -40.106  23.672  1.00  0.00     0.033 C 
ATOM     11  C   UNL     1     -21.015 -40.838  24.808  1.00  0.00     0.161 C 
ATOM     12  H   UNL     1     -20.163 -42.162  22.064  1.00  0.00     0.188 HD
BRANCH   9  13
ATOM     13  C   UNL     1     -21.571 -40.047  21.148  1.00  0.00     0.038 A 
ATOM     14  C   UNL     1     -21.168 -38.790  20.668  1.00  0.00     0.052 A 
ATOM     15  C   UNL     1     -22.337 -40.859  20.297  1.00  0.00     0.132 A 
ATOM     16  C   UNL     1     -21.529 -38.378  19.387  1.00  0.00     0.124 A 
ATOM     17  C   UNL     1     -22.696 -40.441  19.014  1.00  0.00     0.043 A 
ATOM     18  C   UNL     1     -22.289 -39.190  18.555  1.00  0.00     0.042 A 
ATOM     19  F   UNL     1     -22.736 -42.078  20.690  1.00  0.00    -0.206 F 
ATOM     20  F   UNL     1     -21.136 -37.175  18.950  1.00  0.00    -0.207 F 
ENDBRANCH   9  13
BRANCH  11  21
ATOM     21  C   UNL     1     -22.004 -41.645  25.630  1.00  0.00    -0.016 A 
ATOM     22  C   UNL     1     -22.398 -42.938  25.270  1.00  0.00     0.010 A 
ATOM     23  C   UNL     1     -22.580 -41.076  26.776  1.00  0.00     0.056 A 
ATOM     24  C   UNL     1     -23.336 -43.643  26.034  1.00  0.00     0.051 A 
ATOM     25  C   UNL     1     -23.499 -41.785  27.563  1.00  0.00     0.161 A 
ATOM     26  C   UNL     1     -23.907 -43.073  27.179  1.00  0.00     0.160 A 
BRANCH  25  27
ATOM     27  O   UNL     1     -23.951 -41.068  28.642  1.00  0.00    -0.493 OA
ATOM     28  C   UNL     1     -24.154 -39.675  28.428  1.00  0.00     0.278 C 
ENDBRANCH  25  27
BRANCH  26  29
ATOM     29  O   UNL     1     -24.859 -43.696  27.940  1.00  0.00    -0.493 OA
ATOM     30  C   UNL     1     -26.217 -43.571  27.540  1.00  0.00     0.278 C 
ENDBRANCH  26  29
ENDBRANCH  11  21
ENDBRANCH   1   7
BRANCH   4  31
ATOM     31  S   UNL     1     -14.832 -43.339  26.550  1.00  0.00     0.238 S 
ATOM     32  O   UNL     1     -14.430 -44.608  25.986  1.00  0.00    -0.207 OA
ATOM     33  O   UNL     1     -13.957 -42.192  26.587  1.00  0.00    -0.207 OA
BRANCH  31  34
ATOM     34  N   UNL     1     -15.311 -43.679  28.128  1.00  0.00    -0.225 NA
ATOM     35  H   UNL     1     -15.791 -42.899  28.579  1.00  0.00     0.137 HD
ATOM     36  H   UNL     1     -15.883 -44.525  28.123  1.00  0.00     0.137 HD
ENDBRANCH  31  34
ENDBRANCH   4  31
TORSDOF 7
ENDMDL
MODEL 6
REMARK VINA RESULT:    -8.601      4.252      7.345
REMARK INTER + INTRA:         -13.234
REMARK INTER:                 -12.042
REMARK INTRA:                  -1.192
REMARK UNBOUND:                -1.364
REMARK SMILES COc1ccc([C@@H]2C=C(c3cc(F)ccc3F)NN2c2ccc(S(N)(=O)=O)cc2)cc1OC
REMARK SMILES IDX 20 1 21 2 22 3 23 4 28 5 29 6 19 7 18 8 9 9 8 10 7 11 10 13
REMARK SMILES IDX 11 14 16 15 12 16 15 17 14 18 17 19 13 20 6 21 5 22 30 23
REMARK SMILES IDX 4 24 31 25 3 26 32 27 33 28 2 29 1 30 24 31 26 32 27 33
REMARK SMILES IDX 25 34
REMARK H PARENT 18 12 25 35 25 36
ROOT
ATOM      1  C   UNL     1     -21.471 -40.923  25.186  1.00  0.00     0.058 A 
ATOM      2  C   UNL     1     -21.555 -40.878  26.591  1.00  0.00     0.029 A 
ATOM      3  C   UNL     1     -22.586 -40.198  27.249  1.00  0.00     0.024 A 
ATOM      4  C   UNL     1     -23.571 -39.562  26.499  1.00  0.00     0.082 A 
ATOM      5  C   UNL     1     -23.523 -39.588  25.106  1.00  0.00     0.024 A 
ATOM      6  C   UNL     1     -22.484 -40.271  24.462  1.00  0.00     0.029 A 
ENDROOT
BRANCH   1   7
ATOM      7  N   UNL     1     -20.433 -41.635  24.555  1.00  0.00    -0.276 N 
ATOM      8  N   UNL     1     -19.340 -42.134  25.259  1.00  0.00    -0.297 N 
ATOM      9  C   UNL     1     -18.216 -42.191  24.446  1.00  0.00     0.063 C 
ATOM     10  C   UNL     1     -18.495 -41.640  23.253  1.00  0.00     0.033 C 
ATOM     11  C   UNL     1     -19.947 -41.201  23.203  1.00  0.00     0.161 C 
ATOM     12  H   UNL     1     -19.507 -43.007  25.762  1.00  0.00     0.188 HD
BRANCH   9  13
ATOM     13  C   UNL     1     -16.957 -42.784  24.902  1.00  0.00     0.038 A 
ATOM     14  C   UNL     1     -16.112 -43.423  23.981  1.00  0.00     0.052 A 
ATOM     15  C   UNL     1     -16.544 -42.729  26.242  1.00  0.00     0.132 A 
ATOM     16  C   UNL     1     -14.908 -43.982  24.401  1.00  0.00     0.124 A 
ATOM     17  C   UNL     1     -15.335 -43.291  26.659  1.00  0.00     0.043 A 
ATOM     18  C   UNL     1     -14.510 -43.923  25.731  1.00  0.00     0.042 A 
ATOM     19  F   UNL     1     -17.297 -42.116  27.168  1.00  0.00    -0.206 F 
ATOM     20  F   UNL     1     -14.117 -44.588  23.506  1.00  0.00    -0.207 F 
ENDBRANCH   9  13
BRANCH  11  21
ATOM     21  C   UNL     1     -20.690 -41.872  22.062  1.00  0.00    -0.016 A 
ATOM     22  C   UNL     1     -20.849 -41.265  20.812  1.00  0.00     0.010 A 
ATOM     23  C   UNL     1     -21.274 -43.132  22.262  1.00  0.00     0.056 A 
ATOM     24  C   UNL     1     -21.568 -41.899  19.792  1.00  0.00     0.051 A 
ATOM     25  C   UNL     1     -21.972 -43.787  21.237  1.00  0.00     0.161 A 
ATOM     26  C   UNL     1     -22.148 -43.158  19.993  1.00  0.00     0.160 A 
BRANCH  25  27
ATOM     27  O   UNL     1     -22.470 -45.008  21.618  1.00  0.00    -0.493 OA
ATOM     28  C   UNL     1     -22.678 -45.191  23.014  1.00  0.00     0.278 C 
ENDBRANCH  25  27
BRANCH  26  29
ATOM     29  O   UNL     1     -22.897 -43.807  19.049  1.00  0.00    -0.493 OA
ATOM     30  C   UNL     1     -24.200 -43.310  18.775  1.00  0.00     0.278 C 
ENDBRANCH  26  29
ENDBRANCH  11  21
ENDBRANCH   1   7
BRANCH   4  31
ATOM     31  S   UNL     1     -24.888 -38.698  27.309  1.00  0.00     0.238 S 
ATOM     32  O   UNL     1     -25.331 -39.486  28.437  1.00  0.00    -0.207 OA
ATOM     33  O   UNL     1     -24.520 -37.308  27.426  1.00  0.00    -0.207 OA
BRANCH  31  34
ATOM     34  N   UNL     1     -26.120 -38.816  26.166  1.00  0.00    -0.225 NA
ATOM     35  H   UNL     1     -26.877 -38.150  26.322  1.00  0.00     0.137 HD
ATOM     36  H   UNL     1     -25.714 -38.720  25.234  1.00  0.00     0.137 HD
ENDBRANCH  31  34
ENDBRANCH   4  31
TORSDOF 7
ENDMDL
MODEL 7
REMARK VINA RESULT:    -8.595      4.902      8.437
REMARK INTER + INTRA:         -13.224
REMARK INTER:                 -11.842
REMARK INTRA:                  -1.382
REMARK UNBOUND:                -1.364
REMARK SMILES COc1ccc([C@@H]2C=C(c3cc(F)ccc3F)NN2c2ccc(S(N)(=O)=O)cc2)cc1OC
REMARK SMILES IDX 20 1 21 2 22 3 23 4 28 5 29 6 19 7 18 8 9 9 8 10 7 11 10 13
REMARK SMILES IDX 11 14 16 15 12 16 15 17 14 18 17 19 13 20 6 21 5 22 30 23
REMARK SMILES IDX 4 24 31 25 3 26 32 27 33 28 2 29 1 30 24 31 26 32 27 33
REMARK SMILES IDX 25 34
REMARK H PARENT 18 12 25 35 25 36
ROOT
ATOM      1  C   UNL     1     -20.915 -39.994  22.512  1.00  0.00     0.058 A 
ATOM      2  C   UNL     1     -22.298 -39.736  22.452  1.00  0.00     0.029 A 
ATOM      3  C   UNL     1     -22.871 -39.016  21.397  1.00  0.00     0.024 A 
ATOM      4  C   UNL     1     -22.059 -38.555  20.365  1.00  0.00     0.082 A 
ATOM      5  C   UNL     1     -20.685 -38.794  20.390  1.00  0.00     0.024 A 
ATOM      6  C   UNL     1     -20.126 -39.514  21.452  1.00  0.00     0.029 A 
ENDROOT
BRANCH   1   7
ATOM      7  N   UNL     1     -20.374 -40.740  23.577  1.00  0.00    -0.276 N 
ATOM      8  N   UNL     1     -19.013 -41.016  23.675  1.00  0.00    -0.297 N 
ATOM      9  C   UNL     1     -18.802 -42.214  24.344  1.00  0.00     0.063 C 
ATOM     10  C   UNL     1     -19.982 -42.804  24.596  1.00  0.00     0.033 C 
ATOM     11  C   UNL     1     -21.122 -41.929  24.108  1.00  0.00     0.161 C 
ATOM     12  H   UNL     1     -18.439 -40.254  24.040  1.00  0.00     0.188 HD
BRANCH   9  13
ATOM     13  C   UNL     1     -17.458 -42.686  24.685  1.00  0.00     0.038 A 
ATOM     14  C   UNL     1     -17.043 -42.700  26.027  1.00  0.00     0.052 A 
ATOM     15  C   UNL     1     -16.554 -43.145  23.715  1.00  0.00     0.132 A 
ATOM     16  C   UNL     1     -15.770 -43.155  26.364  1.00  0.00     0.124 A 
ATOM     17  C   UNL     1     -15.280 -43.601  24.058  1.00  0.00     0.043 A 
ATOM     18  C   UNL     1     -14.884 -43.605  25.393  1.00  0.00     0.042 A 
ATOM     19  F   UNL     1     -16.898 -43.176  22.418  1.00  0.00    -0.206 F 
ATOM     20  F   UNL     1     -15.394 -43.158  27.649  1.00  0.00    -0.207 F 
ENDBRANCH   9  13
BRANCH  11  21
ATOM     21  C   UNL     1     -22.072 -41.575  25.237  1.00  0.00    -0.016 A 
ATOM     22  C   UNL     1     -21.695 -40.747  26.301  1.00  0.00     0.010 A 
ATOM     23  C   UNL     1     -23.367 -42.114  25.250  1.00  0.00     0.056 A 
ATOM     24  C   UNL     1     -22.586 -40.466  27.343  1.00  0.00     0.051 A 
ATOM     25  C   UNL     1     -24.276 -41.814  26.275  1.00  0.00     0.161 A 
ATOM     26  C   UNL     1     -23.879 -41.003  27.351  1.00  0.00     0.160 A 
BRANCH  25  27
ATOM     27  O   UNL     1     -25.492 -42.431  26.115  1.00  0.00    -0.493 OA
ATOM     28  C   UNL     1     -26.409 -41.790  25.235  1.00  0.00     0.278 C 
ENDBRANCH  25  27
BRANCH  26  29
ATOM     29  O   UNL     1     -24.779 -40.798  28.362  1.00  0.00    -0.493 OA
ATOM     30  C   UNL     1     -24.795 -41.728  29.437  1.00  0.00     0.278 C 
ENDBRANCH  26  29
ENDBRANCH  11  21
ENDBRANCH   1   7
BRANCH   4  31
ATOM     31  S   UNL     1     -22.760 -37.645  19.018  1.00  0.00     0.238 S 
ATOM     32  O   UNL     1     -23.488 -38.563  18.171  1.00  0.00    -0.207 OA
ATOM     33  O   UNL     1     -23.347 -36.434  19.539  1.00  0.00    -0.207 OA
BRANCH  31  34
ATOM     34  N   UNL     1     -21.384 -37.223  18.145  1.00  0.00    -0.225 NA
ATOM     35  H   UNL     1     -20.882 -36.429  18.545  1.00  0.00     0.137 HD
ATOM     36  H   UNL     1     -20.785 -38.045  18.057  1.00  0.00     0.137 HD
ENDBRANCH  31  34
ENDBRANCH   4  31
TORSDOF 7
ENDMDL
MODEL 8
REMARK VINA RESULT:    -8.545      4.636      7.211
REMARK INTER + INTRA:         -13.156
REMARK INTER:                 -11.579
REMARK INTRA:                  -1.577
REMARK UNBOUND:                -1.364
REMARK SMILES COc1ccc([C@@H]2C=C(c3cc(F)ccc3F)NN2c2ccc(S(N)(=O)=O)cc2)cc1OC
REMARK SMILES IDX 20 1 21 2 22 3 23 4 28 5 29 6 19 7 18 8 9 9 8 10 7 11 10 13
REMARK SMILES IDX 11 14 16 15 12 16 15 17 14 18 17 19 13 20 6 21 5 22 30 23
REMARK SMILES IDX 4 24 31 25 3 26 32 27 33 28 2 29 1 30 24 31 26 32 27 33
REMARK SMILES IDX 25 34
REMARK H PARENT 18 12 25 35 25 36
ROOT
ATOM      1  C   UNL     1     -22.034 -43.720  26.315  1.00  0.00     0.058 A 
ATOM      2  C   UNL     1     -21.817 -44.231  27.609  1.00  0.00     0.029 A 
ATOM      3  C   UNL     1     -22.802 -44.953  28.294  1.00  0.00     0.024 A 
ATOM      4  C   UNL     1     -24.027 -45.191  27.676  1.00  0.00     0.082 A 
ATOM      5  C   UNL     1     -24.276 -44.702  26.395  1.00  0.00     0.024 A 
ATOM      6  C   UNL     1     -23.282 -43.981  25.723  1.00  0.00     0.029 A 
ENDROOT
BRANCH   1   7
ATOM      7  N   UNL     1     -21.014 -43.017  25.645  1.00  0.00    -0.276 N 
ATOM      8  N   UNL     1     -19.735 -43.541  25.483  1.00  0.00    -0.297 N 
ATOM      9  C   UNL     1     -18.793 -42.523  25.417  1.00  0.00     0.063 C 
ATOM     10  C   UNL     1     -19.389 -41.341  25.643  1.00  0.00     0.033 C 
ATOM     11  C   UNL     1     -20.882 -41.534  25.838  1.00  0.00     0.161 C 
ATOM     12  H   UNL     1     -19.634 -44.221  24.728  1.00  0.00     0.188 HD
BRANCH   9  13
ATOM     13  C   UNL     1     -17.380 -42.790  25.135  1.00  0.00     0.038 A 
ATOM     14  C   UNL     1     -16.457 -42.850  26.192  1.00  0.00     0.052 A 
ATOM     15  C   UNL     1     -16.901 -43.005  23.834  1.00  0.00     0.132 A 
ATOM     16  C   UNL     1     -15.113 -43.112  25.938  1.00  0.00     0.124 A 
ATOM     17  C   UNL     1     -15.552 -43.268  23.584  1.00  0.00     0.043 A 
ATOM     18  C   UNL     1     -14.651 -43.321  24.644  1.00  0.00     0.042 A 
ATOM     19  F   UNL     1     -17.735 -42.980  22.783  1.00  0.00    -0.206 F 
ATOM     20  F   UNL     1     -14.250 -43.163  26.960  1.00  0.00    -0.207 F 
ENDBRANCH   9  13
BRANCH  11  21
ATOM     21  C   UNL     1     -21.681 -40.732  24.828  1.00  0.00    -0.016 A 
ATOM     22  C   UNL     1     -22.974 -40.267  25.095  1.00  0.00     0.010 A 
ATOM     23  C   UNL     1     -21.135 -40.466  23.563  1.00  0.00     0.056 A 
ATOM     24  C   UNL     1     -23.696 -39.557  24.130  1.00  0.00     0.051 A 
ATOM     25  C   UNL     1     -21.840 -39.731  22.600  1.00  0.00     0.161 A 
ATOM     26  C   UNL     1     -23.146 -39.291  22.869  1.00  0.00     0.160 A 
BRANCH  25  27
ATOM     27  O   UNL     1     -21.144 -39.572  21.428  1.00  0.00    -0.493 OA
ATOM     28  C   UNL     1     -20.097 -40.506  21.188  1.00  0.00     0.278 C 
ENDBRANCH  25  27
BRANCH  26  29
ATOM     29  O   UNL     1     -23.820 -38.639  21.871  1.00  0.00    -0.493 OA
ATOM     30  C   UNL     1     -25.146 -39.058  21.579  1.00  0.00     0.278 C 
ENDBRANCH  26  29
ENDBRANCH  11  21
ENDBRANCH   1   7
BRANCH   4  31
ATOM     31  S   UNL     1     -25.288 -46.104  28.521  1.00  0.00     0.238 S 
ATOM     32  O   UNL     1     -26.574 -45.714  27.988  1.00  0.00    -0.207 OA
ATOM     33  O   UNL     1     -24.870 -47.482  28.617  1.00  0.00    -0.207 OA
BRANCH  31  34
ATOM     34  N   UNL     1     -25.216 -45.429  30.062  1.00  0.00    -0.225 NA
ATOM     35  H   UNL     1     -25.722 -45.971  30.762  1.00  0.00     0.137 HD
ATOM     36  H   UNL     1     -24.236 -45.298  30.318  1.00  0.00     0.137 HD
ENDBRANCH  31  34
ENDBRANCH   4  31
TORSDOF 7
ENDMDL
MODEL 9
REMARK VINA RESULT:    -8.438      4.305      7.597
REMARK INTER + INTRA:         -13.009
REMARK INTER:                 -11.557
REMARK INTRA:                  -1.452
REMARK UNBOUND:                -1.364
REMARK SMILES COc1ccc([C@@H]2C=C(c3cc(F)ccc3F)NN2c2ccc(S(N)(=O)=O)cc2)cc1OC
REMARK SMILES IDX 20 1 21 2 22 3 23 4 28 5 29 6 19 7 18 8 9 9 8 10 7 11 10 13
REMARK SMILES IDX 11 14 16 15 12 16 15 17 14 18 17 19 13 20 6 21 5 22 30 23
REMARK SMILES IDX 4 24 31 25 3 26 32 27 33 28 2 29 1 30 24 31 26 32 27 33
REMARK SMILES IDX 25 34
REMARK H PARENT 18 12 25 35 25 36
ROOT
ATOM      1  C   UNL     1     -22.202 -41.636  25.002  1.00  0.00     0.058 A 
ATOM      2  C   UNL     1     -22.195 -40.809  26.142  1.00  0.00     0.029 A 
ATOM      3  C   UNL     1     -22.896 -41.148  27.305  1.00  0.00     0.024 A 
ATOM      4  C   UNL     1     -23.607 -42.344  27.350  1.00  0.00     0.082 A 
ATOM      5  C   UNL     1     -23.634 -43.189  26.241  1.00  0.00     0.024 A 
ATOM      6  C   UNL     1     -22.929 -42.836  25.084  1.00  0.00     0.029 A 
ENDROOT
BRANCH   1   7
ATOM      7  N   UNL     1     -21.468 -41.277  23.855  1.00  0.00    -0.276 N 
ATOM      8  N   UNL     1     -21.979 -40.420  22.884  1.00  0.00    -0.297 N 
ATOM      9  C   UNL     1     -21.437 -40.710  21.639  1.00  0.00     0.063 C 
ATOM     10  C   UNL     1     -20.666 -41.806  21.728  1.00  0.00     0.033 C 
ATOM     11  C   UNL     1     -20.621 -42.304  23.161  1.00  0.00     0.161 C 
ATOM     12  H   UNL     1     -21.933 -39.426  23.111  1.00  0.00     0.188 HD
BRANCH   9  13
ATOM     13  C   UNL     1     -21.718 -39.889  20.460  1.00  0.00     0.038 A 
ATOM     14  C   UNL     1     -22.628 -40.344  19.492  1.00  0.00     0.052 A 
ATOM     15  C   UNL     1     -21.116 -38.637  20.256  1.00  0.00     0.132 A 
ATOM     16  C   UNL     1     -22.910 -39.567  18.371  1.00  0.00     0.124 A 
ATOM     17  C   UNL     1     -21.402 -37.862  19.130  1.00  0.00     0.043 A 
ATOM     18  C   UNL     1     -22.306 -38.331  18.180  1.00  0.00     0.042 A 
ATOM     19  F   UNL     1     -20.252 -38.137  21.152  1.00  0.00    -0.206 F 
ATOM     20  F   UNL     1     -23.780 -40.021  17.460  1.00  0.00    -0.207 F 
ENDBRANCH   9  13
BRANCH  11  21
ATOM     21  C   UNL     1     -19.198 -42.352  23.687  1.00  0.00    -0.016 A 
ATOM     22  C   UNL     1     -18.087 -42.393  22.837  1.00  0.00     0.010 A 
ATOM     23  C   UNL     1     -18.971 -42.392  25.070  1.00  0.00     0.056 A 
ATOM     24  C   UNL     1     -16.789 -42.469  23.355  1.00  0.00     0.051 A 
ATOM     25  C   UNL     1     -17.673 -42.439  25.599  1.00  0.00     0.161 A 
ATOM     26  C   UNL     1     -16.565 -42.505  24.737  1.00  0.00     0.160 A 
BRANCH  25  27
ATOM     27  O   UNL     1     -17.650 -42.470  26.971  1.00  0.00    -0.493 OA
ATOM     28  C   UNL     1     -18.909 -42.343  27.621  1.00  0.00     0.278 C 
ENDBRANCH  25  27
BRANCH  26  29
ATOM     29  O   UNL     1     -15.323 -42.622  25.301  1.00  0.00    -0.493 OA
ATOM     30  C   UNL     1     -14.715 -43.906  25.311  1.00  0.00     0.278 C 
ENDBRANCH  26  29
ENDBRANCH  11  21
ENDBRANCH   1   7
BRANCH   4  31
ATOM     31  S   UNL     1     -24.499 -42.795  28.811  1.00  0.00     0.238 S 
ATOM     32  O   UNL     1     -24.395 -41.716  29.767  1.00  0.00    -0.207 OA
ATOM     33  O   UNL     1     -25.764 -43.368  28.417  1.00  0.00    -0.207 OA
BRANCH  31  34
ATOM     34  N   UNL     1     -23.535 -44.033  29.424  1.00  0.00    -0.225 NA
ATOM     35  H   UNL     1     -23.422 -44.812  28.775  1.00  0.00     0.137 HD
ATOM     36  H   UNL     1     -22.637 -43.640  29.707  1.00  0.00     0.137 HD
ENDBRANCH  31  34
ENDBRANCH   4  31
TORSDOF 7
ENDMDL
