MODEL 1
REMARK VINA RESULT:   -12.541      0.000      0.000
REMARK INTER + INTRA:         -18.312
REMARK INTER:                 -17.306
REMARK INTRA:                  -1.006
REMARK UNBOUND:                -1.006
REMARK SMILES O=C1C(NCCCN=c2c3c([nH]c4cc(Cl)ccc24)CCCC3)=CC(=O)c2c(O)cccc21
REMARK SMILES IDX 6 1 7 2 8 3 9 4 12 5 11 6 13 7 10 8 20 9 14 10 19 11 23 12
REMARK SMILES IDX 21 13 15 14 18 15 22 16 17 17 16 19 5 20 4 21 3 23 24 24
REMARK SMILES IDX 2 25 25 26 33 27 27 28 32 29 28 30 31 31 30 32 1 33 26 34
REMARK SMILES IDX 29 35
REMARK H PARENT 12 18 4 22 29 36
ROOT
ATOM      1  C   UNL     1     -11.994 -45.901  28.485  1.00  0.00     0.045 C 
ENDROOT
BRANCH   1   2
ATOM      2  C   UNL     1     -12.784 -46.191  29.760  1.00  0.00     0.144 C 
BRANCH   2   3
ATOM      3  N   UNL     1     -11.931 -45.958  30.910  1.00  0.00    -0.284 NA
BRANCH   3   4
ATOM      4  C   UNL     1     -11.697 -44.834  31.500  1.00  0.00     0.072 A 
ATOM      5  N   UNL     1     -10.826 -43.007  33.456  1.00  0.00    -0.358 N 
ATOM      6  C   UNL     1      -9.899 -43.587  32.611  1.00  0.00     0.021 A 
ATOM      7  C   UNL     1     -12.188 -43.003  33.114  1.00  0.00     0.049 A 
ATOM      8  C   UNL     1     -10.246 -44.444  31.631  1.00  0.00    -0.003 A 
ATOM      9  C   UNL     1      -8.450 -43.219  32.853  1.00  0.00     0.054 C 
ATOM     10  C   UNL     1     -13.072 -42.141  33.776  1.00  0.00     0.047 A 
ATOM     11  C   UNL     1     -12.671 -43.872  32.113  1.00  0.00     0.024 A 
ATOM     12  C   UNL     1      -9.262 -45.091  30.695  1.00  0.00     0.039 C 
ATOM     13  C   UNL     1      -7.451 -44.141  32.153  1.00  0.00     0.007 C 
ATOM     14  C   UNL     1     -14.407 -42.079  33.387  1.00  0.00     0.043 A 
ATOM     15  C   UNL     1     -14.000 -43.749  31.693  1.00  0.00     0.014 A 
ATOM     16  C   UNL     1      -7.885 -44.428  30.722  1.00  0.00     0.005 C 
ATOM     17  C   UNL     1     -14.870 -42.863  32.334  1.00  0.00     0.021 A 
ATOM     18  H   UNL     1     -10.494 -42.245  34.037  1.00  0.00     0.166 HD
ATOM     19  Cl  UNL     1     -15.481 -40.999  34.185  1.00  0.00    -0.084 Cl
ENDBRANCH   3   4
ENDBRANCH   2   3
ENDBRANCH   1   2
BRANCH   1  20
ATOM     20  C   UNL     1     -12.136 -44.452  28.028  1.00  0.00     0.115 C 
BRANCH  20  21
ATOM     21  N   UNL     1     -13.512 -44.000  28.144  1.00  0.00    -0.382 N 
ATOM     22  H   UNL     1     -14.031 -44.410  28.932  1.00  0.00     0.160 HD
BRANCH  21  23
ATOM     23  C   UNL     1     -14.375 -43.748  27.084  1.00  0.00     0.087 C 
ATOM     24  C   UNL     1     -14.101 -43.924  25.787  1.00  0.00     0.082 C 
ATOM     25  C   UNL     1     -15.731 -43.231  27.467  1.00  0.00     0.209 C 
ATOM     26  C   UNL     1     -15.051 -43.635  24.695  1.00  0.00     0.192 C 
ATOM     27  C   UNL     1     -16.680 -42.860  26.401  1.00  0.00     0.039 A 
ATOM     28  C   UNL     1     -16.365 -43.047  25.054  1.00  0.00     0.075 A 
ATOM     29  C   UNL     1     -17.921 -42.316  26.775  1.00  0.00     0.013 A 
ATOM     30  C   UNL     1     -17.311 -42.675  24.083  1.00  0.00     0.127 A 
ATOM     31  C   UNL     1     -18.849 -41.952  25.803  1.00  0.00     0.005 A 
ATOM     32  C   UNL     1     -18.545 -42.131  24.457  1.00  0.00     0.047 A 
ATOM     33  O   UNL     1     -16.041 -43.130  28.653  1.00  0.00    -0.287 OA
ATOM     34  O   UNL     1     -14.706 -43.896  23.550  1.00  0.00    -0.289 OA
BRANCH  30  35
ATOM     35  O   UNL     1     -17.048 -42.829  22.752  1.00  0.00    -0.507 OA
ATOM     36  H   UNL     1     -16.987 -41.966  22.312  1.00  0.00     0.293 HD
ENDBRANCH  30  35
ENDBRANCH  21  23
ENDBRANCH  20  21
ENDBRANCH   1  20
TORSDOF 7
ENDMDL
MODEL 2
REMARK VINA RESULT:   -12.224      2.019      3.752
REMARK INTER + INTRA:         -17.875
REMARK INTER:                 -17.256
REMARK INTRA:                  -0.619
REMARK UNBOUND:                -1.006
REMARK SMILES O=C1C(NCCCN=c2c3c([nH]c4cc(Cl)ccc24)CCCC3)=CC(=O)c2c(O)cccc21
REMARK SMILES IDX 6 1 7 2 8 3 9 4 12 5 11 6 13 7 10 8 20 9 14 10 19 11 23 12
REMARK SMILES IDX 21 13 15 14 18 15 22 16 17 17 16 19 5 20 4 21 3 23 24 24
REMARK SMILES IDX 2 25 25 26 33 27 27 28 32 29 28 30 31 31 30 32 1 33 26 34
REMARK SMILES IDX 29 35
REMARK H PARENT 12 18 4 22 29 36
ROOT
ATOM      1  C   UNL     1     -12.910 -45.793  27.724  1.00  0.00     0.045 C 
ENDROOT
BRANCH   1   2
ATOM      2  C   UNL     1     -12.641 -46.300  29.139  1.00  0.00     0.144 C 
BRANCH   2   3
ATOM      3  N   UNL     1     -12.928 -45.239  30.086  1.00  0.00    -0.284 NA
BRANCH   3   4
ATOM      4  C   UNL     1     -12.189 -44.839  31.065  1.00  0.00     0.072 A 
ATOM      5  N   UNL     1     -10.705 -43.114  32.722  1.00  0.00    -0.358 N 
ATOM      6  C   UNL     1     -12.083 -43.118  32.812  1.00  0.00     0.021 A 
ATOM      7  C   UNL     1     -10.032 -44.195  32.130  1.00  0.00     0.049 A 
ATOM      8  C   UNL     1     -12.857 -43.939  32.075  1.00  0.00    -0.003 A 
ATOM      9  C   UNL     1     -12.695 -42.130  33.783  1.00  0.00     0.054 C 
ATOM     10  C   UNL     1      -8.656 -44.358  32.335  1.00  0.00     0.047 A 
ATOM     11  C   UNL     1     -10.735 -45.111  31.321  1.00  0.00     0.024 A 
ATOM     12  C   UNL     1     -14.359 -43.969  32.149  1.00  0.00     0.039 C 
ATOM     13  C   UNL     1     -14.197 -41.916  33.588  1.00  0.00     0.007 C 
ATOM     14  C   UNL     1      -8.001 -45.471  31.814  1.00  0.00     0.043 A 
ATOM     15  C   UNL     1     -10.074 -46.255  30.860  1.00  0.00     0.014 A 
ATOM     16  C   UNL     1     -14.912 -43.244  33.376  1.00  0.00     0.005 C 
ATOM     17  C   UNL     1      -8.708 -46.431  31.096  1.00  0.00     0.021 A 
ATOM     18  H   UNL     1     -10.206 -42.597  33.438  1.00  0.00     0.166 HD
ATOM     19  Cl  UNL     1      -6.317 -45.679  32.092  1.00  0.00    -0.084 Cl
ENDBRANCH   3   4
ENDBRANCH   2   3
ENDBRANCH   1   2
BRANCH   1  20
ATOM     20  C   UNL     1     -12.675 -44.291  27.587  1.00  0.00     0.115 C 
BRANCH  20  21
ATOM     21  N   UNL     1     -13.919 -43.554  27.723  1.00  0.00    -0.382 N 
ATOM     22  H   UNL     1     -14.383 -43.662  28.634  1.00  0.00     0.160 HD
BRANCH  21  23
ATOM     23  C   UNL     1     -14.868 -43.373  26.722  1.00  0.00     0.087 C 
ATOM     24  C   UNL     1     -14.689 -43.600  25.417  1.00  0.00     0.082 C 
ATOM     25  C   UNL     1     -16.207 -42.877  27.187  1.00  0.00     0.209 C 
ATOM     26  C   UNL     1     -15.727 -43.387  24.390  1.00  0.00     0.192 C 
ATOM     27  C   UNL     1     -17.245 -42.581  26.183  1.00  0.00     0.039 A 
ATOM     28  C   UNL     1     -17.028 -42.820  24.824  1.00  0.00     0.075 A 
ATOM     29  C   UNL     1     -18.469 -42.054  26.628  1.00  0.00     0.013 A 
ATOM     30  C   UNL     1     -18.056 -42.518  23.915  1.00  0.00     0.127 A 
ATOM     31  C   UNL     1     -19.480 -41.761  25.716  1.00  0.00     0.005 A 
ATOM     32  C   UNL     1     -19.274 -41.991  24.359  1.00  0.00     0.047 A 
ATOM     33  O   UNL     1     -16.428 -42.731  28.388  1.00  0.00    -0.287 OA
ATOM     34  O   UNL     1     -15.463 -43.689  23.234  1.00  0.00    -0.289 OA
BRANCH  30  35
ATOM     35  O   UNL     1     -17.890 -42.724  22.576  1.00  0.00    -0.507 OA
ATOM     36  H   UNL     1     -17.211 -43.398  22.413  1.00  0.00     0.293 HD
ENDBRANCH  30  35
ENDBRANCH  21  23
ENDBRANCH  20  21
ENDBRANCH   1  20
TORSDOF 7
ENDMDL
MODEL 3
REMARK VINA RESULT:   -11.440      4.153      9.774
REMARK INTER + INTRA:         -16.793
REMARK INTER:                 -16.332
REMARK INTRA:                  -0.461
REMARK UNBOUND:                -1.006
REMARK SMILES O=C1C(NCCCN=c2c3c([nH]c4cc(Cl)ccc24)CCCC3)=CC(=O)c2c(O)cccc21
REMARK SMILES IDX 6 1 7 2 8 3 9 4 12 5 11 6 13 7 10 8 20 9 14 10 19 11 23 12
REMARK SMILES IDX 21 13 15 14 18 15 22 16 17 17 16 19 5 20 4 21 3 23 24 24
REMARK SMILES IDX 2 25 25 26 33 27 27 28 32 29 28 30 31 31 30 32 1 33 26 34
REMARK SMILES IDX 29 35
REMARK H PARENT 12 18 4 22 29 36
ROOT
ATOM      1  C   UNL     1     -14.437 -43.592  24.695  1.00  0.00     0.045 C 
ENDROOT
BRANCH   1   2
ATOM      2  C   UNL     1     -15.243 -42.641  23.812  1.00  0.00     0.144 C 
BRANCH   2   3
ATOM      3  N   UNL     1     -16.641 -43.027  23.850  1.00  0.00    -0.284 NA
BRANCH   3   4
ATOM      4  C   UNL     1     -17.654 -42.281  24.137  1.00  0.00     0.072 A 
ATOM      5  N   UNL     1     -20.264 -41.545  24.892  1.00  0.00    -0.358 N 
ATOM      6  C   UNL     1     -19.369 -41.952  25.862  1.00  0.00     0.021 A 
ATOM      7  C   UNL     1     -19.800 -41.124  23.635  1.00  0.00     0.049 A 
ATOM      8  C   UNL     1     -18.095 -42.287  25.580  1.00  0.00    -0.003 A 
ATOM      9  C   UNL     1     -19.900 -42.019  27.278  1.00  0.00     0.054 C 
ATOM     10  C   UNL     1     -20.648 -40.402  22.784  1.00  0.00     0.047 A 
ATOM     11  C   UNL     1     -18.488 -41.432  23.222  1.00  0.00     0.024 A 
ATOM     12  C   UNL     1     -17.095 -42.734  26.612  1.00  0.00     0.039 C 
ATOM     13  C   UNL     1     -19.008 -42.805  28.240  1.00  0.00     0.007 C 
ATOM     14  C   UNL     1     -20.168 -39.917  21.571  1.00  0.00     0.043 A 
ATOM     15  C   UNL     1     -18.004 -40.881  22.030  1.00  0.00     0.014 A 
ATOM     16  C   UNL     1     -17.542 -42.439  28.044  1.00  0.00     0.005 C 
ATOM     17  C   UNL     1     -18.844 -40.134  21.200  1.00  0.00     0.021 A 
ATOM     18  H   UNL     1     -21.136 -41.144  25.220  1.00  0.00     0.166 HD
ATOM     19  Cl  UNL     1     -21.205 -39.009  20.543  1.00  0.00    -0.084 Cl
ENDBRANCH   3   4
ENDBRANCH   2   3
ENDBRANCH   1   2
BRANCH   1  20
ATOM     20  C   UNL     1     -13.521 -42.852  25.665  1.00  0.00     0.115 C 
BRANCH  20  21
ATOM     21  N   UNL     1     -13.412 -43.564  26.927  1.00  0.00    -0.382 N 
ATOM     22  H   UNL     1     -14.263 -43.543  27.503  1.00  0.00     0.160 HD
BRANCH  21  23
ATOM     23  C   UNL     1     -12.285 -43.605  27.741  1.00  0.00     0.087 C 
ATOM     24  C   UNL     1     -11.244 -42.768  27.687  1.00  0.00     0.082 C 
ATOM     25  C   UNL     1     -12.271 -44.703  28.764  1.00  0.00     0.209 C 
ATOM     26  C   UNL     1     -10.066 -42.856  28.570  1.00  0.00     0.192 C 
ATOM     27  C   UNL     1     -11.077 -44.869  29.614  1.00  0.00     0.039 A 
ATOM     28  C   UNL     1     -10.000 -43.985  29.531  1.00  0.00     0.075 A 
ATOM     29  C   UNL     1     -11.051 -45.942  30.521  1.00  0.00     0.013 A 
ATOM     30  C   UNL     1      -8.891 -44.195  30.368  1.00  0.00     0.127 A 
ATOM     31  C   UNL     1      -9.946 -46.137  31.346  1.00  0.00     0.005 A 
ATOM     32  C   UNL     1      -8.865 -45.265  31.269  1.00  0.00     0.047 A 
ATOM     33  O   UNL     1     -13.246 -45.442  28.891  1.00  0.00    -0.287 OA
ATOM     34  O   UNL     1      -9.203 -41.994  28.465  1.00  0.00    -0.289 OA
BRANCH  30  35
ATOM     35  O   UNL     1      -7.808 -43.364  30.319  1.00  0.00    -0.507 OA
ATOM     36  H   UNL     1      -7.049 -43.762  30.774  1.00  0.00     0.293 HD
ENDBRANCH  30  35
ENDBRANCH  21  23
ENDBRANCH  20  21
ENDBRANCH   1  20
TORSDOF 7
ENDMDL
MODEL 4
REMARK VINA RESULT:   -11.109      2.178      4.304
REMARK INTER + INTRA:         -16.335
REMARK INTER:                 -15.635
REMARK INTRA:                  -0.701
REMARK UNBOUND:                -1.006
REMARK SMILES O=C1C(NCCCN=c2c3c([nH]c4cc(Cl)ccc24)CCCC3)=CC(=O)c2c(O)cccc21
REMARK SMILES IDX 6 1 7 2 8 3 9 4 12 5 11 6 13 7 10 8 20 9 14 10 19 11 23 12
REMARK SMILES IDX 21 13 15 14 18 15 22 16 17 17 16 19 5 20 4 21 3 23 24 24
REMARK SMILES IDX 2 25 25 26 33 27 27 28 32 29 28 30 31 31 30 32 1 33 26 34
REMARK SMILES IDX 29 35
REMARK H PARENT 12 18 4 22 29 36
ROOT
ATOM      1  C   UNL     1     -12.688 -44.230  28.254  1.00  0.00     0.045 C 
ENDROOT
BRANCH   1   2
ATOM      2  C   UNL     1     -11.269 -44.375  28.799  1.00  0.00     0.144 C 
BRANCH   2   3
ATOM      3  N   UNL     1     -11.327 -44.971  30.120  1.00  0.00    -0.284 NA
BRANCH   3   4
ATOM      4  C   UNL     1     -10.993 -44.429  31.243  1.00  0.00     0.072 A 
ATOM      5  N   UNL     1     -10.572 -42.450  33.199  1.00  0.00    -0.358 N 
ATOM      6  C   UNL     1     -11.852 -42.916  32.975  1.00  0.00     0.021 A 
ATOM      7  C   UNL     1      -9.462 -43.197  32.770  1.00  0.00     0.049 A 
ATOM      8  C   UNL     1     -12.125 -43.885  32.079  1.00  0.00    -0.003 A 
ATOM      9  C   UNL     1     -12.954 -42.267  33.785  1.00  0.00     0.054 C 
ATOM     10  C   UNL     1      -8.189 -42.912  33.282  1.00  0.00     0.047 A 
ATOM     11  C   UNL     1      -9.623 -44.226  31.820  1.00  0.00     0.024 A 
ATOM     12  C   UNL     1     -13.508 -44.416  31.811  1.00  0.00     0.039 C 
ATOM     13  C   UNL     1     -14.362 -42.547  33.256  1.00  0.00     0.007 C 
ATOM     14  C   UNL     1      -7.100 -43.700  32.918  1.00  0.00     0.043 A 
ATOM     15  C   UNL     1      -8.531 -45.046  31.517  1.00  0.00     0.014 A 
ATOM     16  C   UNL     1     -14.521 -44.015  32.883  1.00  0.00     0.005 C 
ATOM     17  C   UNL     1      -7.269 -44.778  32.055  1.00  0.00     0.021 A 
ATOM     18  H   UNL     1     -10.442 -41.857  34.011  1.00  0.00     0.166 HD
ATOM     19  Cl  UNL     1      -5.545 -43.362  33.569  1.00  0.00    -0.084 Cl
ENDBRANCH   3   4
ENDBRANCH   2   3
ENDBRANCH   1   2
BRANCH   1  20
ATOM     20  C   UNL     1     -12.729 -43.476  26.927  1.00  0.00     0.115 C 
BRANCH  20  21
ATOM     21  N   UNL     1     -13.856 -43.906  26.117  1.00  0.00    -0.382 N 
ATOM     22  H   UNL     1     -13.611 -44.184  25.158  1.00  0.00     0.160 HD
BRANCH  21  23
ATOM     23  C   UNL     1     -15.131 -43.351  26.142  1.00  0.00     0.087 C 
ATOM     24  C   UNL     1     -15.848 -43.076  27.236  1.00  0.00     0.082 C 
ATOM     25  C   UNL     1     -15.726 -43.045  24.798  1.00  0.00     0.209 C 
ATOM     26  C   UNL     1     -17.203 -42.492  27.212  1.00  0.00     0.192 C 
ATOM     27  C   UNL     1     -17.107 -42.532  24.730  1.00  0.00     0.039 A 
ATOM     28  C   UNL     1     -17.837 -42.261  25.890  1.00  0.00     0.075 A 
ATOM     29  C   UNL     1     -17.674 -42.313  23.464  1.00  0.00     0.013 A 
ATOM     30  C   UNL     1     -19.148 -41.772  25.761  1.00  0.00     0.127 A 
ATOM     31  C   UNL     1     -18.973 -41.827  23.351  1.00  0.00     0.005 A 
ATOM     32  C   UNL     1     -19.712 -41.557  24.499  1.00  0.00     0.047 A 
ATOM     33  O   UNL     1     -15.063 -43.215  23.776  1.00  0.00    -0.287 OA
ATOM     34  O   UNL     1     -17.735 -42.229  28.282  1.00  0.00    -0.289 OA
BRANCH  30  35
ATOM     35  O   UNL     1     -19.906 -41.501  26.863  1.00  0.00    -0.507 OA
ATOM     36  H   UNL     1     -20.287 -40.610  26.807  1.00  0.00     0.293 HD
ENDBRANCH  30  35
ENDBRANCH  21  23
ENDBRANCH  20  21
ENDBRANCH   1  20
TORSDOF 7
ENDMDL
MODEL 5
REMARK VINA RESULT:   -10.370      4.989     10.455
REMARK INTER + INTRA:         -15.317
REMARK INTER:                 -14.059
REMARK INTRA:                  -1.257
REMARK UNBOUND:                -1.006
REMARK SMILES O=C1C(NCCCN=c2c3c([nH]c4cc(Cl)ccc24)CCCC3)=CC(=O)c2c(O)cccc21
REMARK SMILES IDX 6 1 7 2 8 3 9 4 12 5 11 6 13 7 10 8 20 9 14 10 19 11 23 12
REMARK SMILES IDX 21 13 15 14 18 15 22 16 17 17 16 19 5 20 4 21 3 23 24 24
REMARK SMILES IDX 2 25 25 26 33 27 27 28 32 29 28 30 31 31 30 32 1 33 26 34
REMARK SMILES IDX 29 35
REMARK H PARENT 12 18 4 22 29 36
ROOT
ATOM      1  C   UNL     1     -16.646 -41.057  22.374  1.00  0.00     0.045 C 
ENDROOT
BRANCH   1   2
ATOM      2  C   UNL     1     -17.931 -41.882  22.430  1.00  0.00     0.144 C 
BRANCH   2   3
ATOM      3  N   UNL     1     -18.596 -41.638  23.696  1.00  0.00    -0.284 NA
BRANCH   3   4
ATOM      4  C   UNL     1     -19.850 -41.403  23.892  1.00  0.00     0.072 A 
ATOM      5  N   UNL     1     -22.629 -41.828  24.021  1.00  0.00    -0.358 N 
ATOM      6  C   UNL     1     -21.822 -42.327  25.025  1.00  0.00     0.021 A 
ATOM      7  C   UNL     1     -22.159 -40.809  23.176  1.00  0.00     0.049 A 
ATOM      8  C   UNL     1     -20.489 -42.134  25.047  1.00  0.00    -0.003 A 
ATOM      9  C   UNL     1     -22.515 -43.125  26.108  1.00  0.00     0.054 C 
ATOM     10  C   UNL     1     -23.064 -40.075  22.398  1.00  0.00     0.047 A 
ATOM     11  C   UNL     1     -20.780 -40.529  23.102  1.00  0.00     0.024 A 
ATOM     12  C   UNL     1     -19.581 -42.663  26.125  1.00  0.00     0.039 C 
ATOM     13  C   UNL     1     -21.564 -43.948  26.978  1.00  0.00     0.007 C 
ATOM     14  C   UNL     1     -22.610 -39.014  21.618  1.00  0.00     0.043 A 
ATOM     15  C   UNL     1     -20.351 -39.419  22.365  1.00  0.00     0.014 A 
ATOM     16  C   UNL     1     -20.338 -43.132  27.367  1.00  0.00     0.005 C 
ATOM     17  C   UNL     1     -21.262 -38.669  21.615  1.00  0.00     0.021 A 
ATOM     18  H   UNL     1     -23.630 -41.868  24.184  1.00  0.00     0.166 HD
ATOM     19  Cl  UNL     1     -23.729 -38.100  20.685  1.00  0.00    -0.084 Cl
ENDBRANCH   3   4
ENDBRANCH   2   3
ENDBRANCH   1   2
BRANCH   1  20
ATOM     20  C   UNL     1     -15.523 -41.670  23.205  1.00  0.00     0.115 C 
BRANCH  20  21
ATOM     21  N   UNL     1     -15.968 -42.883  23.870  1.00  0.00    -0.382 N 
ATOM     22  H   UNL     1     -16.939 -43.151  23.664  1.00  0.00     0.160 HD
BRANCH  21  23
ATOM     23  C   UNL     1     -15.630 -43.271  25.162  1.00  0.00     0.087 C 
ATOM     24  C   UNL     1     -16.116 -42.750  26.293  1.00  0.00     0.082 C 
ATOM     25  C   UNL     1     -14.624 -44.381  25.258  1.00  0.00     0.209 C 
ATOM     26  C   UNL     1     -15.721 -43.192  27.644  1.00  0.00     0.192 C 
ATOM     27  C   UNL     1     -14.148 -44.799  26.590  1.00  0.00     0.039 A 
ATOM     28  C   UNL     1     -14.668 -44.232  27.755  1.00  0.00     0.075 A 
ATOM     29  C   UNL     1     -13.158 -45.793  26.660  1.00  0.00     0.013 A 
ATOM     30  C   UNL     1     -14.175 -44.671  28.995  1.00  0.00     0.127 A 
ATOM     31  C   UNL     1     -12.680 -46.220  27.896  1.00  0.00     0.005 A 
ATOM     32  C   UNL     1     -13.187 -45.660  29.065  1.00  0.00     0.047 A 
ATOM     33  O   UNL     1     -14.215 -44.933  24.238  1.00  0.00    -0.287 OA
ATOM     34  O   UNL     1     -16.283 -42.680  28.604  1.00  0.00    -0.289 OA
BRANCH  30  35
ATOM     35  O   UNL     1     -14.643 -44.142  30.163  1.00  0.00    -0.507 OA
ATOM     36  H   UNL     1     -14.057 -43.436  30.480  1.00  0.00     0.293 HD
ENDBRANCH  30  35
ENDBRANCH  21  23
ENDBRANCH  20  21
ENDBRANCH   1  20
TORSDOF 7
ENDMDL
MODEL 6
REMARK VINA RESULT:   -10.074      5.645     10.098
REMARK INTER + INTRA:         -14.908
REMARK INTER:                 -14.167
REMARK INTRA:                  -0.741
REMARK UNBOUND:                -1.006
REMARK SMILES O=C1C(NCCCN=c2c3c([nH]c4cc(Cl)ccc24)CCCC3)=CC(=O)c2c(O)cccc21
REMARK SMILES IDX 6 1 7 2 8 3 9 4 12 5 11 6 13 7 10 8 20 9 14 10 19 11 23 12
REMARK SMILES IDX 21 13 15 14 18 15 22 16 17 17 16 19 5 20 4 21 3 23 24 24
REMARK SMILES IDX 2 25 25 26 33 27 27 28 32 29 28 30 31 31 30 32 1 33 26 34
REMARK SMILES IDX 29 35
REMARK H PARENT 12 18 4 22 29 36
ROOT
ATOM      1  C   UNL     1     -17.049 -40.178  21.696  1.00  0.00     0.045 C 
ENDROOT
BRANCH   1   2
ATOM      2  C   UNL     1     -16.345 -41.309  22.443  1.00  0.00     0.144 C 
BRANCH   2   3
ATOM      3  N   UNL     1     -17.338 -42.117  23.126  1.00  0.00    -0.284 NA
BRANCH   3   4
ATOM      4  C   UNL     1     -17.328 -42.498  24.359  1.00  0.00     0.072 A 
ATOM      5  N   UNL     1     -17.303 -42.351  27.170  1.00  0.00    -0.358 N 
ATOM      6  C   UNL     1     -18.486 -42.129  26.492  1.00  0.00     0.021 A 
ATOM      7  C   UNL     1     -16.240 -43.016  26.538  1.00  0.00     0.049 A 
ATOM      8  C   UNL     1     -18.581 -42.215  25.150  1.00  0.00    -0.003 A 
ATOM      9  C   UNL     1     -19.687 -41.764  27.339  1.00  0.00     0.054 C 
ATOM     10  C   UNL     1     -15.190 -43.538  27.303  1.00  0.00     0.047 A 
ATOM     11  C   UNL     1     -16.222 -43.151  25.135  1.00  0.00     0.024 A 
ATOM     12  C   UNL     1     -19.853 -41.980  24.381  1.00  0.00     0.039 C 
ATOM     13  C   UNL     1     -20.856 -41.182  26.542  1.00  0.00     0.007 C 
ATOM     14  C   UNL     1     -14.174 -44.265  26.688  1.00  0.00     0.043 A 
ATOM     15  C   UNL     1     -15.228 -43.939  24.542  1.00  0.00     0.014 A 
ATOM     16  C   UNL     1     -21.098 -41.982  25.269  1.00  0.00     0.005 C 
ATOM     17  C   UNL     1     -14.200 -44.486  25.314  1.00  0.00     0.021 A 
ATOM     18  H   UNL     1     -17.370 -42.441  28.178  1.00  0.00     0.166 HD
ATOM     19  Cl  UNL     1     -12.901 -44.926  27.637  1.00  0.00    -0.084 Cl
ENDBRANCH   3   4
ENDBRANCH   2   3
ENDBRANCH   1   2
BRANCH   1  20
ATOM     20  C   UNL     1     -18.552 -40.411  21.567  1.00  0.00     0.115 C 
BRANCH  20  21
ATOM     21  N   UNL     1     -19.003 -40.170  20.208  1.00  0.00    -0.382 N 
ATOM     22  H   UNL     1     -18.287 -39.777  19.583  1.00  0.00     0.160 HD
BRANCH  21  23
ATOM     23  C   UNL     1     -20.263 -39.708  19.841  1.00  0.00     0.087 C 
ATOM     24  C   UNL     1     -20.656 -38.430  19.818  1.00  0.00     0.082 C 
ATOM     25  C   UNL     1     -21.245 -40.769  19.437  1.00  0.00     0.209 C 
ATOM     26  C   UNL     1     -22.008 -37.989  19.426  1.00  0.00     0.192 C 
ATOM     27  C   UNL     1     -22.628 -40.373  19.111  1.00  0.00     0.039 A 
ATOM     28  C   UNL     1     -23.014 -39.031  19.104  1.00  0.00     0.075 A 
ATOM     29  C   UNL     1     -23.553 -41.383  18.800  1.00  0.00     0.013 A 
ATOM     30  C   UNL     1     -24.346 -38.716  18.785  1.00  0.00     0.127 A 
ATOM     31  C   UNL     1     -24.869 -41.057  18.485  1.00  0.00     0.005 A 
ATOM     32  C   UNL     1     -25.267 -39.723  18.477  1.00  0.00     0.047 A 
ATOM     33  O   UNL     1     -20.892 -41.945  19.373  1.00  0.00    -0.287 OA
ATOM     34  O   UNL     1     -22.231 -36.785  19.386  1.00  0.00    -0.289 OA
BRANCH  30  35
ATOM     35  O   UNL     1     -24.776 -37.420  18.772  1.00  0.00    -0.507 OA
ATOM     36  H   UNL     1     -24.099 -36.837  18.393  1.00  0.00     0.293 HD
ENDBRANCH  30  35
ENDBRANCH  21  23
ENDBRANCH  20  21
ENDBRANCH   1  20
TORSDOF 7
ENDMDL
MODEL 7
REMARK VINA RESULT:    -9.947      3.880      9.975
REMARK INTER + INTRA:         -14.732
REMARK INTER:                 -14.238
REMARK INTRA:                  -0.494
REMARK UNBOUND:                -1.006
REMARK SMILES O=C1C(NCCCN=c2c3c([nH]c4cc(Cl)ccc24)CCCC3)=CC(=O)c2c(O)cccc21
REMARK SMILES IDX 6 1 7 2 8 3 9 4 12 5 11 6 13 7 10 8 20 9 14 10 19 11 23 12
REMARK SMILES IDX 21 13 15 14 18 15 22 16 17 17 16 19 5 20 4 21 3 23 24 24
REMARK SMILES IDX 2 25 25 26 33 27 27 28 32 29 28 30 31 31 30 32 1 33 26 34
REMARK SMILES IDX 29 35
REMARK H PARENT 12 18 4 22 29 36
ROOT
ATOM      1  C   UNL     1     -15.955 -43.049  26.568  1.00  0.00     0.045 C 
ENDROOT
BRANCH   1   2
ATOM      2  C   UNL     1     -16.897 -42.987  25.367  1.00  0.00     0.144 C 
BRANCH   2   3
ATOM      3  N   UNL     1     -17.907 -41.975  25.608  1.00  0.00    -0.284 NA
BRANCH   3   4
ATOM      4  C   UNL     1     -19.155 -42.016  25.280  1.00  0.00     0.072 A 
ATOM      5  N   UNL     1     -21.783 -41.147  24.771  1.00  0.00    -0.358 N 
ATOM      6  C   UNL     1     -20.798 -40.904  23.834  1.00  0.00     0.021 A 
ATOM      7  C   UNL     1     -21.596 -42.131  25.755  1.00  0.00     0.049 A 
ATOM      8  C   UNL     1     -19.526 -41.319  23.994  1.00  0.00    -0.003 A 
ATOM      9  C   UNL     1     -21.217 -40.124  22.606  1.00  0.00     0.054 C 
ATOM     10  C   UNL     1     -22.695 -42.613  26.478  1.00  0.00     0.047 A 
ATOM     11  C   UNL     1     -20.305 -42.630  26.023  1.00  0.00     0.024 A 
ATOM     12  C   UNL     1     -18.429 -41.071  22.994  1.00  0.00     0.039 C 
ATOM     13  C   UNL     1     -20.047 -39.573  21.790  1.00  0.00     0.007 C 
ATOM     14  C   UNL     1     -22.525 -43.643  27.399  1.00  0.00     0.043 A 
ATOM     15  C   UNL     1     -20.164 -43.708  26.904  1.00  0.00     0.014 A 
ATOM     16  C   UNL     1     -18.954 -40.621  21.630  1.00  0.00     0.005 C 
ATOM     17  C   UNL     1     -21.268 -44.208  27.599  1.00  0.00     0.021 A 
ATOM     18  H   UNL     1     -22.737 -40.958  24.483  1.00  0.00     0.166 HD
ATOM     19  Cl  UNL     1     -23.882 -44.249  28.265  1.00  0.00    -0.084 Cl
ENDBRANCH   3   4
ENDBRANCH   2   3
ENDBRANCH   1   2
BRANCH   1  20
ATOM     20  C   UNL     1     -14.532 -42.628  26.215  1.00  0.00     0.115 C 
BRANCH  20  21
ATOM     21  N   UNL     1     -13.591 -43.706  26.465  1.00  0.00    -0.382 N 
ATOM     22  H   UNL     1     -13.995 -44.649  26.400  1.00  0.00     0.160 HD
BRANCH  21  23
ATOM     23  C   UNL     1     -12.569 -43.688  27.409  1.00  0.00     0.087 C 
ATOM     24  C   UNL     1     -11.565 -42.807  27.466  1.00  0.00     0.082 C 
ATOM     25  C   UNL     1     -12.633 -44.772  28.446  1.00  0.00     0.209 C 
ATOM     26  C   UNL     1     -10.499 -42.834  28.486  1.00  0.00     0.192 C 
ATOM     27  C   UNL     1     -11.544 -44.876  29.436  1.00  0.00     0.039 A 
ATOM     28  C   UNL     1     -10.503 -43.947  29.467  1.00  0.00     0.075 A 
ATOM     29  C   UNL     1     -11.583 -45.936  30.357  1.00  0.00     0.013 A 
ATOM     30  C   UNL     1      -9.494 -44.098  30.434  1.00  0.00     0.127 A 
ATOM     31  C   UNL     1     -10.578 -46.073  31.311  1.00  0.00     0.005 A 
ATOM     32  C   UNL     1      -9.533 -45.155  31.350  1.00  0.00     0.047 A 
ATOM     33  O   UNL     1     -13.584 -45.551  28.468  1.00  0.00    -0.287 OA
ATOM     34  O   UNL     1      -9.667 -41.936  28.470  1.00  0.00    -0.289 OA
BRANCH  30  35
ATOM     35  O   UNL     1      -8.449 -43.222  30.501  1.00  0.00    -0.507 OA
ATOM     36  H   UNL     1      -8.729 -42.384  30.901  1.00  0.00     0.293 HD
ENDBRANCH  30  35
ENDBRANCH  21  23
ENDBRANCH  20  21
ENDBRANCH   1  20
TORSDOF 7
ENDMDL
MODEL 8
REMARK VINA RESULT:    -9.743      6.429     10.607
REMARK INTER + INTRA:         -14.451
REMARK INTER:                 -12.972
REMARK INTRA:                  -1.479
REMARK UNBOUND:                -1.006
REMARK SMILES O=C1C(NCCCN=c2c3c([nH]c4cc(Cl)ccc24)CCCC3)=CC(=O)c2c(O)cccc21
REMARK SMILES IDX 6 1 7 2 8 3 9 4 12 5 11 6 13 7 10 8 20 9 14 10 19 11 23 12
REMARK SMILES IDX 21 13 15 14 18 15 22 16 17 17 16 19 5 20 4 21 3 23 24 24
REMARK SMILES IDX 2 25 25 26 33 27 27 28 32 29 28 30 31 31 30 32 1 33 26 34
REMARK SMILES IDX 29 35
REMARK H PARENT 12 18 4 22 29 36
ROOT
ATOM      1  C   UNL     1     -21.841 -44.174  26.259  1.00  0.00     0.045 C 
ENDROOT
BRANCH   1   2
ATOM      2  C   UNL     1     -20.917 -43.556  27.307  1.00  0.00     0.144 C 
BRANCH   2   3
ATOM      3  N   UNL     1     -20.414 -42.290  26.809  1.00  0.00    -0.284 NA
BRANCH   3   4
ATOM      4  C   UNL     1     -19.418 -42.100  26.011  1.00  0.00     0.072 A 
ATOM      5  N   UNL     1     -17.709 -42.414  23.797  1.00  0.00    -0.358 N 
ATOM      6  C   UNL     1     -18.901 -41.733  23.639  1.00  0.00     0.021 A 
ATOM      7  C   UNL     1     -17.164 -42.599  25.078  1.00  0.00     0.049 A 
ATOM      8  C   UNL     1     -19.753 -41.516  24.660  1.00  0.00    -0.003 A 
ATOM      9  C   UNL     1     -19.217 -41.249  22.240  1.00  0.00     0.054 C 
ATOM     10  C   UNL     1     -15.822 -42.975  25.218  1.00  0.00     0.047 A 
ATOM     11  C   UNL     1     -17.966 -42.417  26.223  1.00  0.00     0.024 A 
ATOM     12  C   UNL     1     -21.057 -40.779  24.524  1.00  0.00     0.039 C 
ATOM     13  C   UNL     1     -20.676 -40.835  22.041  1.00  0.00     0.007 C 
ATOM     14  C   UNL     1     -15.258 -43.084  26.487  1.00  0.00     0.043 A 
ATOM     15  C   UNL     1     -17.367 -42.468  27.486  1.00  0.00     0.014 A 
ATOM     16  C   UNL     1     -21.169 -39.998  23.215  1.00  0.00     0.005 C 
ATOM     17  C   UNL     1     -16.018 -42.812  27.620  1.00  0.00     0.021 A 
ATOM     18  H   UNL     1     -17.057 -42.370  23.020  1.00  0.00     0.166 HD
ATOM     19  Cl  UNL     1     -13.603 -43.520  26.652  1.00  0.00    -0.084 Cl
ENDBRANCH   3   4
ENDBRANCH   2   3
ENDBRANCH   1   2
BRANCH   1  20
ATOM     20  C   UNL     1     -23.180 -43.448  26.163  1.00  0.00     0.115 C 
BRANCH  20  21
ATOM     21  N   UNL     1     -23.547 -42.858  27.439  1.00  0.00    -0.382 N 
ATOM     22  H   UNL     1     -24.111 -43.466  28.045  1.00  0.00     0.160 HD
BRANCH  21  23
ATOM     23  C   UNL     1     -23.890 -41.526  27.648  1.00  0.00     0.087 C 
ATOM     24  C   UNL     1     -23.782 -40.536  26.755  1.00  0.00     0.082 C 
ATOM     25  C   UNL     1     -24.430 -41.207  29.012  1.00  0.00     0.209 C 
ATOM     26  C   UNL     1     -24.155 -39.134  27.027  1.00  0.00     0.192 C 
ATOM     27  C   UNL     1     -24.742 -39.805  29.345  1.00  0.00     0.039 A 
ATOM     28  C   UNL     1     -24.612 -38.789  28.396  1.00  0.00     0.075 A 
ATOM     29  C   UNL     1     -25.183 -39.513  30.646  1.00  0.00     0.013 A 
ATOM     30  C   UNL     1     -24.926 -37.472  28.772  1.00  0.00     0.127 A 
ATOM     31  C   UNL     1     -25.492 -38.204  31.005  1.00  0.00     0.005 A 
ATOM     32  C   UNL     1     -25.363 -37.182  30.069  1.00  0.00     0.047 A 
ATOM     33  O   UNL     1     -24.613 -42.108  29.829  1.00  0.00    -0.287 OA
ATOM     34  O   UNL     1     -24.068 -38.329  26.109  1.00  0.00    -0.289 OA
BRANCH  30  35
ATOM     35  O   UNL     1     -24.807 -36.441  27.884  1.00  0.00    -0.507 OA
ATOM     36  H   UNL     1     -25.169 -36.690  27.019  1.00  0.00     0.293 HD
ENDBRANCH  30  35
ENDBRANCH  21  23
ENDBRANCH  20  21
ENDBRANCH   1  20
TORSDOF 7
ENDMDL
MODEL 9
REMARK VINA RESULT:    -9.670      6.023     10.502
REMARK INTER + INTRA:         -14.350
REMARK INTER:                 -12.865
REMARK INTRA:                  -1.485
REMARK UNBOUND:                -1.006
REMARK SMILES O=C1C(NCCCN=c2c3c([nH]c4cc(Cl)ccc24)CCCC3)=CC(=O)c2c(O)cccc21
REMARK SMILES IDX 6 1 7 2 8 3 9 4 12 5 11 6 13 7 10 8 20 9 14 10 19 11 23 12
REMARK SMILES IDX 21 13 15 14 18 15 22 16 17 17 16 19 5 20 4 21 3 23 24 24
REMARK SMILES IDX 2 25 25 26 33 27 27 28 32 29 28 30 31 31 30 32 1 33 26 34
REMARK SMILES IDX 29 35
REMARK H PARENT 12 18 4 22 29 36
ROOT
ATOM      1  C   UNL     1     -21.812 -41.146  22.170  1.00  0.00     0.045 C 
ENDROOT
BRANCH   1   2
ATOM      2  C   UNL     1     -23.186 -40.812  22.747  1.00  0.00     0.144 C 
BRANCH   2   3
ATOM      3  N   UNL     1     -23.516 -41.780  23.776  1.00  0.00    -0.284 NA
BRANCH   3   4
ATOM      4  C   UNL     1     -23.236 -41.716  25.034  1.00  0.00     0.072 A 
ATOM      5  N   UNL     1     -23.311 -42.283  27.790  1.00  0.00    -0.358 N 
ATOM      6  C   UNL     1     -22.633 -43.137  26.942  1.00  0.00     0.021 A 
ATOM      7  C   UNL     1     -23.614 -40.974  27.380  1.00  0.00     0.049 A 
ATOM      8  C   UNL     1     -22.527 -42.913  25.618  1.00  0.00    -0.003 A 
ATOM      9  C   UNL     1     -22.018 -44.365  27.579  1.00  0.00     0.054 C 
ATOM     10  C   UNL     1     -23.986 -40.014  28.330  1.00  0.00     0.047 A 
ATOM     11  C   UNL     1     -23.555 -40.626  26.016  1.00  0.00     0.024 A 
ATOM     12  C   UNL     1     -21.796 -43.822  24.668  1.00  0.00     0.039 C 
ATOM     13  C   UNL     1     -21.603 -45.444  26.577  1.00  0.00     0.007 C 
ATOM     14  C   UNL     1     -24.212 -38.698  27.938  1.00  0.00     0.043 A 
ATOM     15  C   UNL     1     -23.723 -39.286  25.649  1.00  0.00     0.014 A 
ATOM     16  C   UNL     1     -20.892 -44.829  25.379  1.00  0.00     0.005 C 
ATOM     17  C   UNL     1     -24.061 -38.325  26.606  1.00  0.00     0.021 A 
ATOM     18  H   UNL     1     -23.183 -42.437  28.784  1.00  0.00     0.166 HD
ATOM     19  Cl  UNL     1     -24.642 -37.517  29.113  1.00  0.00    -0.084 Cl
ENDBRANCH   3   4
ENDBRANCH   2   3
ENDBRANCH   1   2
BRANCH   1  20
ATOM     20  C   UNL     1     -20.673 -40.550  22.992  1.00  0.00     0.115 C 
BRANCH  20  21
ATOM     21  N   UNL     1     -19.501 -41.407  22.959  1.00  0.00    -0.382 N 
ATOM     22  H   UNL     1     -19.549 -42.170  22.271  1.00  0.00     0.160 HD
BRANCH  21  23
ATOM     23  C   UNL     1     -18.755 -41.806  24.063  1.00  0.00     0.087 C 
ATOM     24  C   UNL     1     -19.123 -41.691  25.343  1.00  0.00     0.082 C 
ATOM     25  C   UNL     1     -17.421 -42.419  23.751  1.00  0.00     0.209 C 
ATOM     26  C   UNL     1     -18.292 -42.125  26.484  1.00  0.00     0.192 C 
ATOM     27  C   UNL     1     -16.532 -42.796  24.866  1.00  0.00     0.039 A 
ATOM     28  C   UNL     1     -16.938 -42.657  26.195  1.00  0.00     0.075 A 
ATOM     29  C   UNL     1     -15.260 -43.306  24.558  1.00  0.00     0.013 A 
ATOM     30  C   UNL     1     -16.046 -43.034  27.214  1.00  0.00     0.127 A 
ATOM     31  C   UNL     1     -14.387 -43.677  25.577  1.00  0.00     0.005 A 
ATOM     32  C   UNL     1     -14.779 -43.540  26.906  1.00  0.00     0.047 A 
ATOM     33  O   UNL     1     -17.087 -42.609  22.583  1.00  0.00    -0.287 OA
ATOM     34  O   UNL     1     -18.764 -42.024  27.609  1.00  0.00    -0.289 OA
BRANCH  30  35
ATOM     35  O   UNL     1     -16.391 -42.910  28.529  1.00  0.00    -0.507 OA
ATOM     36  H   UNL     1     -17.174 -43.447  28.731  1.00  0.00     0.293 HD
ENDBRANCH  30  35
ENDBRANCH  21  23
ENDBRANCH  20  21
ENDBRANCH   1  20
TORSDOF 7
ENDMDL
