MODEL 1
REMARK VINA RESULT:   -11.833      0.000      0.000
REMARK INTER + INTRA:         -17.393
REMARK INTER:                 -16.676
REMARK INTRA:                  -0.717
REMARK UNBOUND:                -0.717
REMARK SMILES O=C(Nc1cncc(OC[C@H]2CC[N@H+](Cc3ccccc3)CC2)c1)c1cc[nH]c2nccc1-2
REMARK SMILES IDX 9 1 8 2 4 3 5 4 24 5 6 6 7 7 3 8 2 9 1 10 25 12 28 13 27 14
REMARK SMILES IDX 29 15 26 16 30 17 33 18 31 19 32 20 10 22 11 23 23 24 12 25
REMARK SMILES IDX 22 26 13 27 14 28 15 30 16 31 17 32 21 33 18 34 20 35 19 36
REMARK H PARENT 3 11 28 21 14 29
ROOT
ATOM      1  O   UNL     1     -14.367 -43.560  27.458  1.00  0.00    -0.492 OA
ENDROOT
BRANCH   1   2
ATOM      2  C   UNL     1     -13.426 -44.542  27.605  1.00  0.00     0.139 A 
ATOM      3  C   UNL     1     -11.394 -45.205  28.756  1.00  0.00     0.063 A 
ATOM      4  C   UNL     1     -11.448 -46.395  28.037  1.00  0.00     0.137 A 
ATOM      5  C   UNL     1     -12.411 -44.273  28.526  1.00  0.00     0.075 A 
ATOM      6  N   UNL     1     -12.420 -46.689  27.136  1.00  0.00    -0.259 NA
ATOM      7  C   UNL     1     -13.381 -45.760  26.941  1.00  0.00     0.157 A 
BRANCH   3   8
ATOM      8  N   UNL     1     -10.401 -44.874  29.702  1.00  0.00    -0.320 N 
ATOM      9  C   UNL     1     -10.271 -45.394  30.976  1.00  0.00     0.256 C 
ATOM     10  O   UNL     1     -10.956 -46.274  31.478  1.00  0.00    -0.269 OA
ATOM     11  H   UNL     1      -9.696 -44.209  29.408  1.00  0.00     0.170 HD
BRANCH   9  12
ATOM     12  C   UNL     1      -9.114 -44.826  31.722  1.00  0.00     0.052 A 
ATOM     13  N   UNL     1      -6.850 -43.811  33.025  1.00  0.00    -0.346 N 
ATOM     14  C   UNL     1      -6.715 -44.874  32.165  1.00  0.00     0.085 A 
ATOM     15  C   UNL     1      -8.085 -43.285  33.290  1.00  0.00     0.138 A 
ATOM     16  C   UNL     1      -7.775 -45.395  31.516  1.00  0.00     0.032 A 
ATOM     17  N   UNL     1      -8.413 -42.311  34.097  1.00  0.00    -0.239 NA
ATOM     18  C   UNL     1      -9.293 -43.828  32.601  1.00  0.00     0.032 A 
ATOM     19  C   UNL     1      -9.793 -42.204  33.987  1.00  0.00     0.114 A 
ATOM     20  C   UNL     1     -10.371 -43.057  33.128  1.00  0.00     0.033 A 
ATOM     21  H   UNL     1      -6.053 -43.479  33.553  1.00  0.00     0.167 HD
ENDBRANCH   9  12
ENDBRANCH   3   8
ENDBRANCH   1   2
BRANCH   1  22
ATOM     22  C   UNL     1     -14.424 -42.919  26.183  1.00  0.00     0.233 C 
BRANCH  22  23
ATOM     23  C   UNL     1     -15.814 -43.148  25.565  1.00  0.00     0.038 C 
ATOM     24  C   UNL     1     -16.907 -42.420  26.361  1.00  0.00     0.069 C 
ATOM     25  C   UNL     1     -15.855 -42.700  24.096  1.00  0.00     0.069 C 
ATOM     26  C   UNL     1     -18.283 -42.614  25.739  1.00  0.00     0.262 C 
ATOM     27  C   UNL     1     -17.234 -42.889  23.481  1.00  0.00     0.262 C 
ATOM     28  N   UNL     1     -18.261 -42.148  24.306  1.00  0.00    -0.331 N 
ATOM     29  H   UNL     1     -17.987 -41.157  24.303  1.00  0.00     0.348 HD
BRANCH  28  30
ATOM     30  C   UNL     1     -19.646 -42.195  23.691  1.00  0.00     0.299 C 
BRANCH  30  31
ATOM     31  C   UNL     1     -19.912 -41.052  22.749  1.00  0.00     0.006 A 
ATOM     32  C   UNL     1     -19.103 -40.860  21.618  1.00  0.00     0.009 A 
ATOM     33  C   UNL     1     -20.983 -40.174  22.977  1.00  0.00     0.009 A 
ATOM     34  C   UNL     1     -19.368 -39.816  20.730  1.00  0.00     0.001 A 
ATOM     35  C   UNL     1     -21.241 -39.131  22.087  1.00  0.00     0.001 A 
ATOM     36  C   UNL     1     -20.437 -38.955  20.963  1.00  0.00     0.000 A 
ENDBRANCH  30  31
ENDBRANCH  28  30
ENDBRANCH  22  23
ENDBRANCH   1  22
TORSDOF 7
ENDMDL
MODEL 2
REMARK VINA RESULT:   -11.338      1.800      2.930
REMARK INTER + INTRA:         -16.695
REMARK INTER:                 -15.896
REMARK INTRA:                  -0.799
REMARK UNBOUND:                -0.717
REMARK SMILES O=C(Nc1cncc(OC[C@H]2CC[N@H+](Cc3ccccc3)CC2)c1)c1cc[nH]c2nccc1-2
REMARK SMILES IDX 9 1 8 2 4 3 5 4 24 5 6 6 7 7 3 8 2 9 1 10 25 12 28 13 27 14
REMARK SMILES IDX 29 15 26 16 30 17 33 18 31 19 32 20 10 22 11 23 23 24 12 25
REMARK SMILES IDX 22 26 13 27 14 28 15 30 16 31 17 32 21 33 18 34 20 35 19 36
REMARK H PARENT 3 11 28 21 14 29
ROOT
ATOM      1  O   UNL     1     -13.893 -43.154  26.889  1.00  0.00    -0.492 OA
ENDROOT
BRANCH   1   2
ATOM      2  C   UNL     1     -13.159 -44.214  27.344  1.00  0.00     0.139 A 
ATOM      3  C   UNL     1     -11.404 -44.922  28.866  1.00  0.00     0.063 A 
ATOM      4  C   UNL     1     -11.590 -46.214  28.382  1.00  0.00     0.137 A 
ATOM      5  C   UNL     1     -12.213 -43.916  28.328  1.00  0.00     0.075 A 
ATOM      6  N   UNL     1     -12.500 -46.539  27.429  1.00  0.00    -0.259 NA
ATOM      7  C   UNL     1     -13.260 -45.536  26.934  1.00  0.00     0.157 A 
BRANCH   3   8
ATOM      8  N   UNL     1     -10.471 -44.555  29.859  1.00  0.00    -0.320 N 
ATOM      9  C   UNL     1     -10.702 -44.484  31.219  1.00  0.00     0.256 C 
ATOM     10  O   UNL     1     -11.735 -44.786  31.801  1.00  0.00    -0.269 OA
ATOM     11  H   UNL     1      -9.530 -44.352  29.545  1.00  0.00     0.170 HD
BRANCH   9  12
ATOM     12  C   UNL     1      -9.503 -44.057  31.992  1.00  0.00     0.052 A 
ATOM     13  N   UNL     1      -7.165 -43.290  33.333  1.00  0.00    -0.346 N 
ATOM     14  C   UNL     1      -7.084 -44.184  32.292  1.00  0.00     0.085 A 
ATOM     15  C   UNL     1      -8.379 -42.819  33.752  1.00  0.00     0.138 A 
ATOM     16  C   UNL     1      -8.182 -44.581  31.619  1.00  0.00     0.032 A 
ATOM     17  N   UNL     1      -8.655 -42.003  34.735  1.00  0.00    -0.239 NA
ATOM     18  C   UNL     1      -9.627 -43.231  33.043  1.00  0.00     0.032 A 
ATOM     19  C   UNL     1     -10.038 -41.878  34.718  1.00  0.00     0.114 A 
ATOM     20  C   UNL     1     -10.668 -42.565  33.753  1.00  0.00     0.033 A 
ATOM     21  H   UNL     1      -6.338 -43.058  33.868  1.00  0.00     0.167 HD
ENDBRANCH   9  12
ENDBRANCH   3   8
ENDBRANCH   1   2
BRANCH   1  22
ATOM     22  C   UNL     1     -13.972 -42.998  25.472  1.00  0.00     0.233 C 
BRANCH  22  23
ATOM     23  C   UNL     1     -15.388 -42.530  25.094  1.00  0.00     0.038 C 
ATOM     24  C   UNL     1     -15.864 -43.187  23.790  1.00  0.00     0.069 C 
ATOM     25  C   UNL     1     -16.393 -42.820  26.219  1.00  0.00     0.069 C 
ATOM     26  C   UNL     1     -17.277 -42.755  23.423  1.00  0.00     0.262 C 
ATOM     27  C   UNL     1     -17.806 -42.393  25.844  1.00  0.00     0.262 C 
ATOM     28  N   UNL     1     -18.215 -43.073  24.560  1.00  0.00    -0.331 N 
ATOM     29  H   UNL     1     -18.167 -44.086  24.730  1.00  0.00     0.348 HD
BRANCH  28  30
ATOM     30  C   UNL     1     -19.655 -42.787  24.181  1.00  0.00     0.299 C 
BRANCH  30  31
ATOM     31  C   UNL     1     -20.643 -43.282  25.202  1.00  0.00     0.006 A 
ATOM     32  C   UNL     1     -21.397 -42.373  25.962  1.00  0.00     0.009 A 
ATOM     33  C   UNL     1     -20.839 -44.658  25.396  1.00  0.00     0.009 A 
ATOM     34  C   UNL     1     -22.332 -42.833  26.889  1.00  0.00     0.001 A 
ATOM     35  C   UNL     1     -21.776 -45.113  26.325  1.00  0.00     0.001 A 
ATOM     36  C   UNL     1     -22.523 -44.201  27.068  1.00  0.00     0.000 A 
ENDBRANCH  30  31
ENDBRANCH  28  30
ENDBRANCH  22  23
ENDBRANCH   1  22
TORSDOF 7
ENDMDL
MODEL 3
REMARK VINA RESULT:   -11.217      3.139     11.478
REMARK INTER + INTRA:         -16.524
REMARK INTER:                 -15.996
REMARK INTRA:                  -0.529
REMARK UNBOUND:                -0.717
REMARK SMILES O=C(Nc1cncc(OC[C@H]2CC[N@H+](Cc3ccccc3)CC2)c1)c1cc[nH]c2nccc1-2
REMARK SMILES IDX 9 1 8 2 4 3 5 4 24 5 6 6 7 7 3 8 2 9 1 10 25 12 28 13 27 14
REMARK SMILES IDX 29 15 26 16 30 17 33 18 31 19 32 20 10 22 11 23 23 24 12 25
REMARK SMILES IDX 22 26 13 27 14 28 15 30 16 31 17 32 21 33 18 34 20 35 19 36
REMARK H PARENT 3 11 28 21 14 29
ROOT
ATOM      1  O   UNL     1     -14.344 -42.964  25.474  1.00  0.00    -0.492 OA
ENDROOT
BRANCH   1   2
ATOM      2  C   UNL     1     -15.436 -42.589  24.740  1.00  0.00     0.139 A 
ATOM      3  C   UNL     1     -17.862 -42.511  24.668  1.00  0.00     0.063 A 
ATOM      4  C   UNL     1     -17.743 -41.907  23.419  1.00  0.00     0.137 A 
ATOM      5  C   UNL     1     -16.676 -42.849  25.328  1.00  0.00     0.075 A 
ATOM      6  N   UNL     1     -16.555 -41.638  22.821  1.00  0.00    -0.259 NA
ATOM      7  C   UNL     1     -15.435 -41.984  23.491  1.00  0.00     0.157 A 
BRANCH   3   8
ATOM      8  N   UNL     1     -19.081 -42.797  25.318  1.00  0.00    -0.320 N 
ATOM      9  C   UNL     1     -19.381 -42.563  26.646  1.00  0.00     0.256 C 
ATOM     10  O   UNL     1     -18.663 -42.013  27.470  1.00  0.00    -0.269 OA
ATOM     11  H   UNL     1     -19.820 -43.186  24.745  1.00  0.00     0.170 HD
BRANCH   9  12
ATOM     12  C   UNL     1     -20.759 -42.988  27.015  1.00  0.00     0.052 A 
ATOM     13  N   UNL     1     -23.296 -43.889  27.794  1.00  0.00    -0.346 N 
ATOM     14  C   UNL     1     -22.217 -44.733  27.902  1.00  0.00     0.085 A 
ATOM     15  C   UNL     1     -23.149 -42.638  27.258  1.00  0.00     0.138 A 
ATOM     16  C   UNL     1     -20.979 -44.343  27.540  1.00  0.00     0.032 A 
ATOM     17  N   UNL     1     -24.053 -41.719  27.043  1.00  0.00    -0.239 NA
ATOM     18  C   UNL     1     -21.800 -42.158  26.838  1.00  0.00     0.032 A 
ATOM     19  C   UNL     1     -23.359 -40.660  26.475  1.00  0.00     0.114 A 
ATOM     20  C   UNL     1     -22.038 -40.847  26.330  1.00  0.00     0.033 A 
ATOM     21  H   UNL     1     -24.227 -44.224  28.008  1.00  0.00     0.167 HD
ENDBRANCH   9  12
ENDBRANCH   3   8
ENDBRANCH   1   2
BRANCH   1  22
ATOM     22  C   UNL     1     -14.201 -44.360  25.733  1.00  0.00     0.233 C 
BRANCH  22  23
ATOM     23  C   UNL     1     -13.595 -44.555  27.134  1.00  0.00     0.038 C 
ATOM     24  C   UNL     1     -14.651 -44.363  28.232  1.00  0.00     0.069 C 
ATOM     25  C   UNL     1     -12.942 -45.938  27.275  1.00  0.00     0.069 C 
ATOM     26  C   UNL     1     -14.068 -44.584  29.620  1.00  0.00     0.262 C 
ATOM     27  C   UNL     1     -12.367 -46.157  28.668  1.00  0.00     0.262 C 
ATOM     28  N   UNL     1     -13.453 -45.958  29.699  1.00  0.00    -0.331 N 
ATOM     29  H   UNL     1     -14.191 -46.643  29.491  1.00  0.00     0.348 HD
BRANCH  28  30
ATOM     30  C   UNL     1     -12.985 -46.271  31.107  1.00  0.00     0.299 C 
BRANCH  30  31
ATOM     31  C   UNL     1     -11.629 -45.699  31.418  1.00  0.00     0.006 A 
ATOM     32  C   UNL     1     -10.468 -46.456  31.194  1.00  0.00     0.009 A 
ATOM     33  C   UNL     1     -11.504 -44.393  31.919  1.00  0.00     0.009 A 
ATOM     34  C   UNL     1      -9.210 -45.914  31.458  1.00  0.00     0.001 A 
ATOM     35  C   UNL     1     -10.243 -43.857  32.181  1.00  0.00     0.001 A 
ATOM     36  C   UNL     1      -9.098 -44.615  31.948  1.00  0.00     0.000 A 
ENDBRANCH  30  31
ENDBRANCH  28  30
ENDBRANCH  22  23
ENDBRANCH   1  22
TORSDOF 7
ENDMDL
MODEL 4
REMARK VINA RESULT:   -11.202      2.772     11.828
REMARK INTER + INTRA:         -16.503
REMARK INTER:                 -16.000
REMARK INTRA:                  -0.502
REMARK UNBOUND:                -0.717
REMARK SMILES O=C(Nc1cncc(OC[C@H]2CC[N@H+](Cc3ccccc3)CC2)c1)c1cc[nH]c2nccc1-2
REMARK SMILES IDX 9 1 8 2 4 3 5 4 24 5 6 6 7 7 3 8 2 9 1 10 25 12 28 13 27 14
REMARK SMILES IDX 29 15 26 16 30 17 33 18 31 19 32 20 10 22 11 23 23 24 12 25
REMARK SMILES IDX 22 26 13 27 14 28 15 30 16 31 17 32 21 33 18 34 20 35 19 36
REMARK H PARENT 3 11 28 21 14 29
ROOT
ATOM      1  O   UNL     1     -14.122 -43.272  26.858  1.00  0.00    -0.492 OA
ENDROOT
BRANCH   1   2
ATOM      2  C   UNL     1     -14.920 -42.906  25.809  1.00  0.00     0.139 A 
ATOM      3  C   UNL     1     -17.195 -42.446  25.095  1.00  0.00     0.063 A 
ATOM      4  C   UNL     1     -16.678 -42.182  23.830  1.00  0.00     0.137 A 
ATOM      5  C   UNL     1     -16.284 -42.811  26.092  1.00  0.00     0.075 A 
ATOM      6  N   UNL     1     -15.359 -42.263  23.521  1.00  0.00    -0.259 NA
ATOM      7  C   UNL     1     -14.514 -42.622  24.513  1.00  0.00     0.157 A 
BRANCH   3   8
ATOM      8  N   UNL     1     -18.558 -42.365  25.447  1.00  0.00    -0.320 N 
ATOM      9  C   UNL     1     -19.071 -42.196  26.719  1.00  0.00     0.256 C 
ATOM     10  O   UNL     1     -18.431 -42.026  27.748  1.00  0.00    -0.269 OA
ATOM     11  H   UNL     1     -19.227 -42.405  24.688  1.00  0.00     0.170 HD
BRANCH   9  12
ATOM     12  C   UNL     1     -20.560 -42.156  26.746  1.00  0.00     0.052 A 
ATOM     13  N   UNL     1     -23.356 -41.976  26.700  1.00  0.00    -0.346 N 
ATOM     14  C   UNL     1     -22.603 -40.898  26.301  1.00  0.00     0.085 A 
ATOM     15  C   UNL     1     -22.751 -43.110  27.169  1.00  0.00     0.138 A 
ATOM     16  C   UNL     1     -21.256 -40.939  26.307  1.00  0.00     0.032 A 
ATOM     17  N   UNL     1     -23.294 -44.210  27.622  1.00  0.00    -0.239 NA
ATOM     18  C   UNL     1     -21.262 -43.206  27.200  1.00  0.00     0.032 A 
ATOM     19  C   UNL     1     -22.223 -45.019  27.973  1.00  0.00     0.114 A 
ATOM     20  C   UNL     1     -21.007 -44.497  27.749  1.00  0.00     0.033 A 
ATOM     21  H   UNL     1     -24.364 -41.901  26.752  1.00  0.00     0.167 HD
ENDBRANCH   9  12
ENDBRANCH   3   8
ENDBRANCH   1   2
BRANCH   1  22
ATOM     22  C   UNL     1     -14.117 -44.659  27.199  1.00  0.00     0.233 C 
BRANCH  22  23
ATOM     23  C   UNL     1     -12.726 -45.044  27.730  1.00  0.00     0.038 C 
ATOM     24  C   UNL     1     -11.898 -43.800  28.084  1.00  0.00     0.069 C 
ATOM     25  C   UNL     1     -12.828 -45.966  28.954  1.00  0.00     0.069 C 
ATOM     26  C   UNL     1     -10.531 -44.170  28.639  1.00  0.00     0.262 C 
ATOM     27  C   UNL     1     -11.458 -46.328  29.510  1.00  0.00     0.262 C 
ATOM     28  N   UNL     1     -10.698 -45.065  29.841  1.00  0.00    -0.331 N 
ATOM     29  H   UNL     1     -11.256 -44.553  30.536  1.00  0.00     0.348 HD
BRANCH  28  30
ATOM     30  C   UNL     1      -9.365 -45.344  30.509  1.00  0.00     0.299 C 
BRANCH  30  31
ATOM     31  C   UNL     1      -9.080 -44.423  31.664  1.00  0.00     0.006 A 
ATOM     32  C   UNL     1      -7.756 -44.136  32.034  1.00  0.00     0.009 A 
ATOM     33  C   UNL     1     -10.131 -43.824  32.375  1.00  0.00     0.009 A 
ATOM     34  C   UNL     1      -7.493 -43.260  33.088  1.00  0.00     0.001 A 
ATOM     35  C   UNL     1      -9.861 -42.950  33.429  1.00  0.00     0.001 A 
ATOM     36  C   UNL     1      -8.544 -42.667  33.783  1.00  0.00     0.000 A 
ENDBRANCH  30  31
ENDBRANCH  28  30
ENDBRANCH  22  23
ENDBRANCH   1  22
TORSDOF 7
ENDMDL
MODEL 5
REMARK VINA RESULT:   -11.200      2.901     11.854
REMARK INTER + INTRA:         -16.500
REMARK INTER:                 -15.889
REMARK INTRA:                  -0.611
REMARK UNBOUND:                -0.717
REMARK SMILES O=C(Nc1cncc(OC[C@H]2CC[N@H+](Cc3ccccc3)CC2)c1)c1cc[nH]c2nccc1-2
REMARK SMILES IDX 9 1 8 2 4 3 5 4 24 5 6 6 7 7 3 8 2 9 1 10 25 12 28 13 27 14
REMARK SMILES IDX 29 15 26 16 30 17 33 18 31 19 32 20 10 22 11 23 23 24 12 25
REMARK SMILES IDX 22 26 13 27 14 28 15 30 16 31 17 32 21 33 18 34 20 35 19 36
REMARK H PARENT 3 11 28 21 14 29
ROOT
ATOM      1  O   UNL     1     -14.101 -43.149  26.210  1.00  0.00    -0.492 OA
ENDROOT
BRANCH   1   2
ATOM      2  C   UNL     1     -14.902 -42.735  25.182  1.00  0.00     0.139 A 
ATOM      3  C   UNL     1     -17.155 -42.740  24.278  1.00  0.00     0.063 A 
ATOM      4  C   UNL     1     -16.664 -41.992  23.212  1.00  0.00     0.137 A 
ATOM      5  C   UNL     1     -16.245 -43.107  25.274  1.00  0.00     0.075 A 
ATOM      6  N   UNL     1     -15.366 -41.611  23.093  1.00  0.00    -0.259 NA
ATOM      7  C   UNL     1     -14.519 -41.990  24.075  1.00  0.00     0.157 A 
BRANCH   3   8
ATOM      8  N   UNL     1     -18.498 -43.145  24.433  1.00  0.00    -0.320 N 
ATOM      9  C   UNL     1     -19.412 -42.639  25.338  1.00  0.00     0.256 C 
ATOM     10  O   UNL     1     -19.231 -41.713  26.116  1.00  0.00    -0.269 OA
ATOM     11  H   UNL     1     -18.833 -43.858  23.797  1.00  0.00     0.170 HD
BRANCH   9  12
ATOM     12  C   UNL     1     -20.747 -43.293  25.244  1.00  0.00     0.052 A 
ATOM     13  N   UNL     1     -23.245 -44.521  24.925  1.00  0.00    -0.346 N 
ATOM     14  C   UNL     1     -22.709 -43.799  23.885  1.00  0.00     0.085 A 
ATOM     15  C   UNL     1     -22.595 -44.595  26.126  1.00  0.00     0.138 A 
ATOM     16  C   UNL     1     -21.511 -43.192  23.993  1.00  0.00     0.032 A 
ATOM     17  N   UNL     1     -22.960 -45.195  27.229  1.00  0.00    -0.239 NA
ATOM     18  C   UNL     1     -21.266 -43.937  26.301  1.00  0.00     0.032 A 
ATOM     19  C   UNL     1     -21.937 -44.940  28.132  1.00  0.00     0.114 A 
ATOM     20  C   UNL     1     -20.914 -44.214  27.654  1.00  0.00     0.033 A 
ATOM     21  H   UNL     1     -24.175 -44.912  24.846  1.00  0.00     0.167 HD
ENDBRANCH   9  12
ENDBRANCH   3   8
ENDBRANCH   1   2
BRANCH   1  22
ATOM     22  C   UNL     1     -14.034 -44.558  26.435  1.00  0.00     0.233 C 
BRANCH  22  23
ATOM     23  C   UNL     1     -13.264 -44.825  27.740  1.00  0.00     0.038 C 
ATOM     24  C   UNL     1     -12.167 -43.775  27.967  1.00  0.00     0.069 C 
ATOM     25  C   UNL     1     -14.208 -44.860  28.951  1.00  0.00     0.069 C 
ATOM     26  C   UNL     1     -11.418 -44.013  29.271  1.00  0.00     0.262 C 
ATOM     27  C   UNL     1     -13.454 -45.090  30.254  1.00  0.00     0.262 C 
ATOM     28  N   UNL     1     -12.395 -44.026  30.419  1.00  0.00    -0.331 N 
ATOM     29  H   UNL     1     -12.880 -43.120  30.427  1.00  0.00     0.348 HD
BRANCH  28  30
ATOM     30  C   UNL     1     -11.676 -44.121  31.751  1.00  0.00     0.299 C 
BRANCH  30  31
ATOM     31  C   UNL     1     -10.326 -44.776  31.647  1.00  0.00     0.006 A 
ATOM     32  C   UNL     1      -9.163 -44.068  31.991  1.00  0.00     0.009 A 
ATOM     33  C   UNL     1     -10.211 -46.110  31.225  1.00  0.00     0.009 A 
ATOM     34  C   UNL     1      -7.914 -44.686  31.921  1.00  0.00     0.001 A 
ATOM     35  C   UNL     1      -8.959 -46.722  31.156  1.00  0.00     0.001 A 
ATOM     36  C   UNL     1      -7.813 -46.012  31.506  1.00  0.00     0.000 A 
ENDBRANCH  30  31
ENDBRANCH  28  30
ENDBRANCH  22  23
ENDBRANCH   1  22
TORSDOF 7
ENDMDL
MODEL 6
REMARK VINA RESULT:   -11.156      1.950      3.361
REMARK INTER + INTRA:         -16.438
REMARK INTER:                 -15.733
REMARK INTRA:                  -0.705
REMARK UNBOUND:                -0.717
REMARK SMILES O=C(Nc1cncc(OC[C@H]2CC[N@H+](Cc3ccccc3)CC2)c1)c1cc[nH]c2nccc1-2
REMARK SMILES IDX 9 1 8 2 4 3 5 4 24 5 6 6 7 7 3 8 2 9 1 10 25 12 28 13 27 14
REMARK SMILES IDX 29 15 26 16 30 17 33 18 31 19 32 20 10 22 11 23 23 24 12 25
REMARK SMILES IDX 22 26 13 27 14 28 15 30 16 31 17 32 21 33 18 34 20 35 19 36
REMARK H PARENT 3 11 28 21 14 29
ROOT
ATOM      1  O   UNL     1     -14.311 -44.408  27.063  1.00  0.00    -0.492 OA
ENDROOT
BRANCH   1   2
ATOM      2  C   UNL     1     -13.214 -45.054  27.563  1.00  0.00     0.139 A 
ATOM      3  C   UNL     1     -11.463 -45.007  29.244  1.00  0.00     0.063 A 
ATOM      4  C   UNL     1     -10.997 -46.201  28.703  1.00  0.00     0.137 A 
ATOM      5  C   UNL     1     -12.596 -44.438  28.653  1.00  0.00     0.075 A 
ATOM      6  N   UNL     1     -11.575 -46.828  27.647  1.00  0.00    -0.259 NA
ATOM      7  C   UNL     1     -12.664 -46.242  27.103  1.00  0.00     0.157 A 
BRANCH   3   8
ATOM      8  N   UNL     1     -10.888 -44.336  30.344  1.00  0.00    -0.320 N 
ATOM      9  C   UNL     1     -11.377 -44.305  31.637  1.00  0.00     0.256 C 
ATOM     10  O   UNL     1     -12.356 -44.903  32.061  1.00  0.00    -0.269 OA
ATOM     11  H   UNL     1     -10.014 -43.853  30.176  1.00  0.00     0.170 HD
BRANCH   9  12
ATOM     12  C   UNL     1     -10.530 -43.499  32.559  1.00  0.00     0.052 A 
ATOM     13  N   UNL     1      -9.054 -41.958  34.376  1.00  0.00    -0.346 N 
ATOM     14  C   UNL     1     -10.417 -41.799  34.306  1.00  0.00     0.085 A 
ATOM     15  C   UNL     1      -8.411 -42.819  33.529  1.00  0.00     0.138 A 
ATOM     16  C   UNL     1     -11.167 -42.517  33.448  1.00  0.00     0.032 A 
ATOM     17  N   UNL     1      -7.134 -43.075  33.422  1.00  0.00    -0.239 NA
ATOM     18  C   UNL     1      -9.195 -43.637  32.556  1.00  0.00     0.032 A 
ATOM     19  C   UNL     1      -7.040 -44.011  32.401  1.00  0.00     0.114 A 
ATOM     20  C   UNL     1      -8.207 -44.387  31.854  1.00  0.00     0.033 A 
ATOM     21  H   UNL     1      -8.502 -41.361  34.979  1.00  0.00     0.167 HD
ENDBRANCH   9  12
ENDBRANCH   3   8
ENDBRANCH   1   2
BRANCH   1  22
ATOM     22  C   UNL     1     -14.074 -43.157  26.419  1.00  0.00     0.233 C 
BRANCH  22  23
ATOM     23  C   UNL     1     -15.422 -42.530  26.020  1.00  0.00     0.038 C 
ATOM     24  C   UNL     1     -15.875 -43.013  24.635  1.00  0.00     0.069 C 
ATOM     25  C   UNL     1     -16.511 -42.835  27.059  1.00  0.00     0.069 C 
ATOM     26  C   UNL     1     -17.223 -42.423  24.244  1.00  0.00     0.262 C 
ATOM     27  C   UNL     1     -17.858 -42.249  26.660  1.00  0.00     0.262 C 
ATOM     28  N   UNL     1     -18.248 -42.764  25.295  1.00  0.00    -0.331 N 
ATOM     29  H   UNL     1     -18.296 -43.788  25.364  1.00  0.00     0.348 HD
BRANCH  28  30
ATOM     30  C   UNL     1     -19.635 -42.315  24.876  1.00  0.00     0.299 C 
BRANCH  30  31
ATOM     31  C   UNL     1     -20.734 -43.024  25.619  1.00  0.00     0.006 A 
ATOM     32  C   UNL     1     -20.729 -44.424  25.730  1.00  0.00     0.009 A 
ATOM     33  C   UNL     1     -21.768 -42.297  26.228  1.00  0.00     0.009 A 
ATOM     34  C   UNL     1     -21.734 -45.078  26.443  1.00  0.00     0.001 A 
ATOM     35  C   UNL     1     -22.771 -42.957  26.938  1.00  0.00     0.001 A 
ATOM     36  C   UNL     1     -22.752 -44.345  27.048  1.00  0.00     0.000 A 
ENDBRANCH  30  31
ENDBRANCH  28  30
ENDBRANCH  22  23
ENDBRANCH   1  22
TORSDOF 7
ENDMDL
MODEL 7
REMARK VINA RESULT:   -11.002      2.489     12.496
REMARK INTER + INTRA:         -16.221
REMARK INTER:                 -15.434
REMARK INTRA:                  -0.787
REMARK UNBOUND:                -0.717
REMARK SMILES O=C(Nc1cncc(OC[C@H]2CC[N@H+](Cc3ccccc3)CC2)c1)c1cc[nH]c2nccc1-2
REMARK SMILES IDX 9 1 8 2 4 3 5 4 24 5 6 6 7 7 3 8 2 9 1 10 25 12 28 13 27 14
REMARK SMILES IDX 29 15 26 16 30 17 33 18 31 19 32 20 10 22 11 23 23 24 12 25
REMARK SMILES IDX 22 26 13 27 14 28 15 30 16 31 17 32 21 33 18 34 20 35 19 36
REMARK H PARENT 3 11 28 21 14 29
ROOT
ATOM      1  O   UNL     1     -14.989 -43.680  26.476  1.00  0.00    -0.492 OA
ENDROOT
BRANCH   1   2
ATOM      2  C   UNL     1     -15.692 -43.277  25.374  1.00  0.00     0.139 A 
ATOM      3  C   UNL     1     -17.743 -42.250  24.578  1.00  0.00     0.063 A 
ATOM      4  C   UNL     1     -17.247 -42.405  23.287  1.00  0.00     0.137 A 
ATOM      5  C   UNL     1     -16.936 -42.697  25.630  1.00  0.00     0.075 A 
ATOM      6  N   UNL     1     -16.042 -42.961  23.003  1.00  0.00    -0.259 NA
ATOM      7  C   UNL     1     -15.296 -43.383  24.048  1.00  0.00     0.157 A 
BRANCH   3   8
ATOM      8  N   UNL     1     -18.987 -41.671  24.905  1.00  0.00    -0.320 N 
ATOM      9  C   UNL     1     -20.205 -42.321  24.978  1.00  0.00     0.256 C 
ATOM     10  O   UNL     1     -20.402 -43.519  24.833  1.00  0.00    -0.269 OA
ATOM     11  H   UNL     1     -18.983 -40.685  25.138  1.00  0.00     0.170 HD
BRANCH   9  12
ATOM     12  C   UNL     1     -21.328 -41.414  25.345  1.00  0.00     0.052 A 
ATOM     13  N   UNL     1     -23.389 -39.703  26.168  1.00  0.00    -0.346 N 
ATOM     14  C   UNL     1     -22.718 -40.452  27.105  1.00  0.00     0.085 A 
ATOM     15  C   UNL     1     -23.096 -39.830  24.838  1.00  0.00     0.138 A 
ATOM     16  C   UNL     1     -21.720 -41.288  26.755  1.00  0.00     0.032 A 
ATOM     17  N   UNL     1     -23.644 -39.237  23.810  1.00  0.00    -0.239 NA
ATOM     18  C   UNL     1     -22.002 -40.745  24.396  1.00  0.00     0.032 A 
ATOM     19  C   UNL     1     -22.972 -39.742  22.705  1.00  0.00     0.114 A 
ATOM     20  C   UNL     1     -21.997 -40.625  22.976  1.00  0.00     0.033 A 
ATOM     21  H   UNL     1     -24.179 -39.133  26.444  1.00  0.00     0.167 HD
ENDBRANCH   9  12
ENDBRANCH   3   8
ENDBRANCH   1   2
BRANCH   1  22
ATOM     22  C   UNL     1     -13.604 -43.336  26.508  1.00  0.00     0.233 C 
BRANCH  22  23
ATOM     23  C   UNL     1     -12.857 -44.329  27.415  1.00  0.00     0.038 C 
ATOM     24  C   UNL     1     -11.635 -43.675  28.074  1.00  0.00     0.069 C 
ATOM     25  C   UNL     1     -13.784 -44.907  28.495  1.00  0.00     0.069 C 
ATOM     26  C   UNL     1     -10.906 -44.641  28.997  1.00  0.00     0.262 C 
ATOM     27  C   UNL     1     -13.049 -45.867  29.421  1.00  0.00     0.262 C 
ATOM     28  N   UNL     1     -11.863 -45.164  30.038  1.00  0.00    -0.331 N 
ATOM     29  H   UNL     1     -12.231 -44.357  30.558  1.00  0.00     0.348 HD
BRANCH  28  30
ATOM     30  C   UNL     1     -11.146 -46.022  31.063  1.00  0.00     0.299 C 
BRANCH  30  31
ATOM     31  C   UNL     1      -9.832 -45.436  31.506  1.00  0.00     0.006 A 
ATOM     32  C   UNL     1      -8.629 -46.111  31.245  1.00  0.00     0.009 A 
ATOM     33  C   UNL     1      -9.789 -44.200  32.169  1.00  0.00     0.009 A 
ATOM     34  C   UNL     1      -7.409 -45.554  31.632  1.00  0.00     0.001 A 
ATOM     35  C   UNL     1      -8.567 -43.649  32.555  1.00  0.00     0.001 A 
ATOM     36  C   UNL     1      -7.379 -44.323  32.284  1.00  0.00     0.000 A 
ENDBRANCH  30  31
ENDBRANCH  28  30
ENDBRANCH  22  23
ENDBRANCH   1  22
TORSDOF 7
ENDMDL
MODEL 8
REMARK VINA RESULT:   -10.856      2.931     12.703
REMARK INTER + INTRA:         -16.016
REMARK INTER:                 -15.418
REMARK INTRA:                  -0.599
REMARK UNBOUND:                -0.717
REMARK SMILES O=C(Nc1cncc(OC[C@H]2CC[N@H+](Cc3ccccc3)CC2)c1)c1cc[nH]c2nccc1-2
REMARK SMILES IDX 9 1 8 2 4 3 5 4 24 5 6 6 7 7 3 8 2 9 1 10 25 12 28 13 27 14
REMARK SMILES IDX 29 15 26 16 30 17 33 18 31 19 32 20 10 22 11 23 23 24 12 25
REMARK SMILES IDX 22 26 13 27 14 28 15 30 16 31 17 32 21 33 18 34 20 35 19 36
REMARK H PARENT 3 11 28 21 14 29
ROOT
ATOM      1  O   UNL     1     -15.346 -43.642  25.789  1.00  0.00    -0.492 OA
ENDROOT
BRANCH   1   2
ATOM      2  C   UNL     1     -15.639 -42.905  24.676  1.00  0.00     0.139 A 
ATOM      3  C   UNL     1     -17.298 -42.449  22.962  1.00  0.00     0.063 A 
ATOM      4  C   UNL     1     -16.408 -41.518  22.435  1.00  0.00     0.137 A 
ATOM      5  C   UNL     1     -16.891 -43.144  24.105  1.00  0.00     0.075 A 
ATOM      6  N   UNL     1     -15.185 -41.259  22.964  1.00  0.00    -0.259 NA
ATOM      7  C   UNL     1     -14.831 -41.955  24.067  1.00  0.00     0.157 A 
BRANCH   3   8
ATOM      8  N   UNL     1     -18.576 -42.736  22.438  1.00  0.00    -0.320 N 
ATOM      9  C   UNL     1     -19.666 -41.886  22.414  1.00  0.00     0.256 C 
ATOM     10  O   UNL     1     -19.691 -40.722  22.788  1.00  0.00    -0.269 OA
ATOM     11  H   UNL     1     -18.698 -43.645  22.009  1.00  0.00     0.170 HD
BRANCH   9  12
ATOM     12  C   UNL     1     -20.871 -42.503  21.792  1.00  0.00     0.052 A 
ATOM     13  N   UNL     1     -23.074 -43.649  20.495  1.00  0.00    -0.346 N 
ATOM     14  C   UNL     1     -22.211 -42.850  19.783  1.00  0.00     0.085 A 
ATOM     15  C   UNL     1     -22.896 -43.840  21.838  1.00  0.00     0.138 A 
ATOM     16  C   UNL     1     -21.139 -42.279  20.365  1.00  0.00     0.032 A 
ATOM     17  N   UNL     1     -23.623 -44.527  22.679  1.00  0.00    -0.239 NA
ATOM     18  C   UNL     1     -21.726 -43.226  22.533  1.00  0.00     0.032 A 
ATOM     19  C   UNL     1     -22.994 -44.371  23.907  1.00  0.00     0.114 A 
ATOM     20  C   UNL     1     -21.877 -43.626  23.892  1.00  0.00     0.033 A 
ATOM     21  H   UNL     1     -23.910 -44.013  20.055  1.00  0.00     0.167 HD
ENDBRANCH   9  12
ENDBRANCH   3   8
ENDBRANCH   1   2
BRANCH   1  22
ATOM     22  C   UNL     1     -14.200 -44.490  25.707  1.00  0.00     0.233 C 
BRANCH  22  23
ATOM     23  C   UNL     1     -13.581 -44.640  27.107  1.00  0.00     0.038 C 
ATOM     24  C   UNL     1     -14.625 -44.409  28.208  1.00  0.00     0.069 C 
ATOM     25  C   UNL     1     -12.932 -46.021  27.287  1.00  0.00     0.069 C 
ATOM     26  C   UNL     1     -14.029 -44.585  29.598  1.00  0.00     0.262 C 
ATOM     27  C   UNL     1     -12.344 -46.196  28.681  1.00  0.00     0.262 C 
ATOM     28  N   UNL     1     -13.419 -45.959  29.716  1.00  0.00    -0.331 N 
ATOM     29  H   UNL     1     -14.162 -46.647  29.538  1.00  0.00     0.348 HD
BRANCH  28  30
ATOM     30  C   UNL     1     -12.938 -46.228  31.128  1.00  0.00     0.299 C 
BRANCH  30  31
ATOM     31  C   UNL     1     -11.541 -45.729  31.381  1.00  0.00     0.006 A 
ATOM     32  C   UNL     1     -11.326 -44.424  31.853  1.00  0.00     0.009 A 
ATOM     33  C   UNL     1     -10.435 -46.566  31.167  1.00  0.00     0.009 A 
ATOM     34  C   UNL     1     -10.032 -43.972  32.112  1.00  0.00     0.001 A 
ATOM     35  C   UNL     1      -9.143 -46.108  31.428  1.00  0.00     0.001 A 
ATOM     36  C   UNL     1      -8.943 -44.814  31.903  1.00  0.00     0.000 A 
ENDBRANCH  30  31
ENDBRANCH  28  30
ENDBRANCH  22  23
ENDBRANCH   1  22
TORSDOF 7
ENDMDL
MODEL 9
REMARK VINA RESULT:   -10.793      2.535     12.618
REMARK INTER + INTRA:         -15.926
REMARK INTER:                 -15.739
REMARK INTRA:                  -0.187
REMARK UNBOUND:                -0.717
REMARK SMILES O=C(Nc1cncc(OC[C@H]2CC[N@H+](Cc3ccccc3)CC2)c1)c1cc[nH]c2nccc1-2
REMARK SMILES IDX 9 1 8 2 4 3 5 4 24 5 6 6 7 7 3 8 2 9 1 10 25 12 28 13 27 14
REMARK SMILES IDX 29 15 26 16 30 17 33 18 31 19 32 20 10 22 11 23 23 24 12 25
REMARK SMILES IDX 22 26 13 27 14 28 15 30 16 31 17 32 21 33 18 34 20 35 19 36
REMARK H PARENT 3 11 28 21 14 29
ROOT
ATOM      1  O   UNL     1     -14.592 -43.117  26.273  1.00  0.00    -0.492 OA
ENDROOT
BRANCH   1   2
ATOM      2  C   UNL     1     -15.917 -42.836  26.460  1.00  0.00     0.139 A 
ATOM      3  C   UNL     1     -18.062 -42.503  25.371  1.00  0.00     0.063 A 
ATOM      4  C   UNL     1     -18.601 -42.286  26.635  1.00  0.00     0.137 A 
ATOM      5  C   UNL     1     -16.693 -42.784  25.300  1.00  0.00     0.075 A 
ATOM      6  N   UNL     1     -17.877 -42.331  27.782  1.00  0.00    -0.259 NA
ATOM      7  C   UNL     1     -16.558 -42.603  27.669  1.00  0.00     0.157 A 
BRANCH   3   8
ATOM      8  N   UNL     1     -18.789 -42.469  24.162  1.00  0.00    -0.320 N 
ATOM      9  C   UNL     1     -19.909 -41.704  23.897  1.00  0.00     0.256 C 
ATOM     10  O   UNL     1     -20.425 -40.882  24.641  1.00  0.00    -0.269 OA
ATOM     11  H   UNL     1     -18.438 -43.040  23.404  1.00  0.00     0.170 HD
BRANCH   9  12
ATOM     12  C   UNL     1     -20.440 -41.908  22.520  1.00  0.00     0.052 A 
ATOM     13  N   UNL     1     -21.540 -42.376  19.986  1.00  0.00    -0.346 N 
ATOM     14  C   UNL     1     -21.778 -43.271  21.002  1.00  0.00     0.085 A 
ATOM     15  C   UNL     1     -20.728 -41.294  20.190  1.00  0.00     0.138 A 
ATOM     16  C   UNL     1     -21.270 -43.087  22.236  1.00  0.00     0.032 A 
ATOM     17  N   UNL     1     -20.360 -40.366  19.346  1.00  0.00    -0.239 NA
ATOM     18  C   UNL     1     -20.136 -41.046  21.537  1.00  0.00     0.032 A 
ATOM     19  C   UNL     1     -19.529 -39.527  20.076  1.00  0.00     0.114 A 
ATOM     20  C   UNL     1     -19.358 -39.863  21.365  1.00  0.00     0.033 A 
ATOM     21  H   UNL     1     -21.875 -42.568  19.050  1.00  0.00     0.167 HD
ENDBRANCH   9  12
ENDBRANCH   3   8
ENDBRANCH   1   2
BRANCH   1  22
ATOM     22  C   UNL     1     -14.206 -44.484  26.415  1.00  0.00     0.233 C 
BRANCH  22  23
ATOM     23  C   UNL     1     -13.360 -44.640  27.691  1.00  0.00     0.038 C 
ATOM     24  C   UNL     1     -14.241 -44.654  28.948  1.00  0.00     0.069 C 
ATOM     25  C   UNL     1     -12.502 -45.913  27.642  1.00  0.00     0.069 C 
ATOM     26  C   UNL     1     -13.417 -44.839  30.214  1.00  0.00     0.262 C 
ATOM     27  C   UNL     1     -11.685 -46.098  28.914  1.00  0.00     0.262 C 
ATOM     28  N   UNL     1     -12.608 -46.106  30.110  1.00  0.00    -0.331 N 
ATOM     29  H   UNL     1     -13.264 -46.886  29.976  1.00  0.00     0.348 HD
BRANCH  28  30
ATOM     30  C   UNL     1     -11.878 -46.401  31.406  1.00  0.00     0.299 C 
BRANCH  30  31
ATOM     31  C   UNL     1     -10.474 -45.861  31.429  1.00  0.00     0.006 A 
ATOM     32  C   UNL     1      -9.388 -46.690  31.107  1.00  0.00     0.009 A 
ATOM     33  C   UNL     1     -10.232 -44.517  31.752  1.00  0.00     0.009 A 
ATOM     34  C   UNL     1      -8.088 -46.181  31.102  1.00  0.00     0.001 A 
ATOM     35  C   UNL     1      -8.931 -44.014  31.746  1.00  0.00     0.001 A 
ATOM     36  C   UNL     1      -7.861 -44.844  31.419  1.00  0.00     0.000 A 
ENDBRANCH  30  31
ENDBRANCH  28  30
ENDBRANCH  22  23
ENDBRANCH   1  22
TORSDOF 7
ENDMDL
