MODEL 1
REMARK VINA RESULT:   -10.405      0.000      0.000
REMARK INTER + INTRA:         -13.237
REMARK INTER:                 -12.838
REMARK INTRA:                  -0.399
REMARK UNBOUND:                -0.399
REMARK SMILES C[N@H+]1CC[C@H](CC/C=C2\Cc3ccccc3C2=O)CC1
REMARK SMILES IDX 7 1 6 2 5 3 2 4 3 5 20 6 4 7 19 8 1 9 8 11 9 12 10 13 17 14
REMARK SMILES IDX 11 15 16 16 12 17 15 18 13 19 14 20 18 21
REMARK H PARENT 2 10
ROOT
ATOM      1  C   UNL     1     -13.353 -45.409  27.933  1.00  0.00     0.028 C 
ENDROOT
BRANCH   1   2
ATOM      2  C   UNL     1     -12.088 -46.237  27.679  1.00  0.00     0.008 C 
BRANCH   2   3
ATOM      3  C   UNL     1     -10.994 -46.049  28.748  1.00  0.00     0.000 C 
ATOM      4  N   UNL     1      -9.978 -44.606  31.088  1.00  0.00    -0.337 N 
ATOM      5  C   UNL     1     -10.593 -45.971  31.257  1.00  0.00     0.262 C 
ATOM      6  C   UNL     1      -9.288 -44.458  29.757  1.00  0.00     0.262 C 
ATOM      7  C   UNL     1     -11.610 -46.205  30.149  1.00  0.00     0.065 C 
ATOM      8  C   UNL     1     -10.290 -44.687  28.633  1.00  0.00     0.065 C 
ATOM      9  C   UNL     1      -9.062 -44.264  32.231  1.00  0.00     0.332 C 
ATOM     10  H   UNL     1     -10.743 -43.918  31.116  1.00  0.00     0.347 HD
ENDBRANCH   2   3
ENDBRANCH   1   2
BRANCH   1  11
ATOM     11  C   UNL     1     -13.369 -44.191  27.060  1.00  0.00    -0.019 C 
BRANCH  11  12
ATOM     12  C   UNL     1     -14.390 -43.789  26.288  1.00  0.00     0.001 C 
ATOM     13  C   UNL     1     -14.558 -43.831  24.789  1.00  0.00     0.075 C 
ATOM     14  C   UNL     1     -15.624 -43.184  26.884  1.00  0.00     0.189 C 
ATOM     15  C   UNL     1     -15.914 -43.230  24.568  1.00  0.00    -0.032 A 
ATOM     16  C   UNL     1     -16.518 -42.860  25.770  1.00  0.00     0.026 A 
ATOM     17  C   UNL     1     -16.573 -43.021  23.368  1.00  0.00     0.005 A 
ATOM     18  C   UNL     1     -17.774 -42.283  25.829  1.00  0.00     0.012 A 
ATOM     19  C   UNL     1     -17.845 -42.438  23.403  1.00  0.00     0.000 A 
ATOM     20  C   UNL     1     -18.441 -42.072  24.622  1.00  0.00     0.001 A 
ATOM     21  O   UNL     1     -15.846 -43.002  28.064  1.00  0.00    -0.289 OA
ENDBRANCH  11  12
ENDBRANCH   1  11
TORSDOF 4
ENDMDL
MODEL 2
REMARK VINA RESULT:   -10.350      1.531      2.161
REMARK INTER + INTRA:         -13.169
REMARK INTER:                 -12.696
REMARK INTRA:                  -0.473
REMARK UNBOUND:                -0.399
REMARK SMILES C[N@H+]1CC[C@H](CC/C=C2\Cc3ccccc3C2=O)CC1
REMARK SMILES IDX 7 1 6 2 5 3 2 4 3 5 20 6 4 7 19 8 1 9 8 11 9 12 10 13 17 14
REMARK SMILES IDX 11 15 16 16 12 17 15 18 13 19 14 20 18 21
REMARK H PARENT 2 10
ROOT
ATOM      1  C   UNL     1     -13.542 -44.996  27.077  1.00  0.00     0.028 C 
ENDROOT
BRANCH   1   2
ATOM      2  C   UNL     1     -13.661 -45.144  28.598  1.00  0.00     0.008 C 
BRANCH   2   3
ATOM      3  C   UNL     1     -12.511 -45.945  29.240  1.00  0.00     0.000 C 
ATOM      4  N   UNL     1      -9.839 -45.994  30.443  1.00  0.00    -0.337 N 
ATOM      5  C   UNL     1     -11.059 -46.107  31.320  1.00  0.00     0.262 C 
ATOM      6  C   UNL     1     -10.062 -46.604  29.084  1.00  0.00     0.262 C 
ATOM      7  C   UNL     1     -12.228 -45.399  30.650  1.00  0.00     0.065 C 
ATOM      8  C   UNL     1     -11.228 -45.907  28.395  1.00  0.00     0.065 C 
ATOM      9  C   UNL     1      -8.618 -46.560  31.114  1.00  0.00     0.332 C 
ATOM     10  H   UNL     1      -9.653 -44.991  30.304  1.00  0.00     0.347 HD
ENDBRANCH   2   3
ENDBRANCH   1   2
BRANCH   1  11
ATOM     11  C   UNL     1     -13.917 -43.608  26.652  1.00  0.00    -0.019 C 
BRANCH  11  12
ATOM     12  C   UNL     1     -15.143 -43.200  26.292  1.00  0.00     0.001 C 
ATOM     13  C   UNL     1     -16.318 -42.771  27.136  1.00  0.00     0.075 C 
ATOM     14  C   UNL     1     -15.540 -43.109  24.851  1.00  0.00     0.189 C 
ATOM     15  C   UNL     1     -17.378 -42.445  26.128  1.00  0.00    -0.032 A 
ATOM     16  C   UNL     1     -16.928 -42.641  24.822  1.00  0.00     0.026 A 
ATOM     17  C   UNL     1     -18.670 -41.999  26.356  1.00  0.00     0.005 A 
ATOM     18  C   UNL     1     -17.723 -42.407  23.715  1.00  0.00     0.012 A 
ATOM     19  C   UNL     1     -19.493 -41.757  25.251  1.00  0.00     0.000 A 
ATOM     20  C   UNL     1     -19.024 -41.959  23.941  1.00  0.00     0.001 A 
ATOM     21  O   UNL     1     -14.846 -43.366  23.889  1.00  0.00    -0.289 OA
ENDBRANCH  11  12
ENDBRANCH   1  11
TORSDOF 4
ENDMDL
MODEL 3
REMARK VINA RESULT:   -10.286      1.224      1.490
REMARK INTER + INTRA:         -13.090
REMARK INTER:                 -12.605
REMARK INTRA:                  -0.485
REMARK UNBOUND:                -0.399
REMARK SMILES C[N@H+]1CC[C@H](CC/C=C2\Cc3ccccc3C2=O)CC1
REMARK SMILES IDX 7 1 6 2 5 3 2 4 3 5 20 6 4 7 19 8 1 9 8 11 9 12 10 13 17 14
REMARK SMILES IDX 11 15 16 16 12 17 15 18 13 19 14 20 18 21
REMARK H PARENT 2 10
ROOT
ATOM      1  C   UNL     1     -13.675 -45.000  27.159  1.00  0.00     0.028 C 
ENDROOT
BRANCH   1   2
ATOM      2  C   UNL     1     -13.671 -45.096  28.689  1.00  0.00     0.008 C 
BRANCH   2   3
ATOM      3  C   UNL     1     -12.494 -45.911  29.260  1.00  0.00     0.000 C 
ATOM      4  N   UNL     1      -9.802 -45.981  30.415  1.00  0.00    -0.337 N 
ATOM      5  C   UNL     1     -11.004 -46.176  31.302  1.00  0.00     0.262 C 
ATOM      6  C   UNL     1     -10.035 -46.509  29.024  1.00  0.00     0.262 C 
ATOM      7  C   UNL     1     -12.198 -45.451  30.698  1.00  0.00     0.065 C 
ATOM      8  C   UNL     1     -11.227 -45.793  28.399  1.00  0.00     0.065 C 
ATOM      9  C   UNL     1      -8.558 -46.564  31.029  1.00  0.00     0.332 C 
ATOM     10  H   UNL     1      -9.637 -44.968  30.337  1.00  0.00     0.347 HD
ENDBRANCH   2   3
ENDBRANCH   1   2
BRANCH   1  11
ATOM     11  C   UNL     1     -14.023 -43.609  26.720  1.00  0.00    -0.019 C 
BRANCH  11  12
ATOM     12  C   UNL     1     -15.203 -43.213  26.223  1.00  0.00     0.001 C 
ATOM     13  C   UNL     1     -15.672 -43.093  24.793  1.00  0.00     0.075 C 
ATOM     14  C   UNL     1     -16.326 -42.794  27.123  1.00  0.00     0.189 C 
ATOM     15  C   UNL     1     -17.079 -42.594  24.922  1.00  0.00    -0.032 A 
ATOM     16  C   UNL     1     -17.448 -42.424  26.258  1.00  0.00     0.026 A 
ATOM     17  C   UNL     1     -17.983 -42.306  23.912  1.00  0.00     0.005 A 
ATOM     18  C   UNL     1     -18.699 -41.972  26.636  1.00  0.00     0.012 A 
ATOM     19  C   UNL     1     -19.255 -41.847  24.271  1.00  0.00     0.000 A 
ATOM     20  C   UNL     1     -19.611 -41.681  25.621  1.00  0.00     0.001 A 
ATOM     21  O   UNL     1     -16.312 -42.772  28.336  1.00  0.00    -0.289 OA
ENDBRANCH  11  12
ENDBRANCH   1  11
TORSDOF 4
ENDMDL
MODEL 4
REMARK VINA RESULT:   -10.047      1.947      3.503
REMARK INTER + INTRA:         -12.795
REMARK INTER:                 -12.316
REMARK INTRA:                  -0.479
REMARK UNBOUND:                -0.399
REMARK SMILES C[N@H+]1CC[C@H](CC/C=C2\Cc3ccccc3C2=O)CC1
REMARK SMILES IDX 7 1 6 2 5 3 2 4 3 5 20 6 4 7 19 8 1 9 8 11 9 12 10 13 17 14
REMARK SMILES IDX 11 15 16 16 12 17 15 18 13 19 14 20 18 21
REMARK H PARENT 2 10
ROOT
ATOM      1  C   UNL     1     -14.235 -43.372  25.428  1.00  0.00     0.028 C 
ENDROOT
BRANCH   1   2
ATOM      2  C   UNL     1     -14.192 -44.784  26.022  1.00  0.00     0.008 C 
BRANCH   2   3
ATOM      3  C   UNL     1     -13.373 -44.888  27.324  1.00  0.00     0.000 C 
ATOM      4  N   UNL     1     -10.771 -45.109  28.653  1.00  0.00    -0.337 N 
ATOM      5  C   UNL     1     -11.496 -43.789  28.639  1.00  0.00     0.262 C 
ATOM      6  C   UNL     1     -11.722 -46.277  28.668  1.00  0.00     0.262 C 
ATOM      7  C   UNL     1     -12.381 -43.714  27.404  1.00  0.00     0.065 C 
ATOM      8  C   UNL     1     -12.618 -46.222  27.436  1.00  0.00     0.065 C 
ATOM      9  C   UNL     1      -9.778 -45.186  29.781  1.00  0.00     0.332 C 
ATOM     10  H   UNL     1     -10.223 -45.168  27.784  1.00  0.00     0.347 HD
ENDBRANCH   2   3
ENDBRANCH   1   2
BRANCH   1  11
ATOM     11  C   UNL     1     -15.466 -43.191  24.590  1.00  0.00    -0.019 C 
BRANCH  11  12
ATOM     12  C   UNL     1     -16.657 -42.757  25.026  1.00  0.00     0.001 C 
ATOM     13  C   UNL     1     -17.187 -42.599  26.430  1.00  0.00     0.075 C 
ATOM     14  C   UNL     1     -17.727 -42.328  24.069  1.00  0.00     0.189 C 
ATOM     15  C   UNL     1     -18.577 -42.077  26.228  1.00  0.00    -0.032 A 
ATOM     16  C   UNL     1     -18.881 -41.925  24.875  1.00  0.00     0.026 A 
ATOM     17  C   UNL     1     -19.521 -41.755  27.191  1.00  0.00     0.005 A 
ATOM     18  C   UNL     1     -20.105 -41.457  24.432  1.00  0.00     0.012 A 
ATOM     19  C   UNL     1     -20.766 -41.280  26.766  1.00  0.00     0.000 A 
ATOM     20  C   UNL     1     -21.057 -41.133  25.398  1.00  0.00     0.001 A 
ATOM     21  O   UNL     1     -17.652 -42.311  22.857  1.00  0.00    -0.289 OA
ENDBRANCH  11  12
ENDBRANCH   1  11
TORSDOF 4
ENDMDL
MODEL 5
REMARK VINA RESULT:    -9.891      1.412      2.625
REMARK INTER + INTRA:         -12.602
REMARK INTER:                 -12.030
REMARK INTRA:                  -0.572
REMARK UNBOUND:                -0.399
REMARK SMILES C[N@H+]1CC[C@H](CC/C=C2\Cc3ccccc3C2=O)CC1
REMARK SMILES IDX 7 1 6 2 5 3 2 4 3 5 20 6 4 7 19 8 1 9 8 11 9 12 10 13 17 14
REMARK SMILES IDX 11 15 16 16 12 17 15 18 13 19 14 20 18 21
REMARK H PARENT 2 10
ROOT
ATOM      1  C   UNL     1     -10.952 -46.280  28.420  1.00  0.00     0.028 C 
ENDROOT
BRANCH   1   2
ATOM      2  C   UNL     1     -10.478 -46.365  29.876  1.00  0.00     0.008 C 
BRANCH   2   3
ATOM      3  C   UNL     1     -10.401 -44.999  30.587  1.00  0.00     0.000 C 
ATOM      4  N   UNL     1     -10.152 -43.462  33.069  1.00  0.00    -0.337 N 
ATOM      5  C   UNL     1      -8.966 -43.599  32.150  1.00  0.00     0.262 C 
ATOM      6  C   UNL     1     -11.456 -43.461  32.314  1.00  0.00     0.262 C 
ATOM      7  C   UNL     1      -9.081 -44.902  31.372  1.00  0.00     0.065 C 
ATOM      8  C   UNL     1     -11.591 -44.760  31.529  1.00  0.00     0.065 C 
ATOM      9  C   UNL     1     -10.027 -42.256  33.961  1.00  0.00     0.332 C 
ATOM     10  H   UNL     1     -10.156 -44.281  33.691  1.00  0.00     0.347 HD
ENDBRANCH   2   3
ENDBRANCH   1   2
BRANCH   1  11
ATOM     11  C   UNL     1     -12.449 -46.329  28.350  1.00  0.00    -0.019 C 
BRANCH  11  12
ATOM     12  C   UNL     1     -13.225 -45.573  27.560  1.00  0.00     0.001 C 
ATOM     13  C   UNL     1     -13.376 -45.562  26.059  1.00  0.00     0.075 C 
ATOM     14  C   UNL     1     -14.136 -44.531  28.133  1.00  0.00     0.189 C 
ATOM     15  C   UNL     1     -14.391 -44.486  25.812  1.00  0.00    -0.032 A 
ATOM     16  C   UNL     1     -14.821 -43.899  27.003  1.00  0.00     0.026 A 
ATOM     17  C   UNL     1     -14.903 -44.051  24.601  1.00  0.00     0.005 A 
ATOM     18  C   UNL     1     -15.757 -42.881  27.038  1.00  0.00     0.012 A 
ATOM     19  C   UNL     1     -15.850 -43.022  24.612  1.00  0.00     0.000 A 
ATOM     20  C   UNL     1     -16.274 -42.441  25.820  1.00  0.00     0.001 A 
ATOM     21  O   UNL     1     -14.286 -44.264  29.308  1.00  0.00    -0.289 OA
ENDBRANCH  11  12
ENDBRANCH   1  11
TORSDOF 4
ENDMDL
MODEL 6
REMARK VINA RESULT:    -9.856      2.857      8.225
REMARK INTER + INTRA:         -12.559
REMARK INTER:                 -12.172
REMARK INTRA:                  -0.387
REMARK UNBOUND:                -0.399
REMARK SMILES C[N@H+]1CC[C@H](CC/C=C2\Cc3ccccc3C2=O)CC1
REMARK SMILES IDX 7 1 6 2 5 3 2 4 3 5 20 6 4 7 19 8 1 9 8 11 9 12 10 13 17 14
REMARK SMILES IDX 11 15 16 16 12 17 15 18 13 19 14 20 18 21
REMARK H PARENT 2 10
ROOT
ATOM      1  C   UNL     1     -14.326 -43.235  26.474  1.00  0.00     0.028 C 
ENDROOT
BRANCH   1   2
ATOM      2  C   UNL     1     -14.681 -43.418  24.994  1.00  0.00     0.008 C 
BRANCH   2   3
ATOM      3  C   UNL     1     -15.963 -42.678  24.563  1.00  0.00     0.000 C 
ATOM      4  N   UNL     1     -18.824 -42.754  23.933  1.00  0.00    -0.337 N 
ATOM      5  C   UNL     1     -18.361 -42.196  25.254  1.00  0.00     0.262 C 
ATOM      6  C   UNL     1     -17.820 -42.514  22.836  1.00  0.00     0.262 C 
ATOM      7  C   UNL     1     -17.045 -42.853  25.643  1.00  0.00     0.065 C 
ATOM      8  C   UNL     1     -16.493 -43.166  23.206  1.00  0.00     0.065 C 
ATOM      9  C   UNL     1     -20.188 -42.240  23.560  1.00  0.00     0.332 C 
ATOM     10  H   UNL     1     -18.920 -43.772  24.046  1.00  0.00     0.347 HD
ENDBRANCH   2   3
ENDBRANCH   1   2
BRANCH   1  11
ATOM     11  C   UNL     1     -14.272 -44.561  27.170  1.00  0.00    -0.019 C 
BRANCH  11  12
ATOM     12  C   UNL     1     -13.250 -45.024  27.905  1.00  0.00     0.001 C 
ATOM     13  C   UNL     1     -11.970 -45.701  27.482  1.00  0.00     0.075 C 
ATOM     14  C   UNL     1     -13.253 -44.913  29.399  1.00  0.00     0.189 C 
ATOM     15  C   UNL     1     -11.265 -45.967  28.778  1.00  0.00    -0.032 A 
ATOM     16  C   UNL     1     -12.005 -45.515  29.872  1.00  0.00     0.026 A 
ATOM     17  C   UNL     1     -10.037 -46.577  28.977  1.00  0.00     0.005 A 
ATOM     18  C   UNL     1     -11.566 -45.646  31.176  1.00  0.00     0.012 A 
ATOM     19  C   UNL     1      -9.572 -46.721  30.289  1.00  0.00     0.000 A 
ATOM     20  C   UNL     1     -10.329 -46.260  31.380  1.00  0.00     0.001 A 
ATOM     21  O   UNL     1     -14.120 -44.415  30.088  1.00  0.00    -0.289 OA
ENDBRANCH  11  12
ENDBRANCH   1  11
TORSDOF 4
ENDMDL
MODEL 7
REMARK VINA RESULT:    -9.757      2.604      8.132
REMARK INTER + INTRA:         -12.437
REMARK INTER:                 -11.915
REMARK INTRA:                  -0.522
REMARK UNBOUND:                -0.399
REMARK SMILES C[N@H+]1CC[C@H](CC/C=C2\Cc3ccccc3C2=O)CC1
REMARK SMILES IDX 7 1 6 2 5 3 2 4 3 5 20 6 4 7 19 8 1 9 8 11 9 12 10 13 17 14
REMARK SMILES IDX 11 15 16 16 12 17 15 18 13 19 14 20 18 21
REMARK H PARENT 2 10
ROOT
ATOM      1  C   UNL     1     -13.650 -45.004  27.273  1.00  0.00     0.028 C 
ENDROOT
BRANCH   1   2
ATOM      2  C   UNL     1     -13.276 -43.567  26.893  1.00  0.00     0.008 C 
BRANCH   2   3
ATOM      3  C   UNL     1     -14.395 -42.804  26.158  1.00  0.00     0.000 C 
ATOM      4  N   UNL     1     -16.927 -42.849  24.683  1.00  0.00    -0.337 N 
ATOM      5  C   UNL     1     -16.906 -42.411  26.125  1.00  0.00     0.262 C 
ATOM      6  C   UNL     1     -15.648 -42.499  23.968  1.00  0.00     0.262 C 
ATOM      7  C   UNL     1     -15.745 -43.087  26.839  1.00  0.00     0.065 C 
ATOM      8  C   UNL     1     -14.472 -43.169  24.667  1.00  0.00     0.065 C 
ATOM      9  C   UNL     1     -18.133 -42.316  23.958  1.00  0.00     0.332 C 
ATOM     10  H   UNL     1     -17.015 -43.874  24.674  1.00  0.00     0.347 HD
ENDBRANCH   2   3
ENDBRANCH   1   2
BRANCH   1  11
ATOM     11  C   UNL     1     -13.439 -45.234  28.739  1.00  0.00    -0.019 C 
BRANCH  11  12
ATOM     12  C   UNL     1     -12.254 -45.373  29.351  1.00  0.00     0.001 C 
ATOM     13  C   UNL     1     -11.153 -46.381  29.132  1.00  0.00     0.075 C 
ATOM     14  C   UNL     1     -11.831 -44.444  30.448  1.00  0.00     0.189 C 
ATOM     15  C   UNL     1     -10.110 -45.991  30.137  1.00  0.00    -0.032 A 
ATOM     16  C   UNL     1     -10.505 -44.882  30.887  1.00  0.00     0.026 A 
ATOM     17  C   UNL     1      -8.882 -46.586  30.372  1.00  0.00     0.005 A 
ATOM     18  C   UNL     1      -9.713 -44.332  31.879  1.00  0.00     0.012 A 
ATOM     19  C   UNL     1      -8.064 -46.046  31.371  1.00  0.00     0.000 A 
ATOM     20  C   UNL     1      -8.476 -44.929  32.119  1.00  0.00     0.001 A 
ATOM     21  O   UNL     1     -12.462 -43.503  30.885  1.00  0.00    -0.289 OA
ENDBRANCH  11  12
ENDBRANCH   1  11
TORSDOF 4
ENDMDL
MODEL 8
REMARK VINA RESULT:    -9.386      1.948      3.670
REMARK INTER + INTRA:         -11.979
REMARK INTER:                 -11.604
REMARK INTRA:                  -0.375
REMARK UNBOUND:                -0.399
REMARK SMILES C[N@H+]1CC[C@H](CC/C=C2\Cc3ccccc3C2=O)CC1
REMARK SMILES IDX 7 1 6 2 5 3 2 4 3 5 20 6 4 7 19 8 1 9 8 11 9 12 10 13 17 14
REMARK SMILES IDX 11 15 16 16 12 17 15 18 13 19 14 20 18 21
REMARK H PARENT 2 10
ROOT
ATOM      1  C   UNL     1     -15.030 -42.348  25.947  1.00  0.00     0.028 C 
ENDROOT
BRANCH   1   2
ATOM      2  C   UNL     1     -13.797 -43.248  25.808  1.00  0.00     0.008 C 
BRANCH   2   3
ATOM      3  C   UNL     1     -13.338 -43.886  27.135  1.00  0.00     0.000 C 
ATOM      4  N   UNL     1     -11.392 -45.503  28.612  1.00  0.00    -0.337 N 
ATOM      5  C   UNL     1     -11.395 -44.004  28.768  1.00  0.00     0.262 C 
ATOM      6  C   UNL     1     -12.772 -46.046  28.348  1.00  0.00     0.262 C 
ATOM      7  C   UNL     1     -11.936 -43.367  27.496  1.00  0.00     0.065 C 
ATOM      8  C   UNL     1     -13.332 -45.421  27.076  1.00  0.00     0.065 C 
ATOM      9  C   UNL     1     -10.743 -46.183  29.787  1.00  0.00     0.332 C 
ATOM     10  H   UNL     1     -10.810 -45.726  27.793  1.00  0.00     0.347 HD
ENDBRANCH   2   3
ENDBRANCH   1   2
BRANCH   1  11
ATOM     11  C   UNL     1     -16.255 -43.052  25.447  1.00  0.00    -0.019 C 
BRANCH  11  12
ATOM     12  C   UNL     1     -17.486 -42.525  25.360  1.00  0.00     0.001 C 
ATOM     13  C   UNL     1     -18.294 -42.123  24.151  1.00  0.00     0.075 C 
ATOM     14  C   UNL     1     -18.298 -42.240  26.586  1.00  0.00     0.189 C 
ATOM     15  C   UNL     1     -19.573 -41.604  24.736  1.00  0.00    -0.032 A 
ATOM     16  C   UNL     1     -19.569 -41.672  26.131  1.00  0.00     0.026 A 
ATOM     17  C   UNL     1     -20.678 -41.098  24.071  1.00  0.00     0.005 A 
ATOM     18  C   UNL     1     -20.637 -41.253  26.902  1.00  0.00     0.012 A 
ATOM     19  C   UNL     1     -21.770 -40.666  24.831  1.00  0.00     0.000 A 
ATOM     20  C   UNL     1     -21.751 -40.743  26.235  1.00  0.00     0.001 A 
ATOM     21  O   UNL     1     -17.971 -42.446  27.737  1.00  0.00    -0.289 OA
ENDBRANCH  11  12
ENDBRANCH   1  11
TORSDOF 4
ENDMDL
MODEL 9
REMARK VINA RESULT:    -9.179      1.526      2.456
REMARK INTER + INTRA:         -11.724
REMARK INTER:                 -11.887
REMARK INTRA:                   0.163
REMARK UNBOUND:                -0.399
REMARK SMILES C[N@H+]1CC[C@H](CC/C=C2\Cc3ccccc3C2=O)CC1
REMARK SMILES IDX 7 1 6 2 5 3 2 4 3 5 20 6 4 7 19 8 1 9 8 11 9 12 10 13 17 14
REMARK SMILES IDX 11 15 16 16 12 17 15 18 13 19 14 20 18 21
REMARK H PARENT 2 10
ROOT
ATOM      1  C   UNL     1     -13.933 -45.105  30.820  1.00  0.00     0.028 C 
ENDROOT
BRANCH   1   2
ATOM      2  C   UNL     1     -12.847 -44.834  31.868  1.00  0.00     0.008 C 
BRANCH   2   3
ATOM      3  C   UNL     1     -11.415 -44.849  31.299  1.00  0.00     0.000 C 
ATOM      4  N   UNL     1      -8.562 -45.406  31.671  1.00  0.00    -0.337 N 
ATOM      5  C   UNL     1      -9.413 -46.356  30.869  1.00  0.00     0.262 C 
ATOM      6  C   UNL     1      -9.039 -43.982  31.553  1.00  0.00     0.262 C 
ATOM      7  C   UNL     1     -10.851 -46.280  31.361  1.00  0.00     0.065 C 
ATOM      8  C   UNL     1     -10.478 -43.884  32.043  1.00  0.00     0.065 C 
ATOM      9  C   UNL     1      -7.104 -45.535  31.320  1.00  0.00     0.332 C 
ATOM     10  H   UNL     1      -8.645 -45.679  32.660  1.00  0.00     0.347 HD
ENDBRANCH   2   3
ENDBRANCH   1   2
BRANCH   1  11
ATOM     11  C   UNL     1     -13.324 -45.268  29.460  1.00  0.00    -0.019 C 
BRANCH  11  12
ATOM     12  C   UNL     1     -13.837 -44.811  28.308  1.00  0.00     0.001 C 
ATOM     13  C   UNL     1     -13.399 -45.043  26.883  1.00  0.00     0.075 C 
ATOM     14  C   UNL     1     -15.038 -43.916  28.292  1.00  0.00     0.189 C 
ATOM     15  C   UNL     1     -14.384 -44.252  26.076  1.00  0.00    -0.032 A 
ATOM     16  C   UNL     1     -15.319 -43.608  26.888  1.00  0.00     0.026 A 
ATOM     17  C   UNL     1     -14.447 -44.110  24.700  1.00  0.00     0.005 A 
ATOM     18  C   UNL     1     -16.331 -42.816  26.378  1.00  0.00     0.012 A 
ATOM     19  C   UNL     1     -15.463 -43.313  24.161  1.00  0.00     0.000 A 
ATOM     20  C   UNL     1     -16.398 -42.671  24.993  1.00  0.00     0.001 A 
ATOM     21  O   UNL     1     -15.664 -43.524  29.256  1.00  0.00    -0.289 OA
ENDBRANCH  11  12
ENDBRANCH   1  11
TORSDOF 4
ENDMDL
