MODEL 1
REMARK VINA RESULT:   -12.026      0.000      0.000
REMARK INTER + INTRA:         -15.917
REMARK INTER:                 -15.541
REMARK INTRA:                  -0.375
REMARK UNBOUND:                -0.375
REMARK SMILES COc1ccccc1C(=O)N1Cc2cc(NC(=O)c3ccccc3)ccc2CC1=O
REMARK SMILES IDX 9 1 10 2 8 3 3 4 4 5 5 6 7 7 6 8 2 9 1 10 11 11 12 12 29 13
REMARK SMILES IDX 13 14 28 15 14 16 27 17 15 18 26 19 25 20 30 21 16 22 17 23
REMARK SMILES IDX 18 25 19 26 20 27 24 28 21 29 23 30 22 31
REMARK H PARENT 16 24
ROOT
ATOM      1  C   UNL     1      -9.490 -43.242  30.428  1.00  0.00     0.264 C 
ATOM      2  O   UNL     1      -8.705 -42.539  29.792  1.00  0.00    -0.268 OA
ENDROOT
BRANCH   1   3
ATOM      3  C   UNL     1      -9.639 -42.994  31.887  1.00  0.00     0.082 A 
ATOM      4  C   UNL     1      -8.540 -43.013  32.764  1.00  0.00     0.131 A 
ATOM      5  C   UNL     1      -8.761 -42.749  34.122  1.00  0.00     0.047 A 
ATOM      6  C   UNL     1     -10.048 -42.465  34.592  1.00  0.00     0.004 A 
ATOM      7  C   UNL     1     -10.923 -42.686  32.359  1.00  0.00     0.018 A 
ATOM      8  C   UNL     1     -11.127 -42.430  33.713  1.00  0.00     0.001 A 
BRANCH   4   9
ATOM      9  O   UNL     1      -7.303 -43.246  32.219  1.00  0.00    -0.496 OA
ATOM     10  C   UNL     1      -6.668 -44.475  32.544  1.00  0.00     0.278 C 
ENDBRANCH   4   9
ENDBRANCH   1   3
BRANCH   1  11
ATOM     11  N   UNL     1     -10.257 -44.246  29.831  1.00  0.00    -0.274 N 
ATOM     12  C   UNL     1     -11.680 -43.976  29.731  1.00  0.00     0.164 C 
ATOM     13  C   UNL     1      -9.822 -45.568  29.762  1.00  0.00     0.234 C 
ATOM     14  C   UNL     1     -12.295 -44.674  28.551  1.00  0.00    -0.022 A 
ATOM     15  C   UNL     1     -10.735 -46.561  29.054  1.00  0.00     0.136 C 
ATOM     16  C   UNL     1     -13.344 -44.104  27.816  1.00  0.00     0.032 A 
ATOM     17  C   UNL     1     -11.824 -45.946  28.219  1.00  0.00    -0.033 A 
ATOM     18  C   UNL     1     -13.924 -44.791  26.742  1.00  0.00     0.041 A 
ATOM     19  C   UNL     1     -12.407 -46.641  27.157  1.00  0.00     0.007 A 
ATOM     20  C   UNL     1     -13.445 -46.061  26.419  1.00  0.00     0.026 A 
ATOM     21  O   UNL     1      -8.770 -45.974  30.260  1.00  0.00    -0.274 OA
BRANCH  18  22
ATOM     22  N   UNL     1     -14.963 -44.140  26.045  1.00  0.00    -0.322 N 
ATOM     23  C   UNL     1     -14.850 -43.346  24.918  1.00  0.00     0.255 C 
ATOM     24  H   UNL     1     -15.900 -44.331  26.376  1.00  0.00     0.170 HD
ATOM     25  O   UNL     1     -13.831 -43.122  24.275  1.00  0.00    -0.269 OA
BRANCH  23  26
ATOM     26  C   UNL     1     -16.131 -42.753  24.441  1.00  0.00     0.040 A 
ATOM     27  C   UNL     1     -17.236 -42.770  25.301  1.00  0.00     0.014 A 
ATOM     28  C   UNL     1     -16.259 -42.212  23.155  1.00  0.00     0.014 A 
ATOM     29  C   UNL     1     -18.452 -42.222  24.890  1.00  0.00     0.001 A 
ATOM     30  C   UNL     1     -17.478 -41.666  22.747  1.00  0.00     0.001 A 
ATOM     31  C   UNL     1     -18.571 -41.666  23.616  1.00  0.00     0.000 A 
ENDBRANCH  23  26
ENDBRANCH  18  22
ENDBRANCH   1  11
TORSDOF 5
ENDMDL
MODEL 2
REMARK VINA RESULT:   -11.619      3.524     10.360
REMARK INTER + INTRA:         -15.390
REMARK INTER:                 -14.554
REMARK INTRA:                  -0.836
REMARK UNBOUND:                -0.375
REMARK SMILES COc1ccccc1C(=O)N1Cc2cc(NC(=O)c3ccccc3)ccc2CC1=O
REMARK SMILES IDX 9 1 10 2 8 3 3 4 4 5 5 6 7 7 6 8 2 9 1 10 11 11 12 12 29 13
REMARK SMILES IDX 13 14 28 15 14 16 27 17 15 18 26 19 25 20 30 21 16 22 17 23
REMARK SMILES IDX 18 25 19 26 20 27 24 28 21 29 23 30 22 31
REMARK H PARENT 16 24
ROOT
ATOM      1  C   UNL     1     -19.987 -42.105  25.703  1.00  0.00     0.264 C 
ATOM      2  O   UNL     1     -20.549 -41.008  25.699  1.00  0.00    -0.268 OA
ENDROOT
BRANCH   1   3
ATOM      3  C   UNL     1     -20.693 -43.258  26.323  1.00  0.00     0.082 A 
ATOM      4  C   UNL     1     -21.576 -44.074  25.595  1.00  0.00     0.131 A 
ATOM      5  C   UNL     1     -22.186 -45.152  26.248  1.00  0.00     0.047 A 
ATOM      6  C   UNL     1     -21.914 -45.415  27.595  1.00  0.00     0.004 A 
ATOM      7  C   UNL     1     -20.405 -43.539  27.667  1.00  0.00     0.018 A 
ATOM      8  C   UNL     1     -21.023 -44.614  28.303  1.00  0.00     0.001 A 
BRANCH   4   9
ATOM      9  O   UNL     1     -21.750 -43.784  24.266  1.00  0.00    -0.496 OA
ATOM     10  C   UNL     1     -23.020 -43.285  23.867  1.00  0.00     0.278 C 
ENDBRANCH   4   9
ENDBRANCH   1   3
BRANCH   1  11
ATOM     11  N   UNL     1     -18.729 -42.309  25.131  1.00  0.00    -0.274 N 
ATOM     12  C   UNL     1     -17.593 -42.031  25.993  1.00  0.00     0.164 C 
ATOM     13  C   UNL     1     -18.535 -42.314  23.752  1.00  0.00     0.234 C 
ATOM     14  C   UNL     1     -16.404 -42.874  25.630  1.00  0.00    -0.022 A 
ATOM     15  C   UNL     1     -17.120 -42.584  23.253  1.00  0.00     0.136 C 
ATOM     16  C   UNL     1     -15.508 -43.348  26.599  1.00  0.00     0.032 A 
ATOM     17  C   UNL     1     -16.176 -43.147  24.279  1.00  0.00    -0.033 A 
ATOM     18  C   UNL     1     -14.387 -44.102  26.231  1.00  0.00     0.041 A 
ATOM     19  C   UNL     1     -15.052 -43.888  23.906  1.00  0.00     0.007 A 
ATOM     20  C   UNL     1     -14.169 -44.369  24.879  1.00  0.00     0.026 A 
ATOM     21  O   UNL     1     -19.425 -42.089  22.929  1.00  0.00    -0.274 OA
BRANCH  18  22
ATOM     22  N   UNL     1     -13.545 -44.554  27.269  1.00  0.00    -0.322 N 
ATOM     23  C   UNL     1     -12.957 -45.800  27.392  1.00  0.00     0.255 C 
ATOM     24  H   UNL     1     -13.296 -43.863  27.964  1.00  0.00     0.170 HD
ATOM     25  O   UNL     1     -13.003 -46.718  26.582  1.00  0.00    -0.269 OA
BRANCH  23  26
ATOM     26  C   UNL     1     -12.156 -45.992  28.634  1.00  0.00     0.040 A 
ATOM     27  C   UNL     1     -10.784 -46.246  28.512  1.00  0.00     0.014 A 
ATOM     28  C   UNL     1     -12.747 -45.954  29.904  1.00  0.00     0.014 A 
ATOM     29  C   UNL     1     -10.002 -46.429  29.654  1.00  0.00     0.001 A 
ATOM     30  C   UNL     1     -11.960 -46.140  31.043  1.00  0.00     0.001 A 
ATOM     31  C   UNL     1     -10.590 -46.372  30.918  1.00  0.00     0.000 A 
ENDBRANCH  23  26
ENDBRANCH  18  22
ENDBRANCH   1  11
TORSDOF 5
ENDMDL
MODEL 3
REMARK VINA RESULT:   -11.533      2.415      3.722
REMARK INTER + INTRA:         -15.279
REMARK INTER:                 -14.550
REMARK INTRA:                  -0.729
REMARK UNBOUND:                -0.375
REMARK SMILES COc1ccccc1C(=O)N1Cc2cc(NC(=O)c3ccccc3)ccc2CC1=O
REMARK SMILES IDX 9 1 10 2 8 3 3 4 4 5 5 6 7 7 6 8 2 9 1 10 11 11 12 12 29 13
REMARK SMILES IDX 13 14 28 15 14 16 27 17 15 18 26 19 25 20 30 21 16 22 17 23
REMARK SMILES IDX 18 25 19 26 20 27 24 28 21 29 23 30 22 31
REMARK H PARENT 16 24
ROOT
ATOM      1  C   UNL     1     -12.324 -45.202  30.993  1.00  0.00     0.264 C 
ATOM      2  O   UNL     1     -12.616 -46.309  31.450  1.00  0.00    -0.268 OA
ENDROOT
BRANCH   1   3
ATOM      3  C   UNL     1     -11.743 -44.189  31.914  1.00  0.00     0.082 A 
ATOM      4  C   UNL     1     -12.528 -43.189  32.517  1.00  0.00     0.131 A 
ATOM      5  C   UNL     1     -11.908 -42.285  33.387  1.00  0.00     0.047 A 
ATOM      6  C   UNL     1     -10.538 -42.380  33.657  1.00  0.00     0.004 A 
ATOM      7  C   UNL     1     -10.375 -44.295  32.206  1.00  0.00     0.018 A 
ATOM      8  C   UNL     1      -9.773 -43.385  33.071  1.00  0.00     0.001 A 
BRANCH   4   9
ATOM      9  O   UNL     1     -13.871 -43.194  32.244  1.00  0.00    -0.496 OA
ATOM     10  C   UNL     1     -14.668 -42.196  32.870  1.00  0.00     0.278 C 
ENDBRANCH   4   9
ENDBRANCH   1   3
BRANCH   1  11
ATOM     11  N   UNL     1     -12.500 -44.872  29.647  1.00  0.00    -0.274 N 
ATOM     12  C   UNL     1     -13.823 -45.123  29.104  1.00  0.00     0.164 C 
ATOM     13  C   UNL     1     -11.426 -44.764  28.766  1.00  0.00     0.234 C 
ATOM     14  C   UNL     1     -14.151 -44.175  27.985  1.00  0.00    -0.022 A 
ATOM     15  C   UNL     1     -11.746 -44.363  27.331  1.00  0.00     0.136 C 
ATOM     16  C   UNL     1     -15.453 -43.702  27.773  1.00  0.00     0.032 A 
ATOM     17  C   UNL     1     -13.124 -43.801  27.116  1.00  0.00    -0.033 A 
ATOM     18  C   UNL     1     -15.739 -42.848  26.700  1.00  0.00     0.041 A 
ATOM     19  C   UNL     1     -13.406 -42.959  26.038  1.00  0.00     0.007 A 
ATOM     20  C   UNL     1     -14.706 -42.479  25.838  1.00  0.00     0.026 A 
ATOM     21  O   UNL     1     -10.255 -45.000  29.074  1.00  0.00    -0.274 OA
BRANCH  18  22
ATOM     22  N   UNL     1     -17.072 -42.404  26.567  1.00  0.00    -0.322 N 
ATOM     23  C   UNL     1     -17.863 -42.449  25.434  1.00  0.00     0.255 C 
ATOM     24  H   UNL     1     -17.512 -42.078  27.417  1.00  0.00     0.170 HD
ATOM     25  O   UNL     1     -17.572 -42.949  24.353  1.00  0.00    -0.269 OA
BRANCH  23  26
ATOM     26  C   UNL     1     -19.220 -41.854  25.595  1.00  0.00     0.040 A 
ATOM     27  C   UNL     1     -19.935 -41.499  24.445  1.00  0.00     0.014 A 
ATOM     28  C   UNL     1     -19.775 -41.619  26.860  1.00  0.00     0.014 A 
ATOM     29  C   UNL     1     -21.210 -40.942  24.557  1.00  0.00     0.001 A 
ATOM     30  C   UNL     1     -21.050 -41.060  26.967  1.00  0.00     0.001 A 
ATOM     31  C   UNL     1     -21.768 -40.726  25.817  1.00  0.00     0.000 A 
ENDBRANCH  23  26
ENDBRANCH  18  22
ENDBRANCH   1  11
TORSDOF 5
ENDMDL
MODEL 4
REMARK VINA RESULT:   -11.011      4.069     11.832
REMARK INTER + INTRA:         -14.605
REMARK INTER:                 -15.261
REMARK INTRA:                   0.656
REMARK UNBOUND:                -0.375
REMARK SMILES COc1ccccc1C(=O)N1Cc2cc(NC(=O)c3ccccc3)ccc2CC1=O
REMARK SMILES IDX 9 1 10 2 8 3 3 4 4 5 5 6 7 7 6 8 2 9 1 10 11 11 12 12 29 13
REMARK SMILES IDX 13 14 28 15 14 16 27 17 15 18 26 19 25 20 30 21 16 22 17 23
REMARK SMILES IDX 18 25 19 26 20 27 24 28 21 29 23 30 22 31
REMARK H PARENT 16 24
ROOT
ATOM      1  C   UNL     1     -18.848 -40.556  21.762  1.00  0.00     0.264 C 
ATOM      2  O   UNL     1     -17.736 -40.277  21.310  1.00  0.00    -0.268 OA
ENDROOT
BRANCH   1   3
ATOM      3  C   UNL     1     -20.036 -40.339  20.894  1.00  0.00     0.082 A 
ATOM      4  C   UNL     1     -20.841 -41.403  20.450  1.00  0.00     0.131 A 
ATOM      5  C   UNL     1     -21.955 -41.113  19.652  1.00  0.00     0.047 A 
ATOM      6  C   UNL     1     -22.263 -39.791  19.311  1.00  0.00     0.004 A 
ATOM      7  C   UNL     1     -20.363 -39.014  20.570  1.00  0.00     0.018 A 
ATOM      8  C   UNL     1     -21.472 -38.743  19.772  1.00  0.00     0.001 A 
BRANCH   4   9
ATOM      9  O   UNL     1     -20.505 -42.665  20.869  1.00  0.00    -0.496 OA
ATOM     10  C   UNL     1     -21.556 -43.496  21.344  1.00  0.00     0.278 C 
ENDBRANCH   4   9
ENDBRANCH   1   3
BRANCH   1  11
ATOM     11  N   UNL     1     -19.031 -41.083  23.042  1.00  0.00    -0.274 N 
ATOM     12  C   UNL     1     -18.211 -42.235  23.373  1.00  0.00     0.164 C 
ATOM     13  C   UNL     1     -20.196 -40.861  23.774  1.00  0.00     0.234 C 
ATOM     14  C   UNL     1     -17.931 -42.311  24.847  1.00  0.00    -0.022 A 
ATOM     15  C   UNL     1     -20.259 -41.461  25.173  1.00  0.00     0.136 C 
ATOM     16  C   UNL     1     -16.714 -42.795  25.346  1.00  0.00     0.032 A 
ATOM     17  C   UNL     1     -18.942 -41.926  25.730  1.00  0.00    -0.033 A 
ATOM     18  C   UNL     1     -16.492 -42.889  26.725  1.00  0.00     0.041 A 
ATOM     19  C   UNL     1     -18.730 -42.030  27.107  1.00  0.00     0.007 A 
ATOM     20  C   UNL     1     -17.507 -42.501  27.599  1.00  0.00     0.026 A 
ATOM     21  O   UNL     1     -21.171 -40.239  23.346  1.00  0.00    -0.274 OA
BRANCH  18  22
ATOM     22  N   UNL     1     -15.233 -43.371  27.144  1.00  0.00    -0.322 N 
ATOM     23  C   UNL     1     -14.392 -44.230  26.460  1.00  0.00     0.255 C 
ATOM     24  H   UNL     1     -14.885 -42.990  28.014  1.00  0.00     0.170 HD
ATOM     25  O   UNL     1     -14.556 -44.674  25.330  1.00  0.00    -0.269 OA
BRANCH  23  26
ATOM     26  C   UNL     1     -13.146 -44.596  27.190  1.00  0.00     0.040 A 
ATOM     27  C   UNL     1     -12.871 -45.953  27.403  1.00  0.00     0.014 A 
ATOM     28  C   UNL     1     -12.270 -43.622  27.687  1.00  0.00     0.014 A 
ATOM     29  C   UNL     1     -11.712 -46.335  28.081  1.00  0.00     0.001 A 
ATOM     30  C   UNL     1     -11.112 -44.009  28.366  1.00  0.00     0.001 A 
ATOM     31  C   UNL     1     -10.832 -45.363  28.558  1.00  0.00     0.000 A 
ENDBRANCH  23  26
ENDBRANCH  18  22
ENDBRANCH   1  11
TORSDOF 5
ENDMDL
MODEL 5
REMARK VINA RESULT:   -10.667      3.226      5.815
REMARK INTER + INTRA:         -14.160
REMARK INTER:                 -14.041
REMARK INTRA:                  -0.119
REMARK UNBOUND:                -0.375
REMARK SMILES COc1ccccc1C(=O)N1Cc2cc(NC(=O)c3ccccc3)ccc2CC1=O
REMARK SMILES IDX 9 1 10 2 8 3 3 4 4 5 5 6 7 7 6 8 2 9 1 10 11 11 12 12 29 13
REMARK SMILES IDX 13 14 28 15 14 16 27 17 15 18 26 19 25 20 30 21 16 22 17 23
REMARK SMILES IDX 18 25 19 26 20 27 24 28 21 29 23 30 22 31
REMARK H PARENT 16 24
ROOT
ATOM      1  C   UNL     1     -13.786 -44.509  27.213  1.00  0.00     0.264 C 
ATOM      2  O   UNL     1     -13.785 -45.543  26.543  1.00  0.00    -0.268 OA
ENDROOT
BRANCH   1   3
ATOM      3  C   UNL     1     -12.495 -44.028  27.772  1.00  0.00     0.082 A 
ATOM      4  C   UNL     1     -11.796 -44.742  28.762  1.00  0.00     0.131 A 
ATOM      5  C   UNL     1     -10.576 -44.231  29.222  1.00  0.00     0.047 A 
ATOM      6  C   UNL     1     -10.061 -43.039  28.700  1.00  0.00     0.004 A 
ATOM      7  C   UNL     1     -11.963 -42.846  27.235  1.00  0.00     0.018 A 
ATOM      8  C   UNL     1     -10.750 -42.349  27.706  1.00  0.00     0.001 A 
BRANCH   4   9
ATOM      9  O   UNL     1     -12.340 -45.928  29.184  1.00  0.00    -0.496 OA
ATOM     10  C   UNL     1     -12.354 -46.178  30.583  1.00  0.00     0.278 C 
ENDBRANCH   4   9
ENDBRANCH   1   3
BRANCH   1  11
ATOM     11  N   UNL     1     -14.945 -43.765  27.449  1.00  0.00    -0.274 N 
ATOM     12  C   UNL     1     -15.294 -42.799  26.423  1.00  0.00     0.164 C 
ATOM     13  C   UNL     1     -15.468 -43.597  28.730  1.00  0.00     0.234 C 
ATOM     14  C   UNL     1     -16.777 -42.567  26.361  1.00  0.00    -0.022 A 
ATOM     15  C   UNL     1     -16.757 -42.794  28.850  1.00  0.00     0.136 C 
ATOM     16  C   UNL     1     -17.437 -42.310  25.151  1.00  0.00     0.032 A 
ATOM     17  C   UNL     1     -17.495 -42.569  27.559  1.00  0.00    -0.033 A 
ATOM     18  C   UNL     1     -18.816 -42.062  25.126  1.00  0.00     0.041 A 
ATOM     19  C   UNL     1     -18.867 -42.309  27.541  1.00  0.00     0.007 A 
ATOM     20  C   UNL     1     -19.523 -42.066  26.328  1.00  0.00     0.026 A 
ATOM     21  O   UNL     1     -14.938 -44.033  29.754  1.00  0.00    -0.274 OA
BRANCH  18  22
ATOM     22  N   UNL     1     -19.405 -41.829  23.866  1.00  0.00    -0.322 N 
ATOM     23  C   UNL     1     -18.800 -41.301  22.740  1.00  0.00     0.255 C 
ATOM     24  H   UNL     1     -20.361 -42.145  23.763  1.00  0.00     0.170 HD
ATOM     25  O   UNL     1     -17.618 -41.006  22.610  1.00  0.00    -0.269 OA
BRANCH  23  26
ATOM     26  C   UNL     1     -19.704 -41.128  21.568  1.00  0.00     0.040 A 
ATOM     27  C   UNL     1     -19.587 -39.963  20.799  1.00  0.00     0.014 A 
ATOM     28  C   UNL     1     -20.676 -42.083  21.240  1.00  0.00     0.014 A 
ATOM     29  C   UNL     1     -20.415 -39.768  19.693  1.00  0.00     0.001 A 
ATOM     30  C   UNL     1     -21.504 -41.882  20.133  1.00  0.00     0.001 A 
ATOM     31  C   UNL     1     -21.369 -40.729  19.358  1.00  0.00     0.000 A 
ENDBRANCH  23  26
ENDBRANCH  18  22
ENDBRANCH   1  11
TORSDOF 5
ENDMDL
MODEL 6
REMARK VINA RESULT:   -10.441      4.037     11.082
REMARK INTER + INTRA:         -13.868
REMARK INTER:                 -13.100
REMARK INTRA:                  -0.767
REMARK UNBOUND:                -0.375
REMARK SMILES COc1ccccc1C(=O)N1Cc2cc(NC(=O)c3ccccc3)ccc2CC1=O
REMARK SMILES IDX 9 1 10 2 8 3 3 4 4 5 5 6 7 7 6 8 2 9 1 10 11 11 12 12 29 13
REMARK SMILES IDX 13 14 28 15 14 16 27 17 15 18 26 19 25 20 30 21 16 22 17 23
REMARK SMILES IDX 18 25 19 26 20 27 24 28 21 29 23 30 22 31
REMARK H PARENT 16 24
ROOT
ATOM      1  C   UNL     1     -21.858 -41.971  25.238  1.00  0.00     0.264 C 
ATOM      2  O   UNL     1     -22.748 -41.121  25.288  1.00  0.00    -0.268 OA
ENDROOT
BRANCH   1   3
ATOM      3  C   UNL     1     -22.111 -43.295  25.869  1.00  0.00     0.082 A 
ATOM      4  C   UNL     1     -22.629 -44.382  25.142  1.00  0.00     0.131 A 
ATOM      5  C   UNL     1     -22.820 -45.601  25.805  1.00  0.00     0.047 A 
ATOM      6  C   UNL     1     -22.495 -45.734  27.160  1.00  0.00     0.004 A 
ATOM      7  C   UNL     1     -21.764 -43.440  27.220  1.00  0.00     0.018 A 
ATOM      8  C   UNL     1     -21.964 -44.658  27.865  1.00  0.00     0.001 A 
BRANCH   4   9
ATOM      9  O   UNL     1     -22.872 -44.188  23.807  1.00  0.00    -0.496 OA
ATOM     10  C   UNL     1     -22.740 -45.314  22.949  1.00  0.00     0.278 C 
ENDBRANCH   4   9
ENDBRANCH   1   3
BRANCH   1  11
ATOM     11  N   UNL     1     -20.636 -41.748  24.600  1.00  0.00    -0.274 N 
ATOM     12  C   UNL     1     -19.478 -41.653  25.471  1.00  0.00     0.164 C 
ATOM     13  C   UNL     1     -20.558 -41.196  23.323  1.00  0.00     0.234 C 
ATOM     14  C   UNL     1     -18.224 -42.103  24.777  1.00  0.00    -0.022 A 
ATOM     15  C   UNL     1     -19.167 -41.037  22.722  1.00  0.00     0.136 C 
ATOM     16  C   UNL     1     -17.197 -42.769  25.460  1.00  0.00     0.032 A 
ATOM     17  C   UNL     1     -18.076 -41.800  23.422  1.00  0.00    -0.033 A 
ATOM     18  C   UNL     1     -16.022 -43.146  24.797  1.00  0.00     0.041 A 
ATOM     19  C   UNL     1     -16.901 -42.162  22.759  1.00  0.00     0.007 A 
ATOM     20  C   UNL     1     -15.885 -42.839  23.443  1.00  0.00     0.026 A 
ATOM     21  O   UNL     1     -21.535 -40.811  22.677  1.00  0.00    -0.274 OA
BRANCH  18  22
ATOM     22  N   UNL     1     -15.045 -43.827  25.554  1.00  0.00    -0.322 N 
ATOM     23  C   UNL     1     -14.157 -43.283  26.463  1.00  0.00     0.255 C 
ATOM     24  H   UNL     1     -15.044 -44.834  25.463  1.00  0.00     0.170 HD
ATOM     25  O   UNL     1     -14.104 -42.116  26.832  1.00  0.00    -0.269 OA
BRANCH  23  26
ATOM     26  C   UNL     1     -13.207 -44.259  27.069  1.00  0.00     0.040 A 
ATOM     27  C   UNL     1     -13.409 -45.624  26.829  1.00  0.00     0.014 A 
ATOM     28  C   UNL     1     -12.147 -43.845  27.887  1.00  0.00     0.014 A 
ATOM     29  C   UNL     1     -12.538 -46.567  27.378  1.00  0.00     0.001 A 
ATOM     30  C   UNL     1     -11.279 -44.793  28.434  1.00  0.00     0.001 A 
ATOM     31  C   UNL     1     -11.473 -46.151  28.176  1.00  0.00     0.000 A 
ENDBRANCH  23  26
ENDBRANCH  18  22
ENDBRANCH   1  11
TORSDOF 5
ENDMDL
MODEL 7
REMARK VINA RESULT:   -10.065      4.149     11.827
REMARK INTER + INTRA:         -13.382
REMARK INTER:                 -12.419
REMARK INTRA:                  -0.963
REMARK UNBOUND:                -0.375
REMARK SMILES COc1ccccc1C(=O)N1Cc2cc(NC(=O)c3ccccc3)ccc2CC1=O
REMARK SMILES IDX 9 1 10 2 8 3 3 4 4 5 5 6 7 7 6 8 2 9 1 10 11 11 12 12 29 13
REMARK SMILES IDX 13 14 28 15 14 16 27 17 15 18 26 19 25 20 30 21 16 22 17 23
REMARK SMILES IDX 18 25 19 26 20 27 24 28 21 29 23 30 22 31
REMARK H PARENT 16 24
ROOT
ATOM      1  C   UNL     1     -21.375 -43.007  22.126  1.00  0.00     0.264 C 
ATOM      2  O   UNL     1     -21.664 -43.609  21.091  1.00  0.00    -0.268 OA
ENDROOT
BRANCH   1   3
ATOM      3  C   UNL     1     -22.324 -43.074  23.270  1.00  0.00     0.082 A 
ATOM      4  C   UNL     1     -23.215 -42.027  23.564  1.00  0.00     0.131 A 
ATOM      5  C   UNL     1     -24.091 -42.176  24.647  1.00  0.00     0.047 A 
ATOM      6  C   UNL     1     -24.083 -43.346  25.414  1.00  0.00     0.004 A 
ATOM      7  C   UNL     1     -22.336 -44.255  24.026  1.00  0.00     0.018 A 
ATOM      8  C   UNL     1     -23.211 -44.386  25.103  1.00  0.00     0.001 A 
BRANCH   4   9
ATOM      9  O   UNL     1     -23.199 -40.935  22.735  1.00  0.00    -0.496 OA
ATOM     10  C   UNL     1     -22.767 -39.699  23.290  1.00  0.00     0.278 C 
ENDBRANCH   4   9
ENDBRANCH   1   3
BRANCH   1  11
ATOM     11  N   UNL     1     -20.189 -42.284  22.273  1.00  0.00    -0.274 N 
ATOM     12  C   UNL     1     -19.533 -42.403  23.563  1.00  0.00     0.164 C 
ATOM     13  C   UNL     1     -19.888 -41.186  21.470  1.00  0.00     0.234 C 
ATOM     14  C   UNL     1     -18.046 -42.226  23.447  1.00  0.00    -0.022 A 
ATOM     15  C   UNL     1     -18.545 -40.504  21.705  1.00  0.00     0.136 C 
ATOM     16  C   UNL     1     -17.149 -42.934  24.259  1.00  0.00     0.032 A 
ATOM     17  C   UNL     1     -17.563 -41.291  22.528  1.00  0.00    -0.033 A 
ATOM     18  C   UNL     1     -15.769 -42.723  24.156  1.00  0.00     0.041 A 
ATOM     19  C   UNL     1     -16.188 -41.068  22.431  1.00  0.00     0.007 A 
ATOM     20  C   UNL     1     -15.297 -41.788  23.235  1.00  0.00     0.026 A 
ATOM     21  O   UNL     1     -20.649 -40.728  20.614  1.00  0.00    -0.274 OA
BRANCH  18  22
ATOM     22  N   UNL     1     -14.935 -43.489  24.999  1.00  0.00    -0.322 N 
ATOM     23  C   UNL     1     -14.371 -43.100  26.200  1.00  0.00     0.255 C 
ATOM     24  H   UNL     1     -14.791 -44.449  24.717  1.00  0.00     0.170 HD
ATOM     25  O   UNL     1     -14.551 -42.041  26.789  1.00  0.00    -0.269 OA
BRANCH  23  26
ATOM     26  C   UNL     1     -13.491 -44.121  26.836  1.00  0.00     0.040 A 
ATOM     27  C   UNL     1     -12.468 -43.685  27.688  1.00  0.00     0.014 A 
ATOM     28  C   UNL     1     -13.646 -45.490  26.578  1.00  0.00     0.014 A 
ATOM     29  C   UNL     1     -11.626 -44.613  28.302  1.00  0.00     0.001 A 
ATOM     30  C   UNL     1     -12.799 -46.414  27.195  1.00  0.00     0.001 A 
ATOM     31  C   UNL     1     -11.794 -45.976  28.059  1.00  0.00     0.000 A 
ENDBRANCH  23  26
ENDBRANCH  18  22
ENDBRANCH   1  11
TORSDOF 5
ENDMDL
MODEL 8
REMARK VINA RESULT:    -9.489      2.519      3.912
REMARK INTER + INTRA:         -12.638
REMARK INTER:                 -13.124
REMARK INTRA:                   0.486
REMARK UNBOUND:                -0.375
REMARK SMILES COc1ccccc1C(=O)N1Cc2cc(NC(=O)c3ccccc3)ccc2CC1=O
REMARK SMILES IDX 9 1 10 2 8 3 3 4 4 5 5 6 7 7 6 8 2 9 1 10 11 11 12 12 29 13
REMARK SMILES IDX 13 14 28 15 14 16 27 17 15 18 26 19 25 20 30 21 16 22 17 23
REMARK SMILES IDX 18 25 19 26 20 27 24 28 21 29 23 30 22 31
REMARK H PARENT 16 24
ROOT
ATOM      1  C   UNL     1     -12.394 -44.484  30.480  1.00  0.00     0.264 C 
ATOM      2  O   UNL     1     -13.308 -44.459  31.306  1.00  0.00    -0.268 OA
ENDROOT
BRANCH   1   3
ATOM      3  C   UNL     1     -11.041 -44.897  30.938  1.00  0.00     0.082 A 
ATOM      4  C   UNL     1     -10.201 -44.035  31.666  1.00  0.00     0.131 A 
ATOM      5  C   UNL     1      -8.949 -44.507  32.077  1.00  0.00     0.047 A 
ATOM      6  C   UNL     1      -8.546 -45.813  31.776  1.00  0.00     0.004 A 
ATOM      7  C   UNL     1     -10.642 -46.213  30.659  1.00  0.00     0.018 A 
ATOM      8  C   UNL     1      -9.391 -46.666  31.072  1.00  0.00     0.001 A 
BRANCH   4   9
ATOM      9  O   UNL     1     -10.689 -42.789  31.967  1.00  0.00    -0.496 OA
ATOM     10  C   UNL     1     -10.876 -42.477  33.342  1.00  0.00     0.278 C 
ENDBRANCH   4   9
ENDBRANCH   1   3
BRANCH   1  11
ATOM     11  N   UNL     1     -12.584 -44.159  29.134  1.00  0.00    -0.274 N 
ATOM     12  C   UNL     1     -13.799 -44.671  28.528  1.00  0.00     0.164 C 
ATOM     13  C   UNL     1     -11.525 -43.797  28.304  1.00  0.00     0.234 C 
ATOM     14  C   UNL     1     -14.280 -43.783  27.416  1.00  0.00    -0.022 A 
ATOM     15  C   UNL     1     -11.868 -43.431  26.865  1.00  0.00     0.136 C 
ATOM     16  C   UNL     1     -15.645 -43.595  27.155  1.00  0.00     0.032 A 
ATOM     17  C   UNL     1     -13.325 -43.172  26.601  1.00  0.00    -0.033 A 
ATOM     18  C   UNL     1     -16.066 -42.790  26.089  1.00  0.00     0.041 A 
ATOM     19  C   UNL     1     -13.741 -42.379  25.529  1.00  0.00     0.007 A 
ATOM     20  C   UNL     1     -15.104 -42.183  25.282  1.00  0.00     0.026 A 
ATOM     21  O   UNL     1     -10.344 -43.784  28.659  1.00  0.00    -0.274 OA
BRANCH  18  22
ATOM     22  N   UNL     1     -17.457 -42.640  25.906  1.00  0.00    -0.322 N 
ATOM     23  C   UNL     1     -18.400 -42.313  26.864  1.00  0.00     0.255 C 
ATOM     24  H   UNL     1     -17.785 -42.718  24.953  1.00  0.00     0.170 HD
ATOM     25  O   UNL     1     -18.189 -42.024  28.036  1.00  0.00    -0.269 OA
BRANCH  23  26
ATOM     26  C   UNL     1     -19.806 -42.278  26.370  1.00  0.00     0.040 A 
ATOM     27  C   UNL     1     -20.212 -43.245  25.442  1.00  0.00     0.014 A 
ATOM     28  C   UNL     1     -20.709 -41.292  26.788  1.00  0.00     0.014 A 
ATOM     29  C   UNL     1     -21.521 -43.245  24.958  1.00  0.00     0.001 A 
ATOM     30  C   UNL     1     -22.018 -41.296  26.301  1.00  0.00     0.001 A 
ATOM     31  C   UNL     1     -22.424 -42.274  25.391  1.00  0.00     0.000 A 
ENDBRANCH  23  26
ENDBRANCH  18  22
ENDBRANCH   1  11
TORSDOF 5
ENDMDL
MODEL 9
REMARK VINA RESULT:    -9.482      4.716     11.616
REMARK INTER + INTRA:         -12.629
REMARK INTER:                 -12.137
REMARK INTRA:                  -0.492
REMARK UNBOUND:                -0.375
REMARK SMILES COc1ccccc1C(=O)N1Cc2cc(NC(=O)c3ccccc3)ccc2CC1=O
REMARK SMILES IDX 9 1 10 2 8 3 3 4 4 5 5 6 7 7 6 8 2 9 1 10 11 11 12 12 29 13
REMARK SMILES IDX 13 14 28 15 14 16 27 17 15 18 26 19 25 20 30 21 16 22 17 23
REMARK SMILES IDX 18 25 19 26 20 27 24 28 21 29 23 30 22 31
REMARK H PARENT 16 24
ROOT
ATOM      1  C   UNL     1     -22.937 -42.157  25.435  1.00  0.00     0.264 C 
ATOM      2  O   UNL     1     -23.741 -41.337  25.880  1.00  0.00    -0.268 OA
ENDROOT
BRANCH   1   3
ATOM      3  C   UNL     1     -23.228 -43.604  25.621  1.00  0.00     0.082 A 
ATOM      4  C   UNL     1     -23.322 -44.190  26.896  1.00  0.00     0.131 A 
ATOM      5  C   UNL     1     -23.620 -45.555  26.986  1.00  0.00     0.047 A 
ATOM      6  C   UNL     1     -23.826 -46.318  25.831  1.00  0.00     0.004 A 
ATOM      7  C   UNL     1     -23.459 -44.367  24.467  1.00  0.00     0.018 A 
ATOM      8  C   UNL     1     -23.750 -45.725  24.574  1.00  0.00     0.001 A 
BRANCH   4   9
ATOM      9  O   UNL     1     -23.160 -43.366  27.980  1.00  0.00    -0.496 OA
ATOM     10  C   UNL     1     -24.294 -43.148  28.810  1.00  0.00     0.278 C 
ENDBRANCH   4   9
ENDBRANCH   1   3
BRANCH   1  11
ATOM     11  N   UNL     1     -21.779 -41.783  24.748  1.00  0.00    -0.274 N 
ATOM     12  C   UNL     1     -20.626 -41.478  25.577  1.00  0.00     0.164 C 
ATOM     13  C   UNL     1     -21.818 -41.282  23.449  1.00  0.00     0.234 C 
ATOM     14  C   UNL     1     -19.337 -41.766  24.861  1.00  0.00    -0.022 A 
ATOM     15  C   UNL     1     -20.483 -40.944  22.797  1.00  0.00     0.136 C 
ATOM     16  C   UNL     1     -18.204 -42.241  25.537  1.00  0.00     0.032 A 
ATOM     17  C   UNL     1     -19.272 -41.504  23.491  1.00  0.00    -0.033 A 
ATOM     18  C   UNL     1     -17.004 -42.467  24.851  1.00  0.00     0.041 A 
ATOM     19  C   UNL     1     -18.074 -41.716  22.806  1.00  0.00     0.007 A 
ATOM     20  C   UNL     1     -16.950 -42.203  23.482  1.00  0.00     0.026 A 
ATOM     21  O   UNL     1     -22.859 -41.076  22.820  1.00  0.00    -0.274 OA
BRANCH  18  22
ATOM     22  N   UNL     1     -15.916 -42.961  25.602  1.00  0.00    -0.322 N 
ATOM     23  C   UNL     1     -14.773 -43.572  25.122  1.00  0.00     0.255 C 
ATOM     24  H   UNL     1     -15.956 -42.787  26.598  1.00  0.00     0.170 HD
ATOM     25  O   UNL     1     -14.462 -43.733  23.947  1.00  0.00    -0.269 OA
BRANCH  23  26
ATOM     26  C   UNL     1     -13.823 -44.034  26.173  1.00  0.00     0.040 A 
ATOM     27  C   UNL     1     -13.785 -45.398  26.488  1.00  0.00     0.014 A 
ATOM     28  C   UNL     1     -12.997 -43.137  26.865  1.00  0.00     0.014 A 
ATOM     29  C   UNL     1     -12.906 -45.867  27.466  1.00  0.00     0.001 A 
ATOM     30  C   UNL     1     -12.121 -43.611  27.843  1.00  0.00     0.001 A 
ATOM     31  C   UNL     1     -12.072 -44.974  28.140  1.00  0.00     0.000 A 
ENDBRANCH  23  26
ENDBRANCH  18  22
ENDBRANCH   1  11
TORSDOF 5
ENDMDL
