MODEL 1
REMARK VINA RESULT:    -8.894      0.000      0.000
REMARK INTER + INTRA:         -10.073
REMARK INTER:                  -9.934
REMARK INTRA:                  -0.139
REMARK UNBOUND:                -0.139
REMARK SMILES CNC(=O)Oc1cccc2c1SC[C@H]1CC[N@H+](C)[C@H]21
REMARK SMILES IDX 5 1 6 2 16 3 17 4 15 5 19 6 14 7 10 8 13 9 11 10 9 11 12 12
REMARK SMILES IDX 8 13 7 14 18 15 3 17 2 18 4 19 1 20
REMARK H PARENT 17 16 2 21
ROOT
ATOM      1  O   UNL     1      -7.617 -43.323  31.230  1.00  0.00    -0.409 OA
ENDROOT
BRANCH   1   2
ATOM      2  C   UNL     1      -8.502 -44.333  30.829  1.00  0.00     0.146 A 
ATOM      3  C   UNL     1     -13.661 -44.994  27.544  1.00  0.00     0.263 C 
ATOM      4  N   UNL     1     -12.755 -45.672  28.575  1.00  0.00    -0.331 N 
ATOM      5  C   UNL     1     -12.869 -43.796  27.024  1.00  0.00     0.072 C 
ATOM      6  C   UNL     1     -11.396 -44.978  28.430  1.00  0.00     0.220 C 
ATOM      7  C   UNL     1     -11.831 -43.553  28.108  1.00  0.00     0.068 C 
ATOM      8  C   UNL     1     -10.365 -45.145  29.508  1.00  0.00     0.027 A 
ATOM      9  C   UNL     1     -10.647 -42.713  27.696  1.00  0.00     0.085 C 
ATOM     10  C   UNL     1      -9.509 -44.083  29.874  1.00  0.00     0.059 A 
ATOM     11  C   UNL     1     -10.145 -46.422  30.072  1.00  0.00     0.011 A 
ATOM     12  S   UNL     1      -9.639 -42.429  29.178  1.00  0.00    -0.121 SA
ATOM     13  C   UNL     1      -9.161 -46.633  31.039  1.00  0.00     0.004 A 
ATOM     14  C   UNL     1      -8.344 -45.581  31.431  1.00  0.00     0.048 A 
ATOM     15  C   UNL     1     -13.366 -45.639  29.953  1.00  0.00     0.333 C 
ATOM     16  H   UNL     1     -12.637 -46.658  28.311  1.00  0.00     0.348 HD
ENDBRANCH   1   2
BRANCH   1  17
ATOM     17  C   UNL     1      -7.610 -43.153  32.607  1.00  0.00     0.412 C 
ATOM     18  N   UNL     1      -8.851 -42.757  33.020  1.00  0.00    -0.324 N 
ATOM     19  O   UNL     1      -6.647 -43.321  33.344  1.00  0.00    -0.224 OA
ATOM     20  C   UNL     1      -9.118 -42.381  34.383  1.00  0.00     0.146 C 
ATOM     21  H   UNL     1      -9.518 -42.529  32.295  1.00  0.00     0.166 HD
ENDBRANCH   1  17
TORSDOF 2
ENDMDL
MODEL 2
REMARK VINA RESULT:    -8.315      3.080      6.057
REMARK INTER + INTRA:          -9.427
REMARK INTER:                  -9.150
REMARK INTRA:                  -0.277
REMARK UNBOUND:                -0.139
REMARK SMILES CNC(=O)Oc1cccc2c1SC[C@H]1CC[N@H+](C)[C@H]21
REMARK SMILES IDX 5 1 6 2 16 3 17 4 15 5 19 6 14 7 10 8 13 9 11 10 9 11 12 12
REMARK SMILES IDX 8 13 7 14 18 15 3 17 2 18 4 19 1 20
REMARK H PARENT 17 16 2 21
ROOT
ATOM      1  O   UNL     1     -13.636 -44.995  28.438  1.00  0.00    -0.409 OA
ENDROOT
BRANCH   1   2
ATOM      2  C   UNL     1     -12.334 -45.312  28.845  1.00  0.00     0.146 A 
ATOM      3  C   UNL     1      -8.112 -43.418  32.900  1.00  0.00     0.263 C 
ATOM      4  N   UNL     1      -8.325 -44.248  31.631  1.00  0.00    -0.331 N 
ATOM      5  C   UNL     1      -9.512 -43.112  33.431  1.00  0.00     0.072 C 
ATOM      6  C   UNL     1      -9.820 -44.585  31.620  1.00  0.00     0.220 C 
ATOM      7  C   UNL     1     -10.409 -43.313  32.220  1.00  0.00     0.068 C 
ATOM      8  C   UNL     1     -10.452 -45.094  30.357  1.00  0.00     0.027 A 
ATOM      9  C   UNL     1     -11.876 -43.494  32.522  1.00  0.00     0.085 C 
ATOM     10  C   UNL     1     -11.767 -44.727  29.996  1.00  0.00     0.059 A 
ATOM     11  C   UNL     1      -9.780 -46.067  29.583  1.00  0.00     0.011 A 
ATOM     12  S   UNL     1     -12.756 -43.554  30.937  1.00  0.00    -0.121 SA
ATOM     13  C   UNL     1     -10.353 -46.605  28.430  1.00  0.00     0.004 A 
ATOM     14  C   UNL     1     -11.630 -46.216  28.050  1.00  0.00     0.048 A 
ATOM     15  C   UNL     1      -7.804 -43.534  30.410  1.00  0.00     0.333 C 
ATOM     16  H   UNL     1      -7.803 -45.128  31.723  1.00  0.00     0.348 HD
ENDBRANCH   1   2
BRANCH   1  17
ATOM     17  C   UNL     1     -13.647 -44.126  27.355  1.00  0.00     0.412 C 
ATOM     18  N   UNL     1     -14.487 -44.613  26.393  1.00  0.00    -0.324 N 
ATOM     19  O   UNL     1     -13.004 -43.089  27.263  1.00  0.00    -0.224 OA
ATOM     20  C   UNL     1     -14.609 -43.993  25.101  1.00  0.00     0.146 C 
ATOM     21  H   UNL     1     -14.853 -45.544  26.541  1.00  0.00     0.166 HD
ENDBRANCH   1  17
TORSDOF 2
ENDMDL
MODEL 3
REMARK VINA RESULT:    -7.953      3.965      4.920
REMARK INTER + INTRA:          -9.022
REMARK INTER:                  -8.981
REMARK INTRA:                  -0.041
REMARK UNBOUND:                -0.139
REMARK SMILES CNC(=O)Oc1cccc2c1SC[C@H]1CC[N@H+](C)[C@H]21
REMARK SMILES IDX 5 1 6 2 16 3 17 4 15 5 19 6 14 7 10 8 13 9 11 10 9 11 12 12
REMARK SMILES IDX 8 13 7 14 18 15 3 17 2 18 4 19 1 20
REMARK H PARENT 17 16 2 21
ROOT
ATOM      1  O   UNL     1     -14.198 -43.394  33.288  1.00  0.00    -0.409 OA
ENDROOT
BRANCH   1   2
ATOM      2  C   UNL     1     -12.896 -43.486  32.778  1.00  0.00     0.146 A 
ATOM      3  C   UNL     1      -9.753 -46.634  28.528  1.00  0.00     0.263 C 
ATOM      4  N   UNL     1      -9.611 -45.752  29.771  1.00  0.00    -0.331 N 
ATOM      5  C   UNL     1     -11.217 -46.521  28.108  1.00  0.00     0.072 C 
ATOM      6  C   UNL     1     -10.935 -44.986  29.870  1.00  0.00     0.220 C 
ATOM      7  C   UNL     1     -11.917 -46.037  29.368  1.00  0.00     0.068 C 
ATOM      8  C   UNL     1     -11.287 -44.286  31.151  1.00  0.00     0.027 A 
ATOM      9  C   UNL     1     -13.286 -45.435  29.160  1.00  0.00     0.085 C 
ATOM     10  C   UNL     1     -12.620 -44.237  31.617  1.00  0.00     0.059 A 
ATOM     11  C   UNL     1     -10.299 -43.541  31.834  1.00  0.00     0.011 A 
ATOM     12  S   UNL     1     -13.981 -45.083  30.798  1.00  0.00    -0.121 SA
ATOM     13  C   UNL     1     -10.596 -42.833  33.000  1.00  0.00     0.004 A 
ATOM     14  C   UNL     1     -11.897 -42.816  33.483  1.00  0.00     0.048 A 
ATOM     15  C   UNL     1      -9.230 -46.563  30.983  1.00  0.00     0.333 C 
ATOM     16  H   UNL     1      -8.862 -45.070  29.606  1.00  0.00     0.348 HD
ENDBRANCH   1   2
BRANCH   1  17
ATOM     17  C   UNL     1     -14.576 -42.079  33.519  1.00  0.00     0.412 C 
ATOM     18  N   UNL     1     -14.601 -41.846  34.866  1.00  0.00    -0.324 N 
ATOM     19  O   UNL     1     -14.851 -41.251  32.661  1.00  0.00    -0.224 OA
ATOM     20  C   UNL     1     -15.077 -40.606  35.417  1.00  0.00     0.146 C 
ATOM     21  H   UNL     1     -14.480 -42.650  35.466  1.00  0.00     0.166 HD
ENDBRANCH   1  17
TORSDOF 2
ENDMDL
MODEL 4
REMARK VINA RESULT:    -7.835      3.154      6.315
REMARK INTER + INTRA:          -8.890
REMARK INTER:                  -8.839
REMARK INTRA:                  -0.051
REMARK UNBOUND:                -0.139
REMARK SMILES CNC(=O)Oc1cccc2c1SC[C@H]1CC[N@H+](C)[C@H]21
REMARK SMILES IDX 5 1 6 2 16 3 17 4 15 5 19 6 14 7 10 8 13 9 11 10 9 11 12 12
REMARK SMILES IDX 8 13 7 14 18 15 3 17 2 18 4 19 1 20
REMARK H PARENT 17 16 2 21
ROOT
ATOM      1  O   UNL     1     -12.914 -44.832  27.183  1.00  0.00    -0.409 OA
ENDROOT
BRANCH   1   2
ATOM      2  C   UNL     1     -11.876 -44.105  27.780  1.00  0.00     0.146 A 
ATOM      3  C   UNL     1      -7.504 -44.838  32.046  1.00  0.00     0.263 C 
ATOM      4  N   UNL     1      -8.279 -43.797  31.235  1.00  0.00    -0.331 N 
ATOM      5  C   UNL     1      -7.831 -46.186  31.405  1.00  0.00     0.072 C 
ATOM      6  C   UNL     1      -8.824 -44.560  30.022  1.00  0.00     0.220 C 
ATOM      7  C   UNL     1      -9.120 -45.919  30.644  1.00  0.00     0.068 C 
ATOM      8  C   UNL     1      -9.912 -43.944  29.191  1.00  0.00     0.027 A 
ATOM      9  C   UNL     1      -9.465 -46.931  29.579  1.00  0.00     0.085 C 
ATOM     10  C   UNL     1     -10.938 -44.732  28.625  1.00  0.00     0.059 A 
ATOM     11  C   UNL     1      -9.836 -42.575  28.847  1.00  0.00     0.011 A 
ATOM     12  S   UNL     1     -11.102 -46.498  28.927  1.00  0.00    -0.121 SA
ATOM     13  C   UNL     1     -10.799 -41.974  28.034  1.00  0.00     0.004 A 
ATOM     14  C   UNL     1     -11.832 -42.737  27.509  1.00  0.00     0.048 A 
ATOM     15  C   UNL     1      -9.306 -43.089  32.081  1.00  0.00     0.333 C 
ATOM     16  H   UNL     1      -7.618 -43.089  30.892  1.00  0.00     0.348 HD
ENDBRANCH   1   2
BRANCH   1  17
ATOM     17  C   UNL     1     -14.139 -44.192  27.308  1.00  0.00     0.412 C 
ATOM     18  N   UNL     1     -14.609 -43.870  26.066  1.00  0.00    -0.324 N 
ATOM     19  O   UNL     1     -14.713 -43.945  28.360  1.00  0.00    -0.224 OA
ATOM     20  C   UNL     1     -15.801 -43.087  25.881  1.00  0.00     0.146 C 
ATOM     21  H   UNL     1     -13.976 -44.013  25.292  1.00  0.00     0.166 HD
ENDBRANCH   1  17
TORSDOF 2
ENDMDL
MODEL 5
REMARK VINA RESULT:    -7.756      3.123      6.008
REMARK INTER + INTRA:          -8.803
REMARK INTER:                  -9.000
REMARK INTRA:                   0.198
REMARK UNBOUND:                -0.139
REMARK SMILES CNC(=O)Oc1cccc2c1SC[C@H]1CC[N@H+](C)[C@H]21
REMARK SMILES IDX 5 1 6 2 16 3 17 4 15 5 19 6 14 7 10 8 13 9 11 10 9 11 12 12
REMARK SMILES IDX 8 13 7 14 18 15 3 17 2 18 4 19 1 20
REMARK H PARENT 17 16 2 21
ROOT
ATOM      1  O   UNL     1     -12.894 -44.507  27.079  1.00  0.00    -0.409 OA
ENDROOT
BRANCH   1   2
ATOM      2  C   UNL     1     -12.493 -44.953  28.345  1.00  0.00     0.146 A 
ATOM      3  C   UNL     1      -7.592 -44.693  32.056  1.00  0.00     0.263 C 
ATOM      4  N   UNL     1      -8.910 -45.427  31.796  1.00  0.00    -0.331 N 
ATOM      5  C   UNL     1      -7.624 -43.459  31.156  1.00  0.00     0.072 C 
ATOM      6  C   UNL     1      -9.742 -44.464  30.942  1.00  0.00     0.220 C 
ATOM      7  C   UNL     1      -8.655 -43.813  30.096  1.00  0.00     0.068 C 
ATOM      8  C   UNL     1     -10.950 -44.979  30.215  1.00  0.00     0.027 A 
ATOM      9  C   UNL     1      -9.211 -42.646  29.316  1.00  0.00     0.085 C 
ATOM     10  C   UNL     1     -11.296 -44.496  28.934  1.00  0.00     0.059 A 
ATOM     11  C   UNL     1     -11.840 -45.858  30.874  1.00  0.00     0.011 A 
ATOM     12  S   UNL     1     -10.286 -43.320  28.020  1.00  0.00    -0.121 SA
ATOM     13  C   UNL     1     -13.001 -46.320  30.253  1.00  0.00     0.004 A 
ATOM     14  C   UNL     1     -13.323 -45.879  28.977  1.00  0.00     0.048 A 
ATOM     15  C   UNL     1      -8.675 -46.793  31.203  1.00  0.00     0.333 C 
ATOM     16  H   UNL     1      -9.396 -45.557  32.692  1.00  0.00     0.348 HD
ENDBRANCH   1   2
BRANCH   1  17
ATOM     17  C   UNL     1     -14.164 -43.948  27.101  1.00  0.00     0.412 C 
ATOM     18  N   UNL     1     -14.636 -43.847  25.823  1.00  0.00    -0.324 N 
ATOM     19  O   UNL     1     -14.772 -43.592  28.103  1.00  0.00    -0.224 OA
ATOM     20  C   UNL     1     -15.879 -43.190  25.518  1.00  0.00     0.146 C 
ATOM     21  H   UNL     1     -13.982 -44.055  25.082  1.00  0.00     0.166 HD
ENDBRANCH   1  17
TORSDOF 2
ENDMDL
MODEL 6
REMARK VINA RESULT:    -7.242      1.766      2.250
REMARK INTER + INTRA:          -8.227
REMARK INTER:                  -8.537
REMARK INTRA:                   0.309
REMARK UNBOUND:                -0.139
REMARK SMILES CNC(=O)Oc1cccc2c1SC[C@H]1CC[N@H+](C)[C@H]21
REMARK SMILES IDX 5 1 6 2 16 3 17 4 15 5 19 6 14 7 10 8 13 9 11 10 9 11 12 12
REMARK SMILES IDX 8 13 7 14 18 15 3 17 2 18 4 19 1 20
REMARK H PARENT 17 16 2 21
ROOT
ATOM      1  O   UNL     1      -9.556 -43.357  31.662  1.00  0.00    -0.409 OA
ENDROOT
BRANCH   1   2
ATOM      2  C   UNL     1     -10.557 -44.144  31.077  1.00  0.00     0.146 A 
ATOM      3  C   UNL     1     -14.475 -43.962  26.338  1.00  0.00     0.263 C 
ATOM      4  N   UNL     1     -14.169 -44.663  27.664  1.00  0.00    -0.331 N 
ATOM      5  C   UNL     1     -13.231 -43.139  26.011  1.00  0.00     0.072 C 
ATOM      6  C   UNL     1     -12.680 -44.401  27.919  1.00  0.00     0.220 C 
ATOM      7  C   UNL     1     -12.530 -42.995  27.353  1.00  0.00     0.068 C 
ATOM      8  C   UNL     1     -12.113 -44.645  29.288  1.00  0.00     0.027 A 
ATOM      9  C   UNL     1     -11.076 -42.596  27.286  1.00  0.00     0.085 C 
ATOM     10  C   UNL     1     -11.111 -43.807  29.826  1.00  0.00     0.059 A 
ATOM     11  C   UNL     1     -12.480 -45.810  29.998  1.00  0.00     0.011 A 
ATOM     12  S   UNL     1     -10.505 -42.334  28.988  1.00  0.00    -0.121 SA
ATOM     13  C   UNL     1     -11.938 -46.101  31.251  1.00  0.00     0.004 A 
ATOM     14  C   UNL     1     -10.982 -45.258  31.801  1.00  0.00     0.048 A 
ATOM     15  C   UNL     1     -15.109 -44.217  28.754  1.00  0.00     0.333 C 
ATOM     16  H   UNL     1     -14.296 -45.674  27.539  1.00  0.00     0.348 HD
ENDBRANCH   1   2
BRANCH   1  17
ATOM     17  C   UNL     1      -8.283 -43.798  31.328  1.00  0.00     0.412 C 
ATOM     18  N   UNL     1      -8.098 -45.060  31.819  1.00  0.00    -0.324 N 
ATOM     19  O   UNL     1      -7.447 -43.163  30.698  1.00  0.00    -0.224 OA
ATOM     20  C   UNL     1      -6.830 -45.733  31.738  1.00  0.00     0.146 C 
ATOM     21  H   UNL     1      -8.819 -45.417  32.432  1.00  0.00     0.166 HD
ENDBRANCH   1  17
TORSDOF 2
ENDMDL
MODEL 7
REMARK VINA RESULT:    -7.117      6.835      9.343
REMARK INTER + INTRA:          -8.088
REMARK INTER:                  -8.050
REMARK INTRA:                  -0.038
REMARK UNBOUND:                -0.139
REMARK SMILES CNC(=O)Oc1cccc2c1SC[C@H]1CC[N@H+](C)[C@H]21
REMARK SMILES IDX 5 1 6 2 16 3 17 4 15 5 19 6 14 7 10 8 13 9 11 10 9 11 12 12
REMARK SMILES IDX 8 13 7 14 18 15 3 17 2 18 4 19 1 20
REMARK H PARENT 17 16 2 21
ROOT
ATOM      1  O   UNL     1     -15.274 -42.474  26.898  1.00  0.00    -0.409 OA
ENDROOT
BRANCH   1   2
ATOM      2  C   UNL     1     -16.672 -42.545  26.835  1.00  0.00     0.146 A 
ATOM      3  C   UNL     1     -21.203 -41.926  22.719  1.00  0.00     0.263 C 
ATOM      4  N   UNL     1     -20.889 -41.970  24.217  1.00  0.00    -0.331 N 
ATOM      5  C   UNL     1     -19.929 -42.395  22.018  1.00  0.00     0.072 C 
ATOM      6  C   UNL     1     -19.537 -42.685  24.321  1.00  0.00     0.220 C 
ATOM      7  C   UNL     1     -18.844 -42.181  23.061  1.00  0.00     0.068 C 
ATOM      8  C   UNL     1     -18.758 -42.605  25.602  1.00  0.00     0.027 A 
ATOM      9  C   UNL     1     -17.557 -42.932  22.822  1.00  0.00     0.085 C 
ATOM     10  C   UNL     1     -17.348 -42.524  25.598  1.00  0.00     0.059 A 
ATOM     11  C   UNL     1     -19.428 -42.755  26.837  1.00  0.00     0.011 A 
ATOM     12  S   UNL     1     -16.373 -42.402  24.090  1.00  0.00    -0.121 SA
ATOM     13  C   UNL     1     -18.735 -42.739  28.049  1.00  0.00     0.004 A 
ATOM     14  C   UNL     1     -17.353 -42.619  28.051  1.00  0.00     0.048 A 
ATOM     15  C   UNL     1     -20.954 -40.596  24.835  1.00  0.00     0.333 C 
ATOM     16  H   UNL     1     -21.593 -42.554  24.684  1.00  0.00     0.348 HD
ENDBRANCH   1   2
BRANCH   1  17
ATOM     17  C   UNL     1     -14.693 -43.728  27.020  1.00  0.00     0.412 C 
ATOM     18  N   UNL     1     -14.388 -43.960  28.331  1.00  0.00    -0.324 N 
ATOM     19  O   UNL     1     -14.477 -44.509  26.102  1.00  0.00    -0.224 OA
ATOM     20  C   UNL     1     -13.660 -45.128  28.751  1.00  0.00     0.146 C 
ATOM     21  H   UNL     1     -14.498 -43.181  28.966  1.00  0.00     0.166 HD
ENDBRANCH   1  17
TORSDOF 2
ENDMDL
MODEL 8
REMARK VINA RESULT:    -6.891      2.950      4.445
REMARK INTER + INTRA:          -7.836
REMARK INTER:                  -7.569
REMARK INTRA:                  -0.268
REMARK UNBOUND:                -0.139
REMARK SMILES CNC(=O)Oc1cccc2c1SC[C@H]1CC[N@H+](C)[C@H]21
REMARK SMILES IDX 5 1 6 2 16 3 17 4 15 5 19 6 14 7 10 8 13 9 11 10 9 11 12 12
REMARK SMILES IDX 8 13 7 14 18 15 3 17 2 18 4 19 1 20
REMARK H PARENT 17 16 2 21
ROOT
ATOM      1  O   UNL     1      -8.914 -43.715  28.029  1.00  0.00    -0.409 OA
ENDROOT
BRANCH   1   2
ATOM      2  C   UNL     1      -9.243 -43.758  29.390  1.00  0.00     0.146 A 
ATOM      3  C   UNL     1     -14.201 -44.359  32.983  1.00  0.00     0.263 C 
ATOM      4  N   UNL     1     -12.733 -43.926  32.962  1.00  0.00    -0.331 N 
ATOM      5  C   UNL     1     -14.439 -45.070  31.652  1.00  0.00     0.072 C 
ATOM      6  C   UNL     1     -12.131 -44.612  31.731  1.00  0.00     0.220 C 
ATOM      7  C   UNL     1     -13.310 -44.565  30.767  1.00  0.00     0.068 C 
ATOM      8  C   UNL     1     -10.805 -44.147  31.202  1.00  0.00     0.027 A 
ATOM      9  C   UNL     1     -13.030 -45.394  29.537  1.00  0.00     0.085 C 
ATOM     10  C   UNL     1     -10.538 -44.117  29.816  1.00  0.00     0.059 A 
ATOM     11  C   UNL     1      -9.753 -43.868  32.104  1.00  0.00     0.011 A 
ATOM     12  S   UNL     1     -11.770 -44.520  28.567  1.00  0.00    -0.121 SA
ATOM     13  C   UNL     1      -8.489 -43.484  31.653  1.00  0.00     0.004 A 
ATOM     14  C   UNL     1      -8.236 -43.414  30.291  1.00  0.00     0.048 A 
ATOM     15  C   UNL     1     -12.599 -42.425  33.008  1.00  0.00     0.333 C 
ATOM     16  H   UNL     1     -12.266 -44.304  33.795  1.00  0.00     0.348 HD
ENDBRANCH   1   2
BRANCH   1  17
ATOM     17  C   UNL     1      -8.888 -42.417  27.539  1.00  0.00     0.412 C 
ATOM     18  N   UNL     1      -7.719 -42.213  26.861  1.00  0.00    -0.324 N 
ATOM     19  O   UNL     1      -9.765 -41.577  27.690  1.00  0.00    -0.224 OA
ATOM     20  C   UNL     1      -7.350 -40.921  26.346  1.00  0.00     0.146 C 
ATOM     21  H   UNL     1      -7.025 -42.946  26.925  1.00  0.00     0.166 HD
ENDBRANCH   1  17
TORSDOF 2
ENDMDL
MODEL 9
REMARK VINA RESULT:    -6.846      7.704     10.381
REMARK INTER + INTRA:          -7.786
REMARK INTER:                  -7.967
REMARK INTRA:                   0.181
REMARK UNBOUND:                -0.139
REMARK SMILES CNC(=O)Oc1cccc2c1SC[C@H]1CC[N@H+](C)[C@H]21
REMARK SMILES IDX 5 1 6 2 16 3 17 4 15 5 19 6 14 7 10 8 13 9 11 10 9 11 12 12
REMARK SMILES IDX 8 13 7 14 18 15 3 17 2 18 4 19 1 20
REMARK H PARENT 17 16 2 21
ROOT
ATOM      1  O   UNL     1     -16.490 -43.284  26.449  1.00  0.00    -0.409 OA
ENDROOT
BRANCH   1   2
ATOM      2  C   UNL     1     -16.940 -42.739  25.239  1.00  0.00     0.146 A 
ATOM      3  C   UNL     1     -22.171 -40.807  22.640  1.00  0.00     0.263 C 
ATOM      4  N   UNL     1     -20.729 -41.232  22.351  1.00  0.00    -0.331 N 
ATOM      5  C   UNL     1     -22.253 -40.634  24.155  1.00  0.00     0.072 C 
ATOM      6  C   UNL     1     -19.986 -41.054  23.680  1.00  0.00     0.220 C 
ATOM      7  C   UNL     1     -21.074 -41.441  24.675  1.00  0.00     0.068 C 
ATOM      8  C   UNL     1     -18.640 -41.693  23.864  1.00  0.00     0.027 A 
ATOM      9  C   UNL     1     -20.644 -41.126  26.087  1.00  0.00     0.085 C 
ATOM     10  C   UNL     1     -18.250 -42.235  25.109  1.00  0.00     0.059 A 
ATOM     11  C   UNL     1     -17.689 -41.631  22.821  1.00  0.00     0.011 A 
ATOM     12  S   UNL     1     -19.343 -42.309  26.537  1.00  0.00    -0.121 SA
ATOM     13  C   UNL     1     -16.409 -42.167  22.968  1.00  0.00     0.004 A 
ATOM     14  C   UNL     1     -16.036 -42.737  24.177  1.00  0.00     0.048 A 
ATOM     15  C   UNL     1     -20.670 -42.611  21.746  1.00  0.00     0.333 C 
ATOM     16  H   UNL     1     -20.323 -40.577  21.672  1.00  0.00     0.348 HD
ENDBRANCH   1   2
BRANCH   1  17
ATOM     17  C   UNL     1     -15.131 -43.079  26.641  1.00  0.00     0.412 C 
ATOM     18  N   UNL     1     -14.528 -44.275  26.914  1.00  0.00    -0.324 N 
ATOM     19  O   UNL     1     -14.554 -42.001  26.583  1.00  0.00    -0.224 OA
ATOM     20  C   UNL     1     -13.140 -44.364  27.281  1.00  0.00     0.146 C 
ATOM     21  H   UNL     1     -15.139 -45.066  27.061  1.00  0.00     0.166 HD
ENDBRANCH   1  17
TORSDOF 2
ENDMDL
