MODEL 1
REMARK VINA RESULT:    -8.369      0.000      0.000
REMARK INTER + INTRA:          -9.524
REMARK INTER:                  -9.347
REMARK INTRA:                  -0.177
REMARK UNBOUND:                -0.177
REMARK SMILES CNC(=O)Oc1ccc2c(c1)SC[C@@H]1CC[N@H+](C)[C@H]21
REMARK SMILES IDX 5 1 6 2 16 3 17 4 15 5 19 6 14 7 9 8 13 9 10 10 8 11 12 12
REMARK SMILES IDX 11 13 7 14 18 15 3 17 2 18 4 19 1 20
REMARK H PARENT 17 16 2 21
ROOT
ATOM      1  O   UNL     1     -14.115 -44.990  26.866  1.00  0.00    -0.410 OA
ENDROOT
BRANCH   1   2
ATOM      2  C   UNL     1     -13.180 -44.920  27.901  1.00  0.00     0.133 A 
ATOM      3  C   UNL     1      -8.063 -45.408  31.851  1.00  0.00     0.263 C 
ATOM      4  N   UNL     1      -9.375 -45.912  31.277  1.00  0.00    -0.331 N 
ATOM      5  C   UNL     1      -8.315 -43.949  32.178  1.00  0.00     0.072 C 
ATOM      6  C   UNL     1     -10.285 -44.685  31.070  1.00  0.00     0.220 C 
ATOM      7  C   UNL     1      -9.327 -43.492  31.132  1.00  0.00     0.068 C 
ATOM      8  C   UNL     1     -11.257 -44.754  29.926  1.00  0.00     0.023 A 
ATOM      9  C   UNL     1      -8.669 -43.185  29.794  1.00  0.00     0.085 C 
ATOM     10  C   UNL     1     -11.161 -43.927  28.794  1.00  0.00     0.020 A 
ATOM     11  C   UNL     1     -12.332 -45.668  30.014  1.00  0.00     0.015 A 
ATOM     12  S   UNL     1      -9.898 -42.688  28.567  1.00  0.00    -0.125 SA
ATOM     13  C   UNL     1     -12.125 -44.020  27.781  1.00  0.00     0.062 A 
ATOM     14  C   UNL     1     -13.282 -45.763  29.000  1.00  0.00     0.048 A 
ATOM     15  C   UNL     1      -9.171 -46.823  30.100  1.00  0.00     0.333 C 
ATOM     16  H   UNL     1      -9.830 -46.480  32.003  1.00  0.00     0.348 HD
ENDBRANCH   1   2
BRANCH   1  17
ATOM     17  C   UNL     1     -14.727 -43.774  26.590  1.00  0.00     0.412 C 
ATOM     18  N   UNL     1     -14.584 -43.487  25.262  1.00  0.00    -0.324 N 
ATOM     19  O   UNL     1     -15.300 -43.062  27.403  1.00  0.00    -0.224 OA
ATOM     20  C   UNL     1     -15.003 -42.228  24.705  1.00  0.00     0.146 C 
ATOM     21  H   UNL     1     -13.979 -44.094  24.728  1.00  0.00     0.166 HD
ENDBRANCH   1  17
TORSDOF 2
ENDMDL
MODEL 2
REMARK VINA RESULT:    -8.241      1.873      2.485
REMARK INTER + INTRA:          -9.381
REMARK INTER:                  -9.155
REMARK INTRA:                  -0.226
REMARK UNBOUND:                -0.177
REMARK SMILES CNC(=O)Oc1ccc2c(c1)SC[C@@H]1CC[N@H+](C)[C@H]21
REMARK SMILES IDX 5 1 6 2 16 3 17 4 15 5 19 6 14 7 9 8 13 9 10 10 8 11 12 12
REMARK SMILES IDX 11 13 7 14 18 15 3 17 2 18 4 19 1 20
REMARK H PARENT 17 16 2 21
ROOT
ATOM      1  O   UNL     1     -15.559 -43.913  26.960  1.00  0.00    -0.410 OA
ENDROOT
BRANCH   1   2
ATOM      2  C   UNL     1     -14.448 -44.459  27.605  1.00  0.00     0.133 A 
ATOM      3  C   UNL     1      -8.795 -45.670  30.539  1.00  0.00     0.263 C 
ATOM      4  N   UNL     1      -9.662 -45.493  29.305  1.00  0.00    -0.331 N 
ATOM      5  C   UNL     1      -9.588 -46.594  31.443  1.00  0.00     0.072 C 
ATOM      6  C   UNL     1     -11.033 -46.126  29.614  1.00  0.00     0.220 C 
ATOM      7  C   UNL     1     -11.047 -46.266  31.138  1.00  0.00     0.068 C 
ATOM      8  C   UNL     1     -12.227 -45.502  28.949  1.00  0.00     0.023 A 
ATOM      9  C   UNL     1     -11.511 -45.003  31.850  1.00  0.00     0.085 C 
ATOM     10  C   UNL     1     -13.228 -44.823  29.664  1.00  0.00     0.020 A 
ATOM     11  C   UNL     1     -12.362 -45.639  27.548  1.00  0.00     0.015 A 
ATOM     12  S   UNL     1     -13.227 -44.621  31.436  1.00  0.00    -0.125 SA
ATOM     13  C   UNL     1     -14.335 -44.298  28.983  1.00  0.00     0.062 A 
ATOM     14  C   UNL     1     -13.459 -45.107  26.876  1.00  0.00     0.048 A 
ATOM     15  C   UNL     1      -9.657 -44.077  28.803  1.00  0.00     0.333 C 
ATOM     16  H   UNL     1      -9.251 -46.063  28.555  1.00  0.00     0.348 HD
ENDBRANCH   1   2
BRANCH   1  17
ATOM     17  C   UNL     1     -15.251 -42.825  26.153  1.00  0.00     0.412 C 
ATOM     18  N   UNL     1     -15.835 -42.991  24.929  1.00  0.00    -0.324 N 
ATOM     19  O   UNL     1     -14.562 -41.868  26.476  1.00  0.00    -0.224 OA
ATOM     20  C   UNL     1     -15.585 -42.087  23.837  1.00  0.00     0.146 C 
ATOM     21  H   UNL     1     -16.268 -43.885  24.749  1.00  0.00     0.166 HD
ENDBRANCH   1  17
TORSDOF 2
ENDMDL
MODEL 3
REMARK VINA RESULT:    -7.678      4.084      5.636
REMARK INTER + INTRA:          -8.753
REMARK INTER:                  -8.939
REMARK INTRA:                   0.186
REMARK UNBOUND:                -0.177
REMARK SMILES CNC(=O)Oc1ccc2c(c1)SC[C@@H]1CC[N@H+](C)[C@H]21
REMARK SMILES IDX 5 1 6 2 16 3 17 4 15 5 19 6 14 7 9 8 13 9 10 10 8 11 12 12
REMARK SMILES IDX 11 13 7 14 18 15 3 17 2 18 4 19 1 20
REMARK H PARENT 17 16 2 21
ROOT
ATOM      1  O   UNL     1     -12.953 -42.240  33.904  1.00  0.00    -0.410 OA
ENDROOT
BRANCH   1   2
ATOM      2  C   UNL     1     -12.745 -43.153  32.868  1.00  0.00     0.133 A 
ATOM      3  C   UNL     1     -12.438 -46.414  27.274  1.00  0.00     0.263 C 
ATOM      4  N   UNL     1     -13.145 -45.989  28.548  1.00  0.00    -0.331 N 
ATOM      5  C   UNL     1     -11.048 -46.826  27.717  1.00  0.00     0.072 C 
ATOM      6  C   UNL     1     -12.084 -45.944  29.666  1.00  0.00     0.220 C 
ATOM      7  C   UNL     1     -10.749 -45.932  28.917  1.00  0.00     0.068 C 
ATOM      8  C   UNL     1     -12.295 -44.928  30.752  1.00  0.00     0.023 A 
ATOM      9  C   UNL     1     -10.313 -44.535  28.496  1.00  0.00     0.085 C 
ATOM     10  C   UNL     1     -11.444 -43.825  30.940  1.00  0.00     0.020 A 
ATOM     11  C   UNL     1     -13.378 -45.114  31.643  1.00  0.00     0.015 A 
ATOM     12  S   UNL     1     -10.007 -43.491  29.938  1.00  0.00    -0.125 SA
ATOM     13  C   UNL     1     -11.679 -42.937  31.999  1.00  0.00     0.062 A 
ATOM     14  C   UNL     1     -13.612 -44.223  32.688  1.00  0.00     0.048 A 
ATOM     15  C   UNL     1     -13.988 -44.761  28.351  1.00  0.00     0.333 C 
ATOM     16  H   UNL     1     -13.794 -46.743  28.807  1.00  0.00     0.348 HD
ENDBRANCH   1   2
BRANCH   1  17
ATOM     17  C   UNL     1     -14.232 -41.699  33.915  1.00  0.00     0.412 C 
ATOM     18  N   UNL     1     -14.481 -41.153  35.143  1.00  0.00    -0.324 N 
ATOM     19  O   UNL     1     -15.021 -41.709  32.980  1.00  0.00    -0.224 OA
ATOM     20  C   UNL     1     -15.775 -40.632  35.496  1.00  0.00     0.146 C 
ATOM     21  H   UNL     1     -13.797 -41.326  35.865  1.00  0.00     0.166 HD
ENDBRANCH   1  17
TORSDOF 2
ENDMDL
MODEL 4
REMARK VINA RESULT:    -7.116      5.711     11.405
REMARK INTER + INTRA:          -8.125
REMARK INTER:                  -7.927
REMARK INTRA:                  -0.199
REMARK UNBOUND:                -0.177
REMARK SMILES CNC(=O)Oc1ccc2c(c1)SC[C@@H]1CC[N@H+](C)[C@H]21
REMARK SMILES IDX 5 1 6 2 16 3 17 4 15 5 19 6 14 7 9 8 13 9 10 10 8 11 12 12
REMARK SMILES IDX 11 13 7 14 18 15 3 17 2 18 4 19 1 20
REMARK H PARENT 17 16 2 21
ROOT
ATOM      1  O   UNL     1     -15.453 -43.083  23.309  1.00  0.00    -0.410 OA
ENDROOT
BRANCH   1   2
ATOM      2  C   UNL     1     -16.626 -42.353  23.109  1.00  0.00     0.133 A 
ATOM      3  C   UNL     1     -22.384 -40.006  21.276  1.00  0.00     0.263 C 
ATOM      4  N   UNL     1     -20.887 -40.187  21.104  1.00  0.00    -0.331 N 
ATOM      5  C   UNL     1     -22.567 -39.618  22.730  1.00  0.00     0.072 C 
ATOM      6  C   UNL     1     -20.255 -40.128  22.509  1.00  0.00     0.220 C 
ATOM      7  C   UNL     1     -21.436 -40.337  23.461  1.00  0.00     0.068 C 
ATOM      8  C   UNL     1     -19.017 -40.952  22.725  1.00  0.00     0.023 A 
ATOM      9  C   UNL     1     -21.753 -41.805  23.705  1.00  0.00     0.085 C 
ATOM     10  C   UNL     1     -18.983 -42.064  23.584  1.00  0.00     0.020 A 
ATOM     11  C   UNL     1     -17.831 -40.566  22.060  1.00  0.00     0.015 A 
ATOM     12  S   UNL     1     -20.379 -42.635  24.534  1.00  0.00    -0.125 SA
ATOM     13  C   UNL     1     -17.782 -42.765  23.767  1.00  0.00     0.062 A 
ATOM     14  C   UNL     1     -16.643 -41.272  22.238  1.00  0.00     0.048 A 
ATOM     15  C   UNL     1     -20.550 -41.376  20.249  1.00  0.00     0.333 C 
ATOM     16  H   UNL     1     -20.533 -39.365  20.601  1.00  0.00     0.348 HD
ENDBRANCH   1   2
BRANCH   1  17
ATOM     17  C   UNL     1     -14.970 -43.008  24.609  1.00  0.00     0.412 C 
ATOM     18  N   UNL     1     -14.605 -44.256  25.029  1.00  0.00    -0.324 N 
ATOM     19  O   UNL     1     -14.886 -41.990  25.282  1.00  0.00    -0.224 OA
ATOM     20  C   UNL     1     -14.190 -44.514  26.382  1.00  0.00     0.146 C 
ATOM     21  H   UNL     1     -14.846 -45.028  24.424  1.00  0.00     0.166 HD
ENDBRANCH   1  17
TORSDOF 2
ENDMDL
MODEL 5
REMARK VINA RESULT:    -6.934      3.982      5.121
REMARK INTER + INTRA:          -7.922
REMARK INTER:                  -8.368
REMARK INTRA:                   0.446
REMARK UNBOUND:                -0.177
REMARK SMILES CNC(=O)Oc1ccc2c(c1)SC[C@@H]1CC[N@H+](C)[C@H]21
REMARK SMILES IDX 5 1 6 2 16 3 17 4 15 5 19 6 14 7 9 8 13 9 10 10 8 11 12 12
REMARK SMILES IDX 11 13 7 14 18 15 3 17 2 18 4 19 1 20
REMARK H PARENT 17 16 2 21
ROOT
ATOM      1  O   UNL     1     -15.066 -43.004  32.883  1.00  0.00    -0.410 OA
ENDROOT
BRANCH   1   2
ATOM      2  C   UNL     1     -13.770 -43.399  32.546  1.00  0.00     0.133 A 
ATOM      3  C   UNL     1      -7.736 -44.016  30.260  1.00  0.00     0.263 C 
ATOM      4  N   UNL     1      -9.242 -44.161  30.142  1.00  0.00    -0.331 N 
ATOM      5  C   UNL     1      -7.393 -44.581  31.624  1.00  0.00     0.072 C 
ATOM      6  C   UNL     1      -9.769 -44.593  31.526  1.00  0.00     0.220 C 
ATOM      7  C   UNL     1      -8.618 -44.273  32.482  1.00  0.00     0.068 C 
ATOM      8  C   UNL     1     -11.148 -44.125  31.895  1.00  0.00     0.023 A 
ATOM      9  C   UNL     1      -8.628 -42.830  32.968  1.00  0.00     0.085 C 
ATOM     10  C   UNL     1     -11.388 -43.206  32.931  1.00  0.00     0.020 A 
ATOM     11  C   UNL     1     -12.249 -44.663  31.191  1.00  0.00     0.015 A 
ATOM     12  S   UNL     1     -10.109 -42.488  33.945  1.00  0.00    -0.125 SA
ATOM     13  C   UNL     1     -12.705 -42.843  33.247  1.00  0.00     0.062 A 
ATOM     14  C   UNL     1     -13.555 -44.291  31.504  1.00  0.00     0.048 A 
ATOM     15  C   UNL     1      -9.884 -42.961  29.506  1.00  0.00     0.333 C 
ATOM     16  H   UNL     1      -9.427 -44.952  29.512  1.00  0.00     0.348 HD
ENDBRANCH   1   2
BRANCH   1  17
ATOM     17  C   UNL     1     -15.133 -41.722  33.415  1.00  0.00     0.412 C 
ATOM     18  N   UNL     1     -14.777 -41.762  34.734  1.00  0.00    -0.324 N 
ATOM     19  O   UNL     1     -15.462 -40.712  32.809  1.00  0.00    -0.224 OA
ATOM     20  C   UNL     1     -14.876 -40.605  35.585  1.00  0.00     0.146 C 
ATOM     21  H   UNL     1     -14.653 -42.676  35.144  1.00  0.00     0.166 HD
ENDBRANCH   1  17
TORSDOF 2
ENDMDL
MODEL 6
REMARK VINA RESULT:    -6.689      6.086     10.987
REMARK INTER + INTRA:          -7.648
REMARK INTER:                  -7.517
REMARK INTRA:                  -0.130
REMARK UNBOUND:                -0.177
REMARK SMILES CNC(=O)Oc1ccc2c(c1)SC[C@@H]1CC[N@H+](C)[C@H]21
REMARK SMILES IDX 5 1 6 2 16 3 17 4 15 5 19 6 14 7 9 8 13 9 10 10 8 11 12 12
REMARK SMILES IDX 11 13 7 14 18 15 3 17 2 18 4 19 1 20
REMARK H PARENT 17 16 2 21
ROOT
ATOM      1  O   UNL     1     -16.614 -43.170  23.110  1.00  0.00    -0.410 OA
ENDROOT
BRANCH   1   2
ATOM      2  C   UNL     1     -17.782 -42.543  23.548  1.00  0.00     0.133 A 
ATOM      3  C   UNL     1     -23.829 -40.811  25.115  1.00  0.00     0.263 C 
ATOM      4  N   UNL     1     -22.674 -40.934  24.139  1.00  0.00    -0.331 N 
ATOM      5  C   UNL     1     -23.218 -40.222  26.372  1.00  0.00     0.072 C 
ATOM      6  C   UNL     1     -21.380 -40.633  24.921  1.00  0.00     0.220 C 
ATOM      7  C   UNL     1     -21.791 -40.761  26.390  1.00  0.00     0.068 C 
ATOM      8  C   UNL     1     -20.138 -41.346  24.468  1.00  0.00     0.023 A 
ATOM      9  C   UNL     1     -21.725 -42.192  26.905  1.00  0.00     0.085 C 
ATOM     10  C   UNL     1     -19.487 -42.315  25.252  1.00  0.00     0.020 A 
ATOM     11  C   UNL     1     -19.586 -40.999  23.213  1.00  0.00     0.015 A 
ATOM     12  S   UNL     1     -20.029 -42.813  26.876  1.00  0.00    -0.125 SA
ATOM     13  C   UNL     1     -18.310 -42.914  24.781  1.00  0.00     0.062 A 
ATOM     14  C   UNL     1     -18.421 -41.605  22.747  1.00  0.00     0.048 A 
ATOM     15  C   UNL     1     -22.721 -42.216  23.357  1.00  0.00     0.333 C 
ATOM     16  H   UNL     1     -22.770 -40.177  23.451  1.00  0.00     0.348 HD
ENDBRANCH   1   2
BRANCH   1  17
ATOM     17  C   UNL     1     -15.461 -42.658  23.691  1.00  0.00     0.412 C 
ATOM     18  N   UNL     1     -15.044 -43.499  24.684  1.00  0.00    -0.324 N 
ATOM     19  O   UNL     1     -14.902 -41.617  23.374  1.00  0.00    -0.224 OA
ATOM     20  C   UNL     1     -13.947 -43.166  25.554  1.00  0.00     0.146 C 
ATOM     21  H   UNL     1     -15.666 -44.256  24.930  1.00  0.00     0.166 HD
ENDBRANCH   1  17
TORSDOF 2
ENDMDL
MODEL 7
REMARK VINA RESULT:    -6.627      9.082     11.298
REMARK INTER + INTRA:          -7.578
REMARK INTER:                  -7.517
REMARK INTRA:                  -0.061
REMARK UNBOUND:                -0.177
REMARK SMILES CNC(=O)Oc1ccc2c(c1)SC[C@@H]1CC[N@H+](C)[C@H]21
REMARK SMILES IDX 5 1 6 2 16 3 17 4 15 5 19 6 14 7 9 8 13 9 10 10 8 11 12 12
REMARK SMILES IDX 11 13 7 14 18 15 3 17 2 18 4 19 1 20
REMARK H PARENT 17 16 2 21
ROOT
ATOM      1  O   UNL     1     -19.683 -39.544  20.012  1.00  0.00    -0.410 OA
ENDROOT
BRANCH   1   2
ATOM      2  C   UNL     1     -19.773 -40.003  21.327  1.00  0.00     0.133 A 
ATOM      3  C   UNL     1     -20.622 -43.335  26.823  1.00  0.00     0.263 C 
ATOM      4  N   UNL     1     -21.124 -42.472  25.680  1.00  0.00    -0.331 N 
ATOM      5  C   UNL     1     -19.359 -42.648  27.306  1.00  0.00     0.072 C 
ATOM      6  C   UNL     1     -20.025 -41.435  25.372  1.00  0.00     0.220 C 
ATOM      7  C   UNL     1     -18.776 -41.999  26.054  1.00  0.00     0.068 C 
ATOM      8  C   UNL     1     -19.909 -40.981  23.945  1.00  0.00     0.023 A 
ATOM      9  C   UNL     1     -18.024 -43.000  25.187  1.00  0.00     0.085 C 
ATOM     10  C   UNL     1     -18.796 -41.278  23.139  1.00  0.00     0.020 A 
ATOM     11  C   UNL     1     -20.952 -40.192  23.406  1.00  0.00     0.015 A 
ATOM     12  S   UNL     1     -17.381 -42.209  23.696  1.00  0.00    -0.125 SA
ATOM     13  C   UNL     1     -18.738 -40.789  21.827  1.00  0.00     0.062 A 
ATOM     14  C   UNL     1     -20.892 -39.717  22.098  1.00  0.00     0.048 A 
ATOM     15  C   UNL     1     -21.638 -43.290  24.529  1.00  0.00     0.333 C 
ATOM     16  H   UNL     1     -21.928 -41.935  26.029  1.00  0.00     0.348 HD
ENDBRANCH   1   2
BRANCH   1  17
ATOM     17  C   UNL     1     -20.869 -39.671  19.300  1.00  0.00     0.412 C 
ATOM     18  N   UNL     1     -21.220 -38.455  18.784  1.00  0.00    -0.324 N 
ATOM     19  O   UNL     1     -21.509 -40.704  19.156  1.00  0.00    -0.224 OA
ATOM     20  C   UNL     1     -22.472 -38.247  18.107  1.00  0.00     0.146 C 
ATOM     21  H   UNL     1     -20.675 -37.660  19.085  1.00  0.00     0.166 HD
ENDBRANCH   1  17
TORSDOF 2
ENDMDL
MODEL 8
REMARK VINA RESULT:    -6.371      9.800     12.201
REMARK INTER + INTRA:          -7.293
REMARK INTER:                  -7.074
REMARK INTRA:                  -0.219
REMARK UNBOUND:                -0.177
REMARK SMILES CNC(=O)Oc1ccc2c(c1)SC[C@@H]1CC[N@H+](C)[C@H]21
REMARK SMILES IDX 5 1 6 2 16 3 17 4 15 5 19 6 14 7 9 8 13 9 10 10 8 11 12 12
REMARK SMILES IDX 11 13 7 14 18 15 3 17 2 18 4 19 1 20
REMARK H PARENT 17 16 2 21
ROOT
ATOM      1  O   UNL     1     -20.699 -42.810  27.553  1.00  0.00    -0.410 OA
ENDROOT
BRANCH   1   2
ATOM      2  C   UNL     1     -20.506 -42.191  26.316  1.00  0.00     0.133 A 
ATOM      3  C   UNL     1     -20.333 -40.433  20.079  1.00  0.00     0.263 C 
ATOM      4  N   UNL     1     -19.804 -41.199  21.277  1.00  0.00    -0.331 N 
ATOM      5  C   UNL     1     -20.552 -39.020  20.584  1.00  0.00     0.072 C 
ATOM      6  C   UNL     1     -19.945 -40.280  22.506  1.00  0.00     0.220 C 
ATOM      7  C   UNL     1     -20.924 -39.194  22.054  1.00  0.00     0.068 C 
ATOM      8  C   UNL     1     -20.195 -40.954  23.825  1.00  0.00     0.023 A 
ATOM      9  C   UNL     1     -22.382 -39.594  22.232  1.00  0.00     0.085 C 
ATOM     10  C   UNL     1     -21.402 -40.819  24.533  1.00  0.00     0.020 A 
ATOM     11  C   UNL     1     -19.155 -41.727  24.391  1.00  0.00     0.015 A 
ATOM     12  S   UNL     1     -22.779 -39.832  23.978  1.00  0.00    -0.125 SA
ATOM     13  C   UNL     1     -21.552 -41.447  25.778  1.00  0.00     0.062 A 
ATOM     14  C   UNL     1     -19.314 -42.356  25.624  1.00  0.00     0.048 A 
ATOM     15  C   UNL     1     -20.395 -42.577  21.379  1.00  0.00     0.333 C 
ATOM     16  H   UNL     1     -18.795 -41.331  21.138  1.00  0.00     0.348 HD
ENDBRANCH   1   2
BRANCH   1  17
ATOM     17  C   UNL     1     -21.470 -43.963  27.480  1.00  0.00     0.412 C 
ATOM     18  N   UNL     1     -22.461 -43.904  28.419  1.00  0.00    -0.324 N 
ATOM     19  O   UNL     1     -21.294 -44.893  26.705  1.00  0.00    -0.224 OA
ATOM     20  C   UNL     1     -23.339 -45.016  28.670  1.00  0.00     0.146 C 
ATOM     21  H   UNL     1     -22.416 -43.142  29.080  1.00  0.00     0.166 HD
ENDBRANCH   1  17
TORSDOF 2
ENDMDL
MODEL 9
REMARK VINA RESULT:    -6.288      5.640     10.676
REMARK INTER + INTRA:          -7.200
REMARK INTER:                  -7.322
REMARK INTRA:                   0.123
REMARK UNBOUND:                -0.177
REMARK SMILES CNC(=O)Oc1ccc2c(c1)SC[C@@H]1CC[N@H+](C)[C@H]21
REMARK SMILES IDX 5 1 6 2 16 3 17 4 15 5 19 6 14 7 9 8 13 9 10 10 8 11 12 12
REMARK SMILES IDX 11 13 7 14 18 15 3 17 2 18 4 19 1 20
REMARK H PARENT 17 16 2 21
ROOT
ATOM      1  O   UNL     1     -16.585 -42.765  27.643  1.00  0.00    -0.410 OA
ENDROOT
BRANCH   1   2
ATOM      2  C   UNL     1     -17.578 -42.463  26.709  1.00  0.00     0.133 A 
ATOM      3  C   UNL     1     -22.729 -42.305  22.776  1.00  0.00     0.263 C 
ATOM      4  N   UNL     1     -21.308 -42.713  23.119  1.00  0.00    -0.331 N 
ATOM      5  C   UNL     1     -22.802 -40.827  23.111  1.00  0.00     0.072 C 
ATOM      6  C   UNL     1     -20.657 -41.528  23.859  1.00  0.00     0.220 C 
ATOM      7  C   UNL     1     -21.840 -40.654  24.283  1.00  0.00     0.068 C 
ATOM      8  C   UNL     1     -19.620 -41.867  24.892  1.00  0.00     0.023 A 
ATOM      9  C   UNL     1     -22.460 -41.089  25.603  1.00  0.00     0.085 C 
ATOM     10  C   UNL     1     -19.811 -41.638  26.266  1.00  0.00     0.020 A 
ATOM     11  C   UNL     1     -18.389 -42.407  24.454  1.00  0.00     0.015 A 
ATOM     12  S   UNL     1     -21.283 -40.910  26.961  1.00  0.00    -0.125 SA
ATOM     13  C   UNL     1     -18.785 -41.945  27.171  1.00  0.00     0.062 A 
ATOM     14  C   UNL     1     -17.377 -42.718  25.359  1.00  0.00     0.048 A 
ATOM     15  C   UNL     1     -21.246 -44.058  23.787  1.00  0.00     0.333 C 
ATOM     16  H   UNL     1     -20.794 -42.811  22.235  1.00  0.00     0.348 HD
ENDBRANCH   1   2
BRANCH   1  17
ATOM     17  C   UNL     1     -15.320 -42.890  27.083  1.00  0.00     0.412 C 
ATOM     18  N   UNL     1     -14.878 -44.173  27.247  1.00  0.00    -0.324 N 
ATOM     19  O   UNL     1     -14.690 -41.997  26.533  1.00  0.00    -0.224 OA
ATOM     20  C   UNL     1     -13.543 -44.570  26.884  1.00  0.00     0.146 C 
ATOM     21  H   UNL     1     -15.439 -44.776  27.831  1.00  0.00     0.166 HD
ENDBRANCH   1  17
TORSDOF 2
ENDMDL
