MODEL 1
REMARK VINA RESULT:    -9.715      0.000      0.000
REMARK INTER + INTRA:          -9.999
REMARK INTER:                  -9.999
REMARK INTRA:                   0.000
REMARK UNBOUND:                 0.000
REMARK SMILES CC1=C[C@@H]2Cc3[nH]c4cc(Cl)ccc4c(=N)c3[C@H](C1)C2
REMARK SMILES IDX 7 1 6 2 17 3 15 4 14 5 13 6 12 7 10 8 11 9 9 10 8 11 18 12
REMARK SMILES IDX 19 13 2 14 1 15 3 16 4 17 5 18 20 19 16 21
REMARK H PARENT 7 20 16 22
ROOT
ATOM      1  N   UNL     1     -13.462 -45.067  26.829  1.00  0.00    -0.358 N 
ATOM      2  C   UNL     1     -13.109 -45.348  28.130  1.00  0.00     0.021 A 
ATOM      3  C   UNL     1     -13.797 -44.883  29.194  1.00  0.00     0.000 A 
ATOM      4  C   UNL     1     -14.993 -44.006  28.956  1.00  0.00     0.068 A 
ATOM      5  C   UNL     1     -15.309 -43.642  27.537  1.00  0.00     0.023 A 
ATOM      6  C   UNL     1     -16.364 -42.780  27.204  1.00  0.00     0.014 A 
ATOM      7  C   UNL     1     -16.627 -42.475  25.866  1.00  0.00     0.021 A 
ATOM      8  C   UNL     1     -15.841 -43.031  24.861  1.00  0.00     0.043 A 
ATOM      9  Cl  UNL     1     -16.174 -42.662  23.214  1.00  0.00    -0.084 Cl
ATOM     10  C   UNL     1     -14.787 -43.885  25.179  1.00  0.00     0.047 A 
ATOM     11  C   UNL     1     -14.503 -44.184  26.518  1.00  0.00     0.049 A 
ATOM     12  C   UNL     1     -13.431 -45.217  30.632  1.00  0.00     0.028 C 
ATOM     13  C   UNL     1     -12.607 -44.075  31.272  1.00  0.00     0.039 C 
ATOM     14  C   UNL     1     -11.142 -44.080  30.869  1.00  0.00    -0.076 C 
ATOM     15  C   UNL     1     -10.344 -42.877  31.279  1.00  0.00     0.039 C 
ATOM     16  C   UNL     1     -10.604 -45.100  30.175  1.00  0.00    -0.024 C 
ATOM     17  C   UNL     1     -11.393 -46.331  29.776  1.00  0.00     0.018 C 
ATOM     18  C   UNL     1     -11.875 -46.221  28.315  1.00  0.00     0.062 C 
ATOM     19  C   UNL     1     -12.610 -46.512  30.688  1.00  0.00     0.017 C 
ATOM     20  H   UNL     1     -12.807 -45.319  26.098  1.00  0.00     0.166 HD
ENDROOT
BRANCH   4  21
ATOM     21  N   UNL     1     -15.690 -43.604  29.976  1.00  0.00    -0.300 NA
ATOM     22  H   UNL     1     -15.963 -44.360  30.599  1.00  0.00     0.188 HD
ENDBRANCH   4  21
TORSDOF 1
ENDMDL
MODEL 2
REMARK VINA RESULT:    -9.526      2.033      3.155
REMARK INTER + INTRA:          -9.804
REMARK INTER:                  -9.804
REMARK INTRA:                   0.000
REMARK UNBOUND:                 0.000
REMARK SMILES CC1=C[C@@H]2Cc3[nH]c4cc(Cl)ccc4c(=N)c3[C@H](C1)C2
REMARK SMILES IDX 7 1 6 2 17 3 15 4 14 5 13 6 12 7 10 8 11 9 9 10 8 11 18 12
REMARK SMILES IDX 19 13 2 14 1 15 3 16 4 17 5 18 20 19 16 21
REMARK H PARENT 7 20 16 22
ROOT
ATOM      1  N   UNL     1     -10.758 -43.231  27.874  1.00  0.00    -0.358 N 
ATOM      2  C   UNL     1     -10.131 -43.854  28.930  1.00  0.00     0.021 A 
ATOM      3  C   UNL     1     -10.723 -44.815  29.672  1.00  0.00     0.000 A 
ATOM      4  C   UNL     1     -12.133 -45.216  29.345  1.00  0.00     0.068 A 
ATOM      5  C   UNL     1     -12.826 -44.466  28.249  1.00  0.00     0.023 A 
ATOM      6  C   UNL     1     -14.163 -44.715  27.903  1.00  0.00     0.014 A 
ATOM      7  C   UNL     1     -14.766 -43.996  26.867  1.00  0.00     0.021 A 
ATOM      8  C   UNL     1     -14.038 -43.033  26.175  1.00  0.00     0.043 A 
ATOM      9  Cl  UNL     1     -14.780 -42.158  24.894  1.00  0.00    -0.084 Cl
ATOM     10  C   UNL     1     -12.711 -42.774  26.513  1.00  0.00     0.047 A 
ATOM     11  C   UNL     1     -12.101 -43.475  27.561  1.00  0.00     0.049 A 
ATOM     12  C   UNL     1     -10.024 -45.529  30.818  1.00  0.00     0.028 C 
ATOM     13  C   UNL     1     -10.418 -44.908  32.178  1.00  0.00     0.039 C 
ATOM     14  C   UNL     1      -9.681 -43.618  32.497  1.00  0.00    -0.076 C 
ATOM     15  C   UNL     1     -10.176 -42.857  33.691  1.00  0.00     0.039 C 
ATOM     16  C   UNL     1      -8.656 -43.185  31.740  1.00  0.00    -0.024 C 
ATOM     17  C   UNL     1      -8.131 -43.957  30.545  1.00  0.00     0.018 C 
ATOM     18  C   UNL     1      -8.712 -43.393  29.233  1.00  0.00     0.062 C 
ATOM     19  C   UNL     1      -8.501 -45.439  30.655  1.00  0.00     0.017 C 
ATOM     20  H   UNL     1     -10.308 -42.416  27.474  1.00  0.00     0.166 HD
ENDROOT
BRANCH   4  21
ATOM     21  N   UNL     1     -12.685 -46.180  30.021  1.00  0.00    -0.300 NA
ATOM     22  H   UNL     1     -13.223 -45.853  30.820  1.00  0.00     0.188 HD
ENDBRANCH   4  21
TORSDOF 1
ENDMDL
MODEL 3
REMARK VINA RESULT:    -8.933      1.835      2.765
REMARK INTER + INTRA:          -9.194
REMARK INTER:                  -9.194
REMARK INTRA:                   0.000
REMARK UNBOUND:                 0.000
REMARK SMILES CC1=C[C@@H]2Cc3[nH]c4cc(Cl)ccc4c(=N)c3[C@H](C1)C2
REMARK SMILES IDX 7 1 6 2 17 3 15 4 14 5 13 6 12 7 10 8 11 9 9 10 8 11 18 12
REMARK SMILES IDX 19 13 2 14 1 15 3 16 4 17 5 18 20 19 16 21
REMARK H PARENT 7 20 16 22
ROOT
ATOM      1  N   UNL     1     -12.362 -42.732  27.541  1.00  0.00    -0.358 N 
ATOM      2  C   UNL     1     -11.845 -43.582  28.493  1.00  0.00     0.021 A 
ATOM      3  C   UNL     1     -12.038 -44.918  28.468  1.00  0.00     0.000 A 
ATOM      4  C   UNL     1     -12.865 -45.509  27.362  1.00  0.00     0.068 A 
ATOM      5  C   UNL     1     -13.489 -44.559  26.386  1.00  0.00     0.023 A 
ATOM      6  C   UNL     1     -14.331 -44.996  25.352  1.00  0.00     0.014 A 
ATOM      7  C   UNL     1     -14.885 -44.074  24.459  1.00  0.00     0.021 A 
ATOM      8  C   UNL     1     -14.598 -42.719  24.595  1.00  0.00     0.043 A 
ATOM      9  Cl  UNL     1     -15.272 -41.588  23.488  1.00  0.00    -0.084 Cl
ATOM     10  C   UNL     1     -13.767 -42.272  25.620  1.00  0.00     0.047 A 
ATOM     11  C   UNL     1     -13.221 -43.185  26.532  1.00  0.00     0.049 A 
ATOM     12  C   UNL     1     -11.442 -45.865  29.498  1.00  0.00     0.028 C 
ATOM     13  C   UNL     1     -12.481 -46.219  30.588  1.00  0.00     0.039 C 
ATOM     14  C   UNL     1     -12.653 -45.136  31.642  1.00  0.00    -0.076 C 
ATOM     15  C   UNL     1     -13.796 -45.324  32.595  1.00  0.00     0.039 C 
ATOM     16  C   UNL     1     -11.832 -44.070  31.700  1.00  0.00    -0.024 C 
ATOM     17  C   UNL     1     -10.660 -43.882  30.758  1.00  0.00     0.018 C 
ATOM     18  C   UNL     1     -11.035 -42.928  29.605  1.00  0.00     0.062 C 
ATOM     19  C   UNL     1     -10.218 -45.225  30.168  1.00  0.00     0.017 C 
ATOM     20  H   UNL     1     -12.307 -41.736  27.719  1.00  0.00     0.166 HD
ENDROOT
BRANCH   4  21
ATOM     21  N   UNL     1     -13.005 -46.799  27.303  1.00  0.00    -0.300 NA
ATOM     22  H   UNL     1     -12.204 -47.307  27.671  1.00  0.00     0.188 HD
ENDBRANCH   4  21
TORSDOF 1
ENDMDL
MODEL 4
REMARK VINA RESULT:    -8.828      1.459      2.047
REMARK INTER + INTRA:          -9.086
REMARK INTER:                  -9.086
REMARK INTRA:                   0.000
REMARK UNBOUND:                 0.000
REMARK SMILES CC1=C[C@@H]2Cc3[nH]c4cc(Cl)ccc4c(=N)c3[C@H](C1)C2
REMARK SMILES IDX 7 1 6 2 17 3 15 4 14 5 13 6 12 7 10 8 11 9 9 10 8 11 18 12
REMARK SMILES IDX 19 13 2 14 1 15 3 16 4 17 5 18 20 19 16 21
REMARK H PARENT 7 20 16 22
ROOT
ATOM      1  N   UNL     1     -11.895 -45.334  27.632  1.00  0.00    -0.358 N 
ATOM      2  C   UNL     1     -11.324 -45.705  28.830  1.00  0.00     0.021 A 
ATOM      3  C   UNL     1     -11.955 -45.572  30.016  1.00  0.00     0.000 A 
ATOM      4  C   UNL     1     -13.336 -44.980  30.039  1.00  0.00     0.068 A 
ATOM      5  C   UNL     1     -13.904 -44.504  28.736  1.00  0.00     0.023 A 
ATOM      6  C   UNL     1     -15.157 -43.879  28.651  1.00  0.00     0.014 A 
ATOM      7  C   UNL     1     -15.650 -43.460  27.413  1.00  0.00     0.021 A 
ATOM      8  C   UNL     1     -14.897 -43.665  26.261  1.00  0.00     0.043 A 
ATOM      9  Cl  UNL     1     -15.512 -43.157  24.737  1.00  0.00    -0.084 Cl
ATOM     10  C   UNL     1     -13.649 -44.280  26.333  1.00  0.00     0.047 A 
ATOM     11  C   UNL     1     -13.136 -44.689  27.571  1.00  0.00     0.049 A 
ATOM     12  C   UNL     1     -11.343 -46.009  31.338  1.00  0.00     0.028 C 
ATOM     13  C   UNL     1     -10.716 -44.806  32.080  1.00  0.00     0.039 C 
ATOM     14  C   UNL     1      -9.350 -44.405  31.549  1.00  0.00    -0.076 C 
ATOM     15  C   UNL     1      -8.791 -43.118  32.079  1.00  0.00     0.039 C 
ATOM     16  C   UNL     1      -8.694 -45.160  30.647  1.00  0.00    -0.024 C 
ATOM     17  C   UNL     1      -9.237 -46.474  30.122  1.00  0.00     0.018 C 
ATOM     18  C   UNL     1      -9.915 -46.276  28.751  1.00  0.00     0.062 C 
ATOM     19  C   UNL     1     -10.257 -47.066  31.100  1.00  0.00     0.017 C 
ATOM     20  H   UNL     1     -11.300 -45.317  26.812  1.00  0.00     0.166 HD
ENDROOT
BRANCH   4  21
ATOM     21  N   UNL     1     -13.968 -44.903  31.172  1.00  0.00    -0.300 NA
ATOM     22  H   UNL     1     -13.667 -45.602  31.847  1.00  0.00     0.188 HD
ENDBRANCH   4  21
TORSDOF 1
ENDMDL
MODEL 5
REMARK VINA RESULT:    -8.735      4.085      7.116
REMARK INTER + INTRA:          -8.990
REMARK INTER:                  -8.990
REMARK INTRA:                   0.000
REMARK UNBOUND:                 0.000
REMARK SMILES CC1=C[C@@H]2Cc3[nH]c4cc(Cl)ccc4c(=N)c3[C@H](C1)C2
REMARK SMILES IDX 7 1 6 2 17 3 15 4 14 5 13 6 12 7 10 8 11 9 9 10 8 11 18 12
REMARK SMILES IDX 19 13 2 14 1 15 3 16 4 17 5 18 20 19 16 21
REMARK H PARENT 7 20 16 22
ROOT
ATOM      1  N   UNL     1     -11.938 -43.724  32.469  1.00  0.00    -0.358 N 
ATOM      2  C   UNL     1     -12.257 -44.483  31.366  1.00  0.00     0.021 A 
ATOM      3  C   UNL     1     -11.327 -45.088  30.596  1.00  0.00     0.000 A 
ATOM      4  C   UNL     1      -9.876 -44.917  30.945  1.00  0.00     0.068 A 
ATOM      5  C   UNL     1      -9.547 -44.017  32.098  1.00  0.00     0.023 A 
ATOM      6  C   UNL     1      -8.224 -43.736  32.471  1.00  0.00     0.014 A 
ATOM      7  C   UNL     1      -7.964 -42.897  33.559  1.00  0.00     0.021 A 
ATOM      8  C   UNL     1      -9.021 -42.341  34.274  1.00  0.00     0.043 A 
ATOM      9  Cl  UNL     1      -8.698 -41.318  35.619  1.00  0.00    -0.084 Cl
ATOM     10  C   UNL     1     -10.338 -42.609  33.910  1.00  0.00     0.047 A 
ATOM     11  C   UNL     1     -10.611 -43.434  32.811  1.00  0.00     0.049 A 
ATOM     12  C   UNL     1     -11.675 -45.954  29.396  1.00  0.00     0.028 C 
ATOM     13  C   UNL     1     -11.548 -45.152  28.080  1.00  0.00     0.039 C 
ATOM     14  C   UNL     1     -12.734 -44.243  27.802  1.00  0.00    -0.076 C 
ATOM     15  C   UNL     1     -12.571 -43.281  26.662  1.00  0.00     0.039 C 
ATOM     16  C   UNL     1     -13.853 -44.295  28.548  1.00  0.00    -0.024 C 
ATOM     17  C   UNL     1     -14.039 -45.277  29.687  1.00  0.00     0.018 C 
ATOM     18  C   UNL     1     -13.740 -44.604  31.043  1.00  0.00     0.062 C 
ATOM     19  C   UNL     1     -13.111 -46.484  29.517  1.00  0.00     0.017 C 
ATOM     20  H   UNL     1     -12.678 -43.177  32.895  1.00  0.00     0.166 HD
ENDROOT
BRANCH   4  21
ATOM     21  N   UNL     1      -8.982 -45.543  30.241  1.00  0.00    -0.300 NA
ATOM     22  H   UNL     1      -8.054 -45.131  30.312  1.00  0.00     0.188 HD
ENDBRANCH   4  21
TORSDOF 1
ENDMDL
MODEL 6
REMARK VINA RESULT:    -8.431      6.000     10.686
REMARK INTER + INTRA:          -8.678
REMARK INTER:                  -8.678
REMARK INTRA:                   0.000
REMARK UNBOUND:                 0.000
REMARK SMILES CC1=C[C@@H]2Cc3[nH]c4cc(Cl)ccc4c(=N)c3[C@H](C1)C2
REMARK SMILES IDX 7 1 6 2 17 3 15 4 14 5 13 6 12 7 10 8 11 9 9 10 8 11 18 12
REMARK SMILES IDX 19 13 2 14 1 15 3 16 4 17 5 18 20 19 16 21
REMARK H PARENT 7 20 16 22
ROOT
ATOM      1  N   UNL     1     -17.980 -40.900  21.782  1.00  0.00    -0.358 N 
ATOM      2  C   UNL     1     -19.236 -40.391  21.533  1.00  0.00     0.021 A 
ATOM      3  C   UNL     1     -20.233 -40.420  22.443  1.00  0.00     0.000 A 
ATOM      4  C   UNL     1     -19.972 -41.047  23.783  1.00  0.00     0.068 A 
ATOM      5  C   UNL     1     -18.628 -41.671  24.002  1.00  0.00     0.023 A 
ATOM      6  C   UNL     1     -18.299 -42.339  25.191  1.00  0.00     0.014 A 
ATOM      7  C   UNL     1     -17.028 -42.899  25.354  1.00  0.00     0.021 A 
ATOM      8  C   UNL     1     -16.087 -42.791  24.335  1.00  0.00     0.043 A 
ATOM      9  Cl  UNL     1     -14.521 -43.473  24.543  1.00  0.00    -0.084 Cl
ATOM     10  C   UNL     1     -16.404 -42.135  23.147  1.00  0.00     0.047 A 
ATOM     11  C   UNL     1     -17.679 -41.585  22.965  1.00  0.00     0.049 A 
ATOM     12  C   UNL     1     -21.611 -39.830  22.186  1.00  0.00     0.028 C 
ATOM     13  C   UNL     1     -22.612 -40.930  21.764  1.00  0.00     0.039 C 
ATOM     14  C   UNL     1     -22.487 -41.342  20.306  1.00  0.00    -0.076 C 
ATOM     15  C   UNL     1     -23.275 -42.551  19.896  1.00  0.00     0.039 C 
ATOM     16  C   UNL     1     -21.703 -40.666  19.446  1.00  0.00    -0.024 C 
ATOM     17  C   UNL     1     -20.920 -39.430  19.843  1.00  0.00     0.018 C 
ATOM     18  C   UNL     1     -19.452 -39.789  20.152  1.00  0.00     0.062 C 
ATOM     19  C   UNL     1     -21.541 -38.771  21.078  1.00  0.00     0.017 C 
ATOM     20  H   UNL     1     -17.343 -40.984  20.999  1.00  0.00     0.166 HD
ENDROOT
BRANCH   4  21
ATOM     21  N   UNL     1     -20.912 -41.025  24.681  1.00  0.00    -0.300 NA
ATOM     22  H   UNL     1     -21.761 -41.500  24.384  1.00  0.00     0.188 HD
ENDBRANCH   4  21
TORSDOF 1
ENDMDL
MODEL 7
REMARK VINA RESULT:    -8.341      4.547      8.977
REMARK INTER + INTRA:          -8.584
REMARK INTER:                  -8.584
REMARK INTRA:                   0.000
REMARK UNBOUND:                 0.000
REMARK SMILES CC1=C[C@@H]2Cc3[nH]c4cc(Cl)ccc4c(=N)c3[C@H](C1)C2
REMARK SMILES IDX 7 1 6 2 17 3 15 4 14 5 13 6 12 7 10 8 11 9 9 10 8 11 18 12
REMARK SMILES IDX 19 13 2 14 1 15 3 16 4 17 5 18 20 19 16 21
REMARK H PARENT 7 20 16 22
ROOT
ATOM      1  N   UNL     1     -17.943 -42.225  23.944  1.00  0.00    -0.358 N 
ATOM      2  C   UNL     1     -19.255 -41.816  23.857  1.00  0.00     0.021 A 
ATOM      3  C   UNL     1     -20.014 -41.545  24.941  1.00  0.00     0.000 A 
ATOM      4  C   UNL     1     -19.410 -41.710  26.306  1.00  0.00     0.068 A 
ATOM      5  C   UNL     1     -18.010 -42.239  26.381  1.00  0.00     0.023 A 
ATOM      6  C   UNL     1     -17.371 -42.491  27.605  1.00  0.00     0.014 A 
ATOM      7  C   UNL     1     -16.060 -42.976  27.626  1.00  0.00     0.021 A 
ATOM      8  C   UNL     1     -15.386 -43.207  26.430  1.00  0.00     0.043 A 
ATOM      9  Cl  UNL     1     -13.770 -43.794  26.460  1.00  0.00    -0.084 Cl
ATOM     10  C   UNL     1     -16.012 -42.965  25.209  1.00  0.00     0.047 A 
ATOM     11  C   UNL     1     -17.331 -42.496  25.174  1.00  0.00     0.049 A 
ATOM     12  C   UNL     1     -21.453 -41.062  24.850  1.00  0.00     0.028 C 
ATOM     13  C   UNL     1     -22.443 -42.233  25.045  1.00  0.00     0.039 C 
ATOM     14  C   UNL     1     -22.624 -43.093  23.805  1.00  0.00    -0.076 C 
ATOM     15  C   UNL     1     -23.396 -44.364  23.995  1.00  0.00     0.039 C 
ATOM     16  C   UNL     1     -22.107 -42.733  22.615  1.00  0.00    -0.024 C 
ATOM     17  C   UNL     1     -21.346 -41.439  22.405  1.00  0.00     0.018 C 
ATOM     18  C   UNL     1     -19.824 -41.688  22.451  1.00  0.00     0.062 C 
ATOM     19  C   UNL     1     -21.714 -40.415  23.482  1.00  0.00     0.017 C 
ATOM     20  H   UNL     1     -17.497 -42.560  23.098  1.00  0.00     0.166 HD
ENDROOT
BRANCH   4  21
ATOM     21  N   UNL     1     -20.119 -41.396  27.349  1.00  0.00    -0.300 NA
ATOM     22  H   UNL     1     -19.846 -40.510  27.767  1.00  0.00     0.188 HD
ENDBRANCH   4  21
TORSDOF 1
ENDMDL
MODEL 8
REMARK VINA RESULT:    -8.261      5.017      9.685
REMARK INTER + INTRA:          -8.503
REMARK INTER:                  -8.503
REMARK INTRA:                   0.000
REMARK UNBOUND:                 0.000
REMARK SMILES CC1=C[C@@H]2Cc3[nH]c4cc(Cl)ccc4c(=N)c3[C@H](C1)C2
REMARK SMILES IDX 7 1 6 2 17 3 15 4 14 5 13 6 12 7 10 8 11 9 9 10 8 11 18 12
REMARK SMILES IDX 19 13 2 14 1 15 3 16 4 17 5 18 20 19 16 21
REMARK H PARENT 7 20 16 22
ROOT
ATOM      1  N   UNL     1     -20.265 -42.071  25.782  1.00  0.00    -0.358 N 
ATOM      2  C   UNL     1     -20.664 -42.038  24.464  1.00  0.00     0.021 A 
ATOM      3  C   UNL     1     -19.827 -42.300  23.437  1.00  0.00     0.000 A 
ATOM      4  C   UNL     1     -18.393 -42.628  23.737  1.00  0.00     0.068 A 
ATOM      5  C   UNL     1     -17.959 -42.574  25.171  1.00  0.00     0.023 A 
ATOM      6  C   UNL     1     -16.630 -42.801  25.558  1.00  0.00     0.014 A 
ATOM      7  C   UNL     1     -16.273 -42.749  26.909  1.00  0.00     0.021 A 
ATOM      8  C   UNL     1     -17.239 -42.474  27.871  1.00  0.00     0.043 A 
ATOM      9  Cl  UNL     1     -16.799 -42.421  29.533  1.00  0.00    -0.084 Cl
ATOM     10  C   UNL     1     -18.562 -42.242  27.499  1.00  0.00     0.047 A 
ATOM     11  C   UNL     1     -18.928 -42.274  26.147  1.00  0.00     0.049 A 
ATOM     12  C   UNL     1     -20.270 -42.297  21.982  1.00  0.00     0.028 C 
ATOM     13  C   UNL     1     -19.916 -40.955  21.300  1.00  0.00     0.039 C 
ATOM     14  C   UNL     1     -20.885 -39.830  21.626  1.00  0.00    -0.076 C 
ATOM     15  C   UNL     1     -20.475 -38.459  21.175  1.00  0.00     0.039 C 
ATOM     16  C   UNL     1     -22.033 -40.057  22.291  1.00  0.00    -0.024 C 
ATOM     17  C   UNL     1     -22.469 -41.441  22.731  1.00  0.00     0.018 C 
ATOM     18  C   UNL     1     -22.121 -41.676  24.215  1.00  0.00     0.062 C 
ATOM     19  C   UNL     1     -21.786 -42.518  21.884  1.00  0.00     0.017 C 
ATOM     20  H   UNL     1     -20.906 -41.709  26.478  1.00  0.00     0.166 HD
ENDROOT
BRANCH   4  21
ATOM     21  N   UNL     1     -17.599 -42.936  22.755  1.00  0.00    -0.300 NA
ATOM     22  H   UNL     1     -16.654 -43.157  23.057  1.00  0.00     0.188 HD
ENDBRANCH   4  21
TORSDOF 1
ENDMDL
MODEL 9
REMARK VINA RESULT:    -8.223      4.705      5.751
REMARK INTER + INTRA:          -8.463
REMARK INTER:                  -8.463
REMARK INTRA:                   0.000
REMARK UNBOUND:                 0.000
REMARK SMILES CC1=C[C@@H]2Cc3[nH]c4cc(Cl)ccc4c(=N)c3[C@H](C1)C2
REMARK SMILES IDX 7 1 6 2 17 3 15 4 14 5 13 6 12 7 10 8 11 9 9 10 8 11 18 12
REMARK SMILES IDX 19 13 2 14 1 15 3 16 4 17 5 18 20 19 16 21
REMARK H PARENT 7 20 16 22
ROOT
ATOM      1  N   UNL     1     -11.960 -42.445  31.386  1.00  0.00    -0.358 N 
ATOM      2  C   UNL     1     -11.278 -43.349  30.602  1.00  0.00     0.021 A 
ATOM      3  C   UNL     1     -11.554 -44.671  30.595  1.00  0.00     0.000 A 
ATOM      4  C   UNL     1     -12.643 -45.187  31.491  1.00  0.00     0.068 A 
ATOM      5  C   UNL     1     -13.314 -44.201  32.398  1.00  0.00     0.023 A 
ATOM      6  C   UNL     1     -14.301 -44.585  33.320  1.00  0.00     0.014 A 
ATOM      7  C   UNL     1     -14.906 -43.629  34.141  1.00  0.00     0.021 A 
ATOM      8  C   UNL     1     -14.531 -42.292  34.041  1.00  0.00     0.043 A 
ATOM      9  Cl  UNL     1     -15.285 -41.116  35.045  1.00  0.00    -0.084 Cl
ATOM     10  C   UNL     1     -13.550 -41.900  33.133  1.00  0.00     0.047 A 
ATOM     11  C   UNL     1     -12.923 -42.851  32.318  1.00  0.00     0.049 A 
ATOM     12  C   UNL     1     -10.825 -45.668  29.708  1.00  0.00     0.028 C 
ATOM     13  C   UNL     1      -9.709 -46.394  30.494  1.00  0.00     0.039 C 
ATOM     14  C   UNL     1      -8.442 -45.571  30.656  1.00  0.00    -0.076 C 
ATOM     15  C   UNL     1      -7.410 -46.130  31.591  1.00  0.00     0.039 C 
ATOM     16  C   UNL     1      -8.270 -44.405  30.005  1.00  0.00    -0.024 C 
ATOM     17  C   UNL     1      -9.294 -43.841  29.040  1.00  0.00     0.018 C 
ATOM     18  C   UNL     1     -10.168 -42.776  29.732  1.00  0.00     0.062 C 
ATOM     19  C   UNL     1     -10.199 -44.954  28.503  1.00  0.00     0.017 C 
ATOM     20  H   UNL     1     -11.589 -41.505  31.453  1.00  0.00     0.166 HD
ENDROOT
BRANCH   4  21
ATOM     21  N   UNL     1     -12.950 -46.449  31.445  1.00  0.00    -0.300 NA
ATOM     22  H   UNL     1     -12.390 -47.021  32.073  1.00  0.00     0.188 HD
ENDBRANCH   4  21
TORSDOF 1
ENDMDL
