MODEL 1
REMARK VINA RESULT:   -12.731      0.000      0.000
REMARK INTER + INTRA:         -17.501
REMARK INTER:                 -16.452
REMARK INTRA:                  -1.049
REMARK UNBOUND:                -1.049
REMARK SMILES COc1ccccc1C(=O)Nc1ccc2c(c1)CN(C(=O)c1cccc(Cl)c1)C(=O)C2
REMARK SMILES IDX 12 1 13 2 14 3 15 4 16 5 17 6 18 7 19 8 29 9 30 10 31 11
REMARK SMILES IDX 11 12 9 13 10 14 8 16 3 17 4 18 5 19 7 20 6 21 2 22 1 23
REMARK SMILES IDX 20 24 21 25 22 26 23 27 28 28 24 29 26 30 25 31 27 32
REMARK H PARENT 11 15
ROOT
ATOM      1  C   UNL     1     -13.288 -44.932  27.435  1.00  0.00     0.041 A 
ATOM      2  C   UNL     1     -13.026 -46.301  27.363  1.00  0.00     0.026 A 
ATOM      3  C   UNL     1     -11.824 -46.824  27.854  1.00  0.00     0.007 A 
ATOM      4  C   UNL     1     -10.876 -45.981  28.439  1.00  0.00    -0.033 A 
ATOM      5  C   UNL     1     -11.128 -44.610  28.514  1.00  0.00    -0.022 A 
ATOM      6  C   UNL     1     -12.327 -44.090  28.008  1.00  0.00     0.032 A 
ATOM      7  C   UNL     1     -10.061 -43.730  29.099  1.00  0.00     0.164 C 
ATOM      8  N   UNL     1      -9.389 -44.372  30.218  1.00  0.00    -0.274 N 
ATOM      9  C   UNL     1      -8.908 -45.669  30.033  1.00  0.00     0.234 C 
ATOM     10  O   UNL     1      -7.997 -46.164  30.702  1.00  0.00    -0.274 OA
ATOM     11  C   UNL     1      -9.557 -46.506  28.936  1.00  0.00     0.136 C 
ENDROOT
BRANCH   1  12
ATOM     12  N   UNL     1     -14.467 -44.327  26.960  1.00  0.00    -0.322 N 
ATOM     13  C   UNL     1     -14.638 -43.544  25.836  1.00  0.00     0.259 C 
ATOM     14  O   UNL     1     -13.746 -43.243  25.046  1.00  0.00    -0.269 OA
ATOM     15  H   UNL     1     -15.306 -44.488  27.508  1.00  0.00     0.170 HD
BRANCH  13  16
ATOM     16  C   UNL     1     -16.032 -43.027  25.575  1.00  0.00     0.082 A 
ATOM     17  C   UNL     1     -16.921 -42.549  26.565  1.00  0.00     0.131 A 
ATOM     18  C   UNL     1     -18.192 -42.095  26.177  1.00  0.00     0.047 A 
ATOM     19  C   UNL     1     -18.587 -42.112  24.836  1.00  0.00     0.004 A 
ATOM     20  C   UNL     1     -16.450 -43.035  24.229  1.00  0.00     0.018 A 
ATOM     21  C   UNL     1     -17.716 -42.582  23.862  1.00  0.00     0.001 A 
BRANCH  17  22
ATOM     22  O   UNL     1     -16.493 -42.550  27.869  1.00  0.00    -0.496 OA
ATOM     23  C   UNL     1     -17.460 -42.783  28.890  1.00  0.00     0.278 C 
ENDBRANCH  17  22
ENDBRANCH  13  16
ENDBRANCH   1  12
BRANCH   8  24
ATOM     24  C   UNL     1      -8.766 -43.496  31.109  1.00  0.00     0.260 C 
ATOM     25  O   UNL     1      -7.619 -43.081  30.943  1.00  0.00    -0.269 OA
BRANCH  24  26
ATOM     26  C   UNL     1      -9.524 -43.021  32.299  1.00  0.00     0.041 A 
ATOM     27  C   UNL     1      -8.871 -42.683  33.494  1.00  0.00     0.014 A 
ATOM     28  C   UNL     1     -10.922 -42.986  32.232  1.00  0.00     0.034 A 
ATOM     29  C   UNL     1      -9.613 -42.278  34.604  1.00  0.00     0.002 A 
ATOM     30  C   UNL     1     -11.653 -42.580  33.346  1.00  0.00     0.041 A 
ATOM     31  C   UNL     1     -11.007 -42.224  34.529  1.00  0.00     0.020 A 
ATOM     32  Cl  UNL     1     -13.371 -42.525  33.265  1.00  0.00    -0.084 Cl
ENDBRANCH  24  26
ENDBRANCH   8  24
TORSDOF 5
ENDMDL
MODEL 2
REMARK VINA RESULT:   -11.618      1.263      2.144
REMARK INTER + INTRA:         -16.064
REMARK INTER:                 -15.616
REMARK INTRA:                  -0.448
REMARK UNBOUND:                -1.049
REMARK SMILES COc1ccccc1C(=O)Nc1ccc2c(c1)CN(C(=O)c1cccc(Cl)c1)C(=O)C2
REMARK SMILES IDX 12 1 13 2 14 3 15 4 16 5 17 6 18 7 19 8 29 9 30 10 31 11
REMARK SMILES IDX 11 12 9 13 10 14 8 16 3 17 4 18 5 19 7 20 6 21 2 22 1 23
REMARK SMILES IDX 20 24 21 25 22 26 23 27 28 28 24 29 26 30 25 31 27 32
REMARK H PARENT 11 15
ROOT
ATOM      1  C   UNL     1     -13.614 -44.848  27.442  1.00  0.00     0.041 A 
ATOM      2  C   UNL     1     -13.333 -46.202  27.257  1.00  0.00     0.026 A 
ATOM      3  C   UNL     1     -12.101 -46.735  27.654  1.00  0.00     0.007 A 
ATOM      4  C   UNL     1     -11.142 -45.920  28.256  1.00  0.00    -0.033 A 
ATOM      5  C   UNL     1     -11.412 -44.563  28.445  1.00  0.00    -0.022 A 
ATOM      6  C   UNL     1     -12.642 -44.031  28.033  1.00  0.00     0.032 A 
ATOM      7  C   UNL     1     -10.334 -43.707  29.045  1.00  0.00     0.164 C 
ATOM      8  N   UNL     1      -9.601 -44.416  30.082  1.00  0.00    -0.274 N 
ATOM      9  C   UNL     1      -9.108 -45.686  29.779  1.00  0.00     0.234 C 
ATOM     10  O   UNL     1      -8.159 -46.211  30.369  1.00  0.00    -0.274 OA
ATOM     11  C   UNL     1      -9.793 -46.453  28.654  1.00  0.00     0.136 C 
ENDROOT
BRANCH   1  12
ATOM     12  N   UNL     1     -14.824 -44.233  27.066  1.00  0.00    -0.322 N 
ATOM     13  C   UNL     1     -15.039 -43.293  26.078  1.00  0.00     0.259 C 
ATOM     14  O   UNL     1     -14.168 -42.830  25.346  1.00  0.00    -0.269 OA
ATOM     15  H   UNL     1     -15.650 -44.517  27.582  1.00  0.00     0.170 HD
BRANCH  13  16
ATOM     16  C   UNL     1     -16.457 -42.810  25.900  1.00  0.00     0.082 A 
ATOM     17  C   UNL     1     -17.085 -42.569  24.656  1.00  0.00     0.131 A 
ATOM     18  C   UNL     1     -18.416 -42.120  24.639  1.00  0.00     0.047 A 
ATOM     19  C   UNL     1     -19.121 -41.910  25.827  1.00  0.00     0.004 A 
ATOM     20  C   UNL     1     -17.188 -42.591  27.086  1.00  0.00     0.018 A 
ATOM     21  C   UNL     1     -18.508 -42.145  27.051  1.00  0.00     0.001 A 
BRANCH  17  22
ATOM     22  O   UNL     1     -16.355 -42.788  23.514  1.00  0.00    -0.496 OA
ATOM     23  C   UNL     1     -16.044 -41.666  22.694  1.00  0.00     0.278 C 
ENDBRANCH  17  22
ENDBRANCH  13  16
ENDBRANCH   1  12
BRANCH   8  24
ATOM     24  C   UNL     1      -8.952 -43.595  31.007  1.00  0.00     0.260 C 
ATOM     25  O   UNL     1      -7.789 -43.218  30.862  1.00  0.00    -0.269 OA
BRANCH  24  26
ATOM     26  C   UNL     1      -9.700 -43.134  32.208  1.00  0.00     0.041 A 
ATOM     27  C   UNL     1     -11.101 -43.055  32.210  1.00  0.00     0.014 A 
ATOM     28  C   UNL     1      -8.974 -42.707  33.326  1.00  0.00     0.034 A 
ATOM     29  C   UNL     1     -11.771 -42.582  33.339  1.00  0.00     0.002 A 
ATOM     30  C   UNL     1      -9.653 -42.236  34.447  1.00  0.00     0.041 A 
ATOM     31  C   UNL     1     -11.046 -42.175  34.461  1.00  0.00     0.020 A 
ATOM     32  Cl  UNL     1      -8.766 -41.719  35.828  1.00  0.00    -0.084 Cl
ENDBRANCH  24  26
ENDBRANCH   8  24
TORSDOF 5
ENDMDL
MODEL 3
REMARK VINA RESULT:   -11.365      2.154      8.912
REMARK INTER + INTRA:         -15.736
REMARK INTER:                 -14.957
REMARK INTRA:                  -0.778
REMARK UNBOUND:                -1.049
REMARK SMILES COc1ccccc1C(=O)Nc1ccc2c(c1)CN(C(=O)c1cccc(Cl)c1)C(=O)C2
REMARK SMILES IDX 12 1 13 2 14 3 15 4 16 5 17 6 18 7 19 8 29 9 30 10 31 11
REMARK SMILES IDX 11 12 9 13 10 14 8 16 3 17 4 18 5 19 7 20 6 21 2 22 1 23
REMARK SMILES IDX 20 24 21 25 22 26 23 27 28 28 24 29 26 30 25 31 27 32
REMARK H PARENT 11 15
ROOT
ATOM      1  C   UNL     1     -11.647 -44.652  29.199  1.00  0.00     0.041 A 
ATOM      2  C   UNL     1     -11.373 -45.925  28.698  1.00  0.00     0.026 A 
ATOM      3  C   UNL     1     -12.055 -46.412  27.576  1.00  0.00     0.007 A 
ATOM      4  C   UNL     1     -13.010 -45.621  26.935  1.00  0.00    -0.033 A 
ATOM      5  C   UNL     1     -13.294 -44.347  27.430  1.00  0.00    -0.022 A 
ATOM      6  C   UNL     1     -12.618 -43.870  28.561  1.00  0.00     0.032 A 
ATOM      7  C   UNL     1     -14.367 -43.549  26.747  1.00  0.00     0.164 C 
ATOM      8  N   UNL     1     -14.342 -43.741  25.305  1.00  0.00    -0.274 N 
ATOM      9  C   UNL     1     -14.321 -45.050  24.821  1.00  0.00     0.234 C 
ATOM     10  O   UNL     1     -14.704 -45.369  23.693  1.00  0.00    -0.274 OA
ATOM     11  C   UNL     1     -13.791 -46.132  25.755  1.00  0.00     0.136 C 
ENDROOT
BRANCH   1  12
ATOM     12  N   UNL     1     -11.012 -44.092  30.323  1.00  0.00    -0.322 N 
ATOM     13  C   UNL     1     -11.464 -44.033  31.626  1.00  0.00     0.259 C 
ATOM     14  O   UNL     1     -12.539 -44.481  32.018  1.00  0.00    -0.269 OA
ATOM     15  H   UNL     1     -10.098 -43.680  30.163  1.00  0.00     0.170 HD
BRANCH  13  16
ATOM     16  C   UNL     1     -10.557 -43.364  32.630  1.00  0.00     0.082 A 
ATOM     17  C   UNL     1      -9.155 -43.530  32.697  1.00  0.00     0.131 A 
ATOM     18  C   UNL     1      -8.433 -42.842  33.686  1.00  0.00     0.047 A 
ATOM     19  C   UNL     1      -9.079 -42.003  34.598  1.00  0.00     0.004 A 
ATOM     20  C   UNL     1     -11.188 -42.513  33.560  1.00  0.00     0.018 A 
ATOM     21  C   UNL     1     -10.457 -41.838  34.535  1.00  0.00     0.001 A 
BRANCH  17  22
ATOM     22  O   UNL     1      -8.561 -44.364  31.781  1.00  0.00    -0.496 OA
ATOM     23  C   UNL     1      -7.434 -43.872  31.062  1.00  0.00     0.278 C 
ENDBRANCH  17  22
ENDBRANCH  13  16
ENDBRANCH   1  12
BRANCH   8  24
ATOM     24  C   UNL     1     -14.931 -42.712  24.566  1.00  0.00     0.260 C 
ATOM     25  O   UNL     1     -14.276 -41.912  23.898  1.00  0.00    -0.269 OA
BRANCH  24  26
ATOM     26  C   UNL     1     -16.415 -42.588  24.563  1.00  0.00     0.041 A 
ATOM     27  C   UNL     1     -17.144 -42.574  23.365  1.00  0.00     0.014 A 
ATOM     28  C   UNL     1     -17.074 -42.410  25.785  1.00  0.00     0.034 A 
ATOM     29  C   UNL     1     -18.530 -42.417  23.394  1.00  0.00     0.002 A 
ATOM     30  C   UNL     1     -18.458 -42.254  25.803  1.00  0.00     0.041 A 
ATOM     31  C   UNL     1     -19.189 -42.260  24.615  1.00  0.00     0.020 A 
ATOM     32  Cl  UNL     1     -19.275 -42.046  27.303  1.00  0.00    -0.084 Cl
ENDBRANCH  24  26
ENDBRANCH   8  24
TORSDOF 5
ENDMDL
MODEL 4
REMARK VINA RESULT:   -11.354      1.974      2.591
REMARK INTER + INTRA:         -15.722
REMARK INTER:                 -16.173
REMARK INTRA:                   0.451
REMARK UNBOUND:                -1.049
REMARK SMILES COc1ccccc1C(=O)Nc1ccc2c(c1)CN(C(=O)c1cccc(Cl)c1)C(=O)C2
REMARK SMILES IDX 12 1 13 2 14 3 15 4 16 5 17 6 18 7 19 8 29 9 30 10 31 11
REMARK SMILES IDX 11 12 9 13 10 14 8 16 3 17 4 18 5 19 7 20 6 21 2 22 1 23
REMARK SMILES IDX 20 24 21 25 22 26 23 27 28 28 24 29 26 30 25 31 27 32
REMARK H PARENT 11 15
ROOT
ATOM      1  C   UNL     1     -13.882 -44.694  26.294  1.00  0.00     0.041 A 
ATOM      2  C   UNL     1     -13.549 -46.039  26.133  1.00  0.00     0.026 A 
ATOM      3  C   UNL     1     -12.682 -46.671  27.032  1.00  0.00     0.007 A 
ATOM      4  C   UNL     1     -12.151 -45.966  28.113  1.00  0.00    -0.033 A 
ATOM      5  C   UNL     1     -12.477 -44.619  28.282  1.00  0.00    -0.022 A 
ATOM      6  C   UNL     1     -13.334 -43.987  27.372  1.00  0.00     0.032 A 
ATOM      7  C   UNL     1     -11.842 -43.879  29.425  1.00  0.00     0.164 C 
ATOM      8  N   UNL     1     -11.727 -44.717  30.609  1.00  0.00    -0.274 N 
ATOM      9  C   UNL     1     -11.151 -45.980  30.461  1.00  0.00     0.234 C 
ATOM     10  O   UNL     1     -10.626 -46.605  31.385  1.00  0.00    -0.274 OA
ATOM     11  C   UNL     1     -11.183 -46.604  29.071  1.00  0.00     0.136 C 
ENDROOT
BRANCH   1  12
ATOM     12  N   UNL     1     -14.740 -43.984  25.433  1.00  0.00    -0.322 N 
ATOM     13  C   UNL     1     -15.606 -42.954  25.739  1.00  0.00     0.259 C 
ATOM     14  O   UNL     1     -15.765 -42.479  26.862  1.00  0.00    -0.269 OA
ATOM     15  H   UNL     1     -14.721 -44.258  24.456  1.00  0.00     0.170 HD
BRANCH  13  16
ATOM     16  C   UNL     1     -16.408 -42.379  24.598  1.00  0.00     0.082 A 
ATOM     17  C   UNL     1     -17.820 -42.367  24.520  1.00  0.00     0.131 A 
ATOM     18  C   UNL     1     -18.436 -41.796  23.394  1.00  0.00     0.047 A 
ATOM     19  C   UNL     1     -17.677 -41.245  22.358  1.00  0.00     0.004 A 
ATOM     20  C   UNL     1     -15.663 -41.818  23.541  1.00  0.00     0.018 A 
ATOM     21  C   UNL     1     -16.290 -41.256  22.431  1.00  0.00     0.001 A 
BRANCH  17  22
ATOM     22  O   UNL     1     -18.527 -42.919  25.560  1.00  0.00    -0.496 OA
ATOM     23  C   UNL     1     -19.901 -43.227  25.345  1.00  0.00     0.278 C 
ENDBRANCH  17  22
ENDBRANCH  13  16
ENDBRANCH   1  12
BRANCH   8  24
ATOM     24  C   UNL     1     -11.627 -44.019  31.814  1.00  0.00     0.260 C 
ATOM     25  O   UNL     1     -12.605 -43.742  32.508  1.00  0.00    -0.269 OA
BRANCH  24  26
ATOM     26  C   UNL     1     -10.279 -43.609  32.297  1.00  0.00     0.041 A 
ATOM     27  C   UNL     1      -9.115 -43.965  31.600  1.00  0.00     0.014 A 
ATOM     28  C   UNL     1     -10.184 -42.919  33.511  1.00  0.00     0.034 A 
ATOM     29  C   UNL     1      -7.864 -43.599  32.099  1.00  0.00     0.002 A 
ATOM     30  C   UNL     1      -8.931 -42.559  34.000  1.00  0.00     0.041 A 
ATOM     31  C   UNL     1      -7.772 -42.892  33.300  1.00  0.00     0.020 A 
ATOM     32  Cl  UNL     1      -8.809 -41.700  35.486  1.00  0.00    -0.084 Cl
ENDBRANCH  24  26
ENDBRANCH   8  24
TORSDOF 5
ENDMDL
MODEL 5
REMARK VINA RESULT:   -11.118      2.996      8.918
REMARK INTER + INTRA:         -15.417
REMARK INTER:                 -14.838
REMARK INTRA:                  -0.579
REMARK UNBOUND:                -1.049
REMARK SMILES COc1ccccc1C(=O)Nc1ccc2c(c1)CN(C(=O)c1cccc(Cl)c1)C(=O)C2
REMARK SMILES IDX 12 1 13 2 14 3 15 4 16 5 17 6 18 7 19 8 29 9 30 10 31 11
REMARK SMILES IDX 11 12 9 13 10 14 8 16 3 17 4 18 5 19 7 20 6 21 2 22 1 23
REMARK SMILES IDX 20 24 21 25 22 26 23 27 28 28 24 29 26 30 25 31 27 32
REMARK H PARENT 11 15
ROOT
ATOM      1  C   UNL     1     -12.347 -44.604  29.048  1.00  0.00     0.041 A 
ATOM      2  C   UNL     1     -11.983 -45.833  28.497  1.00  0.00     0.026 A 
ATOM      3  C   UNL     1     -12.524 -46.255  27.277  1.00  0.00     0.007 A 
ATOM      4  C   UNL     1     -13.424 -45.442  26.586  1.00  0.00    -0.033 A 
ATOM      5  C   UNL     1     -13.796 -44.211  27.130  1.00  0.00    -0.022 A 
ATOM      6  C   UNL     1     -13.262 -43.799  28.359  1.00  0.00     0.032 A 
ATOM      7  C   UNL     1     -14.809 -43.390  26.386  1.00  0.00     0.164 C 
ATOM      8  N   UNL     1     -14.620 -43.481  24.946  1.00  0.00    -0.274 N 
ATOM      9  C   UNL     1     -14.509 -44.752  24.382  1.00  0.00     0.234 C 
ATOM     10  O   UNL     1     -14.757 -45.000  23.199  1.00  0.00    -0.274 OA
ATOM     11  C   UNL     1     -14.055 -45.885  25.296  1.00  0.00     0.136 C 
ENDROOT
BRANCH   1  12
ATOM     12  N   UNL     1     -11.855 -44.110  30.272  1.00  0.00    -0.322 N 
ATOM     13  C   UNL     1     -10.603 -43.599  30.551  1.00  0.00     0.259 C 
ATOM     14  O   UNL     1      -9.689 -43.493  29.738  1.00  0.00    -0.269 OA
ATOM     15  H   UNL     1     -12.501 -44.126  31.054  1.00  0.00     0.170 HD
BRANCH  13  16
ATOM     16  C   UNL     1     -10.359 -43.142  31.969  1.00  0.00     0.082 A 
ATOM     17  C   UNL     1     -11.314 -42.506  32.795  1.00  0.00     0.131 A 
ATOM     18  C   UNL     1     -10.948 -42.134  34.099  1.00  0.00     0.047 A 
ATOM     19  C   UNL     1      -9.661 -42.382  34.585  1.00  0.00     0.004 A 
ATOM     20  C   UNL     1      -9.067 -43.382  32.480  1.00  0.00     0.018 A 
ATOM     21  C   UNL     1      -8.721 -43.006  33.776  1.00  0.00     0.001 A 
BRANCH  17  22
ATOM     22  O   UNL     1     -12.566 -42.282  32.277  1.00  0.00    -0.496 OA
ATOM     23  C   UNL     1     -13.689 -42.752  33.017  1.00  0.00     0.278 C 
ENDBRANCH  17  22
ENDBRANCH  13  16
ENDBRANCH   1  12
BRANCH   8  24
ATOM     24  C   UNL     1     -15.153 -42.415  24.217  1.00  0.00     0.260 C 
ATOM     25  O   UNL     1     -14.456 -41.651  23.548  1.00  0.00    -0.269 OA
BRANCH  24  26
ATOM     26  C   UNL     1     -16.626 -42.204  24.224  1.00  0.00     0.041 A 
ATOM     27  C   UNL     1     -17.406 -42.536  25.343  1.00  0.00     0.014 A 
ATOM     28  C   UNL     1     -17.241 -41.732  23.059  1.00  0.00     0.034 A 
ATOM     29  C   UNL     1     -18.790 -42.362  25.305  1.00  0.00     0.002 A 
ATOM     30  C   UNL     1     -18.623 -41.562  23.032  1.00  0.00     0.041 A 
ATOM     31  C   UNL     1     -19.399 -41.872  24.148  1.00  0.00     0.020 A 
ATOM     32  Cl  UNL     1     -19.383 -40.972  21.605  1.00  0.00    -0.084 Cl
ENDBRANCH  24  26
ENDBRANCH   8  24
TORSDOF 5
ENDMDL
MODEL 6
REMARK VINA RESULT:   -10.656      4.306     10.536
REMARK INTER + INTRA:         -14.820
REMARK INTER:                 -13.884
REMARK INTRA:                  -0.936
REMARK UNBOUND:                -1.049
REMARK SMILES COc1ccccc1C(=O)Nc1ccc2c(c1)CN(C(=O)c1cccc(Cl)c1)C(=O)C2
REMARK SMILES IDX 12 1 13 2 14 3 15 4 16 5 17 6 18 7 19 8 29 9 30 10 31 11
REMARK SMILES IDX 11 12 9 13 10 14 8 16 3 17 4 18 5 19 7 20 6 21 2 22 1 23
REMARK SMILES IDX 20 24 21 25 22 26 23 27 28 28 24 29 26 30 25 31 27 32
REMARK H PARENT 11 15
ROOT
ATOM      1  C   UNL     1     -15.197 -42.755  24.286  1.00  0.00     0.041 A 
ATOM      2  C   UNL     1     -14.773 -41.668  23.521  1.00  0.00     0.026 A 
ATOM      3  C   UNL     1     -15.680 -40.962  22.721  1.00  0.00     0.007 A 
ATOM      4  C   UNL     1     -17.027 -41.330  22.691  1.00  0.00    -0.033 A 
ATOM      5  C   UNL     1     -17.460 -42.418  23.450  1.00  0.00    -0.022 A 
ATOM      6  C   UNL     1     -16.545 -43.130  24.239  1.00  0.00     0.032 A 
ATOM      7  C   UNL     1     -18.904 -42.818  23.348  1.00  0.00     0.164 C 
ATOM      8  N   UNL     1     -19.775 -41.658  23.242  1.00  0.00    -0.274 N 
ATOM      9  C   UNL     1     -19.464 -40.694  22.282  1.00  0.00     0.234 C 
ATOM     10  O   UNL     1     -20.289 -39.911  21.806  1.00  0.00    -0.274 OA
ATOM     11  C   UNL     1     -18.017 -40.621  21.809  1.00  0.00     0.136 C 
ENDROOT
BRANCH   1  12
ATOM     12  N   UNL     1     -14.348 -43.520  25.109  1.00  0.00    -0.322 N 
ATOM     13  C   UNL     1     -14.189 -43.450  26.479  1.00  0.00     0.259 C 
ATOM     14  O   UNL     1     -14.791 -42.675  27.218  1.00  0.00    -0.269 OA
ATOM     15  H   UNL     1     -13.780 -44.218  24.642  1.00  0.00     0.170 HD
BRANCH  13  16
ATOM     16  C   UNL     1     -13.196 -44.405  27.096  1.00  0.00     0.082 A 
ATOM     17  C   UNL     1     -12.085 -44.027  27.884  1.00  0.00     0.131 A 
ATOM     18  C   UNL     1     -11.242 -45.026  28.397  1.00  0.00     0.047 A 
ATOM     19  C   UNL     1     -11.485 -46.378  28.139  1.00  0.00     0.004 A 
ATOM     20  C   UNL     1     -13.423 -45.774  26.849  1.00  0.00     0.018 A 
ATOM     21  C   UNL     1     -12.575 -46.752  27.365  1.00  0.00     0.001 A 
BRANCH  17  22
ATOM     22  O   UNL     1     -11.884 -42.688  28.113  1.00  0.00    -0.496 OA
ATOM     23  C   UNL     1     -10.545 -42.200  28.091  1.00  0.00     0.278 C 
ENDBRANCH  17  22
ENDBRANCH  13  16
ENDBRANCH   1  12
BRANCH   8  24
ATOM     24  C   UNL     1     -21.097 -41.880  23.634  1.00  0.00     0.260 C 
ATOM     25  O   UNL     1     -21.862 -42.619  23.013  1.00  0.00    -0.269 OA
BRANCH  24  26
ATOM     26  C   UNL     1     -21.602 -41.218  24.868  1.00  0.00     0.041 A 
ATOM     27  C   UNL     1     -20.942 -41.363  26.097  1.00  0.00     0.014 A 
ATOM     28  C   UNL     1     -22.801 -40.498  24.799  1.00  0.00     0.034 A 
ATOM     29  C   UNL     1     -21.462 -40.761  27.244  1.00  0.00     0.002 A 
ATOM     30  C   UNL     1     -23.311 -39.901  25.949  1.00  0.00     0.041 A 
ATOM     31  C   UNL     1     -22.647 -40.026  27.169  1.00  0.00     0.020 A 
ATOM     32  Cl  UNL     1     -24.778 -39.005  25.867  1.00  0.00    -0.084 Cl
ENDBRANCH  24  26
ENDBRANCH   8  24
TORSDOF 5
ENDMDL
MODEL 7
REMARK VINA RESULT:   -10.586      3.466      9.889
REMARK INTER + INTRA:         -14.730
REMARK INTER:                 -13.662
REMARK INTRA:                  -1.068
REMARK UNBOUND:                -1.049
REMARK SMILES COc1ccccc1C(=O)Nc1ccc2c(c1)CN(C(=O)c1cccc(Cl)c1)C(=O)C2
REMARK SMILES IDX 12 1 13 2 14 3 15 4 16 5 17 6 18 7 19 8 29 9 30 10 31 11
REMARK SMILES IDX 11 12 9 13 10 14 8 16 3 17 4 18 5 19 7 20 6 21 2 22 1 23
REMARK SMILES IDX 20 24 21 25 22 26 23 27 28 28 24 29 26 30 25 31 27 32
REMARK H PARENT 11 15
ROOT
ATOM      1  C   UNL     1     -14.288 -43.116  26.372  1.00  0.00     0.041 A 
ATOM      2  C   UNL     1     -13.790 -42.637  25.160  1.00  0.00     0.026 A 
ATOM      3  C   UNL     1     -14.657 -42.323  24.107  1.00  0.00     0.007 A 
ATOM      4  C   UNL     1     -16.036 -42.470  24.263  1.00  0.00    -0.033 A 
ATOM      5  C   UNL     1     -16.545 -42.950  25.471  1.00  0.00    -0.022 A 
ATOM      6  C   UNL     1     -15.671 -43.277  26.517  1.00  0.00     0.032 A 
ATOM      7  C   UNL     1     -18.029 -43.147  25.581  1.00  0.00     0.164 C 
ATOM      8  N   UNL     1     -18.763 -42.098  24.891  1.00  0.00    -0.274 N 
ATOM      9  C   UNL     1     -18.403 -41.808  23.574  1.00  0.00     0.234 C 
ATOM     10  O   UNL     1     -19.159 -41.273  22.759  1.00  0.00    -0.274 OA
ATOM     11  C   UNL     1     -16.991 -42.182  23.137  1.00  0.00     0.136 C 
ENDROOT
BRANCH   1  12
ATOM     12  N   UNL     1     -13.484 -43.461  27.476  1.00  0.00    -0.322 N 
ATOM     13  C   UNL     1     -12.914 -44.682  27.776  1.00  0.00     0.259 C 
ATOM     14  O   UNL     1     -13.027 -45.697  27.094  1.00  0.00    -0.269 OA
ATOM     15  H   UNL     1     -13.291 -42.717  28.140  1.00  0.00     0.170 HD
BRANCH  13  16
ATOM     16  C   UNL     1     -12.094 -44.755  29.040  1.00  0.00     0.082 A 
ATOM     17  C   UNL     1     -11.270 -43.719  29.538  1.00  0.00     0.131 A 
ATOM     18  C   UNL     1     -10.561 -43.925  30.732  1.00  0.00     0.047 A 
ATOM     19  C   UNL     1     -10.659 -45.131  31.430  1.00  0.00     0.004 A 
ATOM     20  C   UNL     1     -12.178 -45.963  29.761  1.00  0.00     0.018 A 
ATOM     21  C   UNL     1     -11.468 -46.151  30.945  1.00  0.00     0.001 A 
BRANCH  17  22
ATOM     22  O   UNL     1     -11.203 -42.550  28.820  1.00  0.00    -0.496 OA
ATOM     23  C   UNL     1     -10.033 -42.309  28.043  1.00  0.00     0.278 C 
ENDBRANCH  17  22
ENDBRANCH  13  16
ENDBRANCH   1  12
BRANCH   8  24
ATOM     24  C   UNL     1     -20.074 -41.909  25.335  1.00  0.00     0.260 C 
ATOM     25  O   UNL     1     -20.570 -40.794  25.494  1.00  0.00    -0.269 OA
BRANCH  24  26
ATOM     26  C   UNL     1     -20.920 -43.103  25.605  1.00  0.00     0.041 A 
ATOM     27  C   UNL     1     -21.309 -43.971  24.574  1.00  0.00     0.014 A 
ATOM     28  C   UNL     1     -21.388 -43.311  26.908  1.00  0.00     0.034 A 
ATOM     29  C   UNL     1     -22.135 -45.061  24.854  1.00  0.00     0.002 A 
ATOM     30  C   UNL     1     -22.212 -44.402  27.176  1.00  0.00     0.041 A 
ATOM     31  C   UNL     1     -22.585 -45.278  26.158  1.00  0.00     0.020 A 
ATOM     32  Cl  UNL     1     -22.781 -44.668  28.778  1.00  0.00    -0.084 Cl
ENDBRANCH  24  26
ENDBRANCH   8  24
TORSDOF 5
ENDMDL
MODEL 8
REMARK VINA RESULT:   -10.295      2.485      3.601
REMARK INTER + INTRA:         -14.353
REMARK INTER:                 -13.670
REMARK INTRA:                  -0.683
REMARK UNBOUND:                -1.049
REMARK SMILES COc1ccccc1C(=O)Nc1ccc2c(c1)CN(C(=O)c1cccc(Cl)c1)C(=O)C2
REMARK SMILES IDX 12 1 13 2 14 3 15 4 16 5 17 6 18 7 19 8 29 9 30 10 31 11
REMARK SMILES IDX 11 12 9 13 10 14 8 16 3 17 4 18 5 19 7 20 6 21 2 22 1 23
REMARK SMILES IDX 20 24 21 25 22 26 23 27 28 28 24 29 26 30 25 31 27 32
REMARK H PARENT 11 15
ROOT
ATOM      1  C   UNL     1     -15.774 -43.495  25.791  1.00  0.00     0.041 A 
ATOM      2  C   UNL     1     -14.969 -44.245  24.933  1.00  0.00     0.026 A 
ATOM      3  C   UNL     1     -13.845 -44.922  25.421  1.00  0.00     0.007 A 
ATOM      4  C   UNL     1     -13.524 -44.868  26.779  1.00  0.00    -0.033 A 
ATOM      5  C   UNL     1     -14.322 -44.119  27.645  1.00  0.00    -0.022 A 
ATOM      6  C   UNL     1     -15.439 -43.431  27.149  1.00  0.00     0.032 A 
ATOM      7  C   UNL     1     -13.913 -44.039  29.088  1.00  0.00     0.164 C 
ATOM      8  N   UNL     1     -13.376 -45.305  29.563  1.00  0.00    -0.274 N 
ATOM      9  C   UNL     1     -12.378 -45.916  28.804  1.00  0.00     0.234 C 
ATOM     10  O   UNL     1     -11.568 -46.727  29.261  1.00  0.00    -0.274 OA
ATOM     11  C   UNL     1     -12.300 -45.549  27.326  1.00  0.00     0.136 C 
ENDROOT
BRANCH   1  12
ATOM     12  N   UNL     1     -16.916 -42.781  25.380  1.00  0.00    -0.322 N 
ATOM     13  C   UNL     1     -17.490 -42.727  24.125  1.00  0.00     0.259 C 
ATOM     14  O   UNL     1     -17.072 -43.320  23.134  1.00  0.00    -0.269 OA
ATOM     15  H   UNL     1     -17.385 -42.236  26.095  1.00  0.00     0.170 HD
BRANCH  13  16
ATOM     16  C   UNL     1     -18.722 -41.868  23.980  1.00  0.00     0.082 A 
ATOM     17  C   UNL     1     -19.724 -41.708  24.965  1.00  0.00     0.131 A 
ATOM     18  C   UNL     1     -20.820 -40.873  24.694  1.00  0.00     0.047 A 
ATOM     19  C   UNL     1     -20.933 -40.204  23.473  1.00  0.00     0.004 A 
ATOM     20  C   UNL     1     -18.856 -41.183  22.755  1.00  0.00     0.018 A 
ATOM     21  C   UNL     1     -19.951 -40.359  22.502  1.00  0.00     0.001 A 
BRANCH  17  22
ATOM     22  O   UNL     1     -19.573 -42.384  26.151  1.00  0.00    -0.496 OA
ATOM     23  C   UNL     1     -20.562 -43.348  26.501  1.00  0.00     0.278 C 
ENDBRANCH  17  22
ENDBRANCH  13  16
ENDBRANCH   1  12
BRANCH   8  24
ATOM     24  C   UNL     1     -13.436 -45.484  30.947  1.00  0.00     0.260 C 
ATOM     25  O   UNL     1     -13.866 -46.513  31.468  1.00  0.00    -0.269 OA
BRANCH  24  26
ATOM     26  C   UNL     1     -12.938 -44.398  31.835  1.00  0.00     0.041 A 
ATOM     27  C   UNL     1     -11.565 -44.163  32.002  1.00  0.00     0.014 A 
ATOM     28  C   UNL     1     -13.869 -43.651  32.566  1.00  0.00     0.034 A 
ATOM     29  C   UNL     1     -11.130 -43.162  32.872  1.00  0.00     0.002 A 
ATOM     30  C   UNL     1     -13.424 -42.655  33.431  1.00  0.00     0.041 A 
ATOM     31  C   UNL     1     -12.061 -42.404  33.586  1.00  0.00     0.020 A 
ATOM     32  Cl  UNL     1     -14.565 -41.727  34.325  1.00  0.00    -0.084 Cl
ENDBRANCH  24  26
ENDBRANCH   8  24
TORSDOF 5
ENDMDL
MODEL 9
REMARK VINA RESULT:   -10.246      3.954      9.904
REMARK INTER + INTRA:         -14.289
REMARK INTER:                 -13.859
REMARK INTRA:                  -0.430
REMARK UNBOUND:                -1.049
REMARK SMILES COc1ccccc1C(=O)Nc1ccc2c(c1)CN(C(=O)c1cccc(Cl)c1)C(=O)C2
REMARK SMILES IDX 12 1 13 2 14 3 15 4 16 5 17 6 18 7 19 8 29 9 30 10 31 11
REMARK SMILES IDX 11 12 9 13 10 14 8 16 3 17 4 18 5 19 7 20 6 21 2 22 1 23
REMARK SMILES IDX 20 24 21 25 22 26 23 27 28 28 24 29 26 30 25 31 27 32
REMARK H PARENT 11 15
ROOT
ATOM      1  C   UNL     1     -14.606 -42.636  26.014  1.00  0.00     0.041 A 
ATOM      2  C   UNL     1     -14.578 -42.398  24.640  1.00  0.00     0.026 A 
ATOM      3  C   UNL     1     -15.767 -42.325  23.904  1.00  0.00     0.007 A 
ATOM      4  C   UNL     1     -17.000 -42.474  24.542  1.00  0.00    -0.033 A 
ATOM      5  C   UNL     1     -17.039 -42.714  25.917  1.00  0.00    -0.022 A 
ATOM      6  C   UNL     1     -15.845 -42.801  26.646  1.00  0.00     0.032 A 
ATOM      7  C   UNL     1     -18.381 -42.924  26.557  1.00  0.00     0.164 C 
ATOM      8  N   UNL     1     -19.393 -42.055  25.979  1.00  0.00    -0.274 N 
ATOM      9  C   UNL     1     -19.512 -42.027  24.588  1.00  0.00     0.234 C 
ATOM     10  O   UNL     1     -20.539 -41.687  23.995  1.00  0.00    -0.274 OA
ATOM     11  C   UNL     1     -18.292 -42.444  23.774  1.00  0.00     0.136 C 
ENDROOT
BRANCH   1  12
ATOM     12  N   UNL     1     -13.457 -42.731  26.823  1.00  0.00    -0.322 N 
ATOM     13  C   UNL     1     -12.838 -43.865  27.307  1.00  0.00     0.259 C 
ATOM     14  O   UNL     1     -13.213 -45.016  27.095  1.00  0.00    -0.269 OA
ATOM     15  H   UNL     1     -13.020 -41.853  27.085  1.00  0.00     0.170 HD
BRANCH  13  16
ATOM     16  C   UNL     1     -11.610 -43.656  28.159  1.00  0.00     0.082 A 
ATOM     17  C   UNL     1     -11.341 -44.321  29.377  1.00  0.00     0.131 A 
ATOM     18  C   UNL     1     -10.153 -44.029  30.066  1.00  0.00     0.047 A 
ATOM     19  C   UNL     1      -9.241 -43.095  29.568  1.00  0.00     0.004 A 
ATOM     20  C   UNL     1     -10.675 -42.719  27.674  1.00  0.00     0.018 A 
ATOM     21  C   UNL     1      -9.501 -42.440  28.371  1.00  0.00     0.001 A 
BRANCH  17  22
ATOM     22  O   UNL     1     -12.265 -45.231  29.831  1.00  0.00    -0.496 OA
ATOM     23  C   UNL     1     -13.122 -44.836  30.898  1.00  0.00     0.278 C 
ENDBRANCH  17  22
ENDBRANCH  13  16
ENDBRANCH   1  12
BRANCH   8  24
ATOM     24  C   UNL     1     -20.498 -41.815  26.798  1.00  0.00     0.260 C 
ATOM     25  O   UNL     1     -20.742 -40.710  27.283  1.00  0.00    -0.269 OA
BRANCH  24  26
ATOM     26  C   UNL     1     -21.439 -42.934  27.082  1.00  0.00     0.041 A 
ATOM     27  C   UNL     1     -21.012 -44.099  27.737  1.00  0.00     0.014 A 
ATOM     28  C   UNL     1     -22.755 -42.836  26.616  1.00  0.00     0.034 A 
ATOM     29  C   UNL     1     -21.909 -45.146  27.954  1.00  0.00     0.002 A 
ATOM     30  C   UNL     1     -23.642 -43.887  26.838  1.00  0.00     0.041 A 
ATOM     31  C   UNL     1     -23.227 -45.038  27.506  1.00  0.00     0.020 A 
ATOM     32  Cl  UNL     1     -25.264 -43.768  26.276  1.00  0.00    -0.084 Cl
ENDBRANCH  24  26
ENDBRANCH   8  24
TORSDOF 5
ENDMDL
