MODEL 1
REMARK VINA RESULT:   -10.635      0.000      0.000
REMARK INTER + INTRA:         -10.946
REMARK INTER:                 -10.946
REMARK INTRA:                   0.000
REMARK UNBOUND:                 0.000
REMARK SMILES CC1=C[C@H]2Cc3nc4cc(Cl)ccc4c(N)c3[C@@H](C1)C2
REMARK SMILES IDX 1 1 2 2 3 3 4 4 5 5 6 6 7 7 8 8 9 9 10 10 11 11 12 12 13 13
REMARK SMILES IDX 14 14 15 15 17 16 18 17 19 18 20 19 16 20
REMARK H PARENT 16 21 16 22
ROOT
ATOM      1  C   UNL     1     -14.274 -44.284  26.955  1.00  0.00     0.039 C 
ATOM      2  C   UNL     1     -13.131 -44.523  27.897  1.00  0.00    -0.076 C 
ATOM      3  C   UNL     1     -11.969 -43.891  27.657  1.00  0.00    -0.024 C 
ATOM      4  C   UNL     1     -10.014 -45.066  29.115  1.00  0.00     0.018 C 
ATOM      5  C   UNL     1     -10.897 -43.872  28.984  1.00  0.00     0.064 C 
ATOM      6  C   UNL     1     -11.840 -44.105  30.100  1.00  0.00     0.047 A 
ATOM      7  N   UNL     1     -12.111 -43.112  30.989  1.00  0.00    -0.252 NA
ATOM      8  C   UNL     1     -12.975 -43.336  32.007  1.00  0.00     0.074 A 
ATOM      9  C   UNL     1     -13.231 -42.307  32.894  1.00  0.00     0.049 A 
ATOM     10  C   UNL     1     -14.107 -42.498  33.947  1.00  0.00     0.043 A 
ATOM     11  Cl  UNL     1     -14.436 -41.191  35.079  1.00  0.00    -0.084 Cl
ATOM     12  C   UNL     1     -14.718 -43.744  34.086  1.00  0.00     0.021 A 
ATOM     13  C   UNL     1     -14.463 -44.779  33.197  1.00  0.00     0.014 A 
ATOM     14  C   UNL     1     -13.592 -44.580  32.156  1.00  0.00     0.024 A 
ATOM     15  C   UNL     1     -13.330 -45.603  31.264  1.00  0.00     0.046 A 
ATOM     16  C   UNL     1     -12.446 -45.352  30.233  1.00  0.00     0.001 A 
ATOM     17  C   UNL     1     -12.082 -46.368  29.210  1.00  0.00     0.028 C 
ATOM     18  C   UNL     1     -13.262 -45.435  29.074  1.00  0.00     0.039 C 
ATOM     19  C   UNL     1     -10.645 -46.366  28.668  1.00  0.00     0.017 C 
ENDROOT
BRANCH  15  20
ATOM     20  N   UNL     1     -13.932 -46.887  31.371  1.00  0.00    -0.398 N 
ATOM     21  H   UNL     1     -13.392 -47.768  31.534  1.00  0.00     0.156 HD
ATOM     22  H   UNL     1     -14.983 -46.966  31.281  1.00  0.00     0.156 HD
ENDBRANCH  15  20
TORSDOF 1
ENDMDL
MODEL 2
REMARK VINA RESULT:    -9.990      6.106      9.048
REMARK INTER + INTRA:         -10.282
REMARK INTER:                 -10.282
REMARK INTRA:                   0.000
REMARK UNBOUND:                 0.000
REMARK SMILES CC1=C[C@H]2Cc3nc4cc(Cl)ccc4c(N)c3[C@@H](C1)C2
REMARK SMILES IDX 1 1 2 2 3 3 4 4 5 5 6 6 7 7 8 8 9 9 10 10 11 11 12 12 13 13
REMARK SMILES IDX 14 14 15 15 17 16 18 17 19 18 20 19 16 20
REMARK H PARENT 16 21 16 22
ROOT
ATOM      1  C   UNL     1     -21.043 -45.705  25.706  1.00  0.00     0.039 C 
ATOM      2  C   UNL     1     -20.671 -44.251  25.745  1.00  0.00    -0.076 C 
ATOM      3  C   UNL     1     -21.066 -43.524  26.804  1.00  0.00    -0.024 C 
ATOM      4  C   UNL     1     -20.818 -40.895  26.207  1.00  0.00     0.018 C 
ATOM      5  C   UNL     1     -20.248 -42.038  26.977  1.00  0.00     0.064 C 
ATOM      6  C   UNL     1     -19.021 -42.310  26.195  1.00  0.00     0.047 A 
ATOM      7  N   UNL     1     -17.821 -42.433  26.823  1.00  0.00    -0.252 NA
ATOM      8  C   UNL     1     -16.704 -42.681  26.098  1.00  0.00     0.074 A 
ATOM      9  C   UNL     1     -15.498 -42.803  26.763  1.00  0.00     0.049 A 
ATOM     10  C   UNL     1     -14.337 -43.056  26.056  1.00  0.00     0.043 A 
ATOM     11  Cl  UNL     1     -12.799 -43.211  26.900  1.00  0.00    -0.084 Cl
ATOM     12  C   UNL     1     -14.416 -43.184  24.670  1.00  0.00     0.021 A 
ATOM     13  C   UNL     1     -15.624 -43.062  23.999  1.00  0.00     0.014 A 
ATOM     14  C   UNL     1     -16.771 -42.811  24.708  1.00  0.00     0.024 A 
ATOM     15  C   UNL     1     -17.981 -42.688  24.052  1.00  0.00     0.046 A 
ATOM     16  C   UNL     1     -19.107 -42.436  24.811  1.00  0.00     0.001 A 
ATOM     17  C   UNL     1     -20.466 -42.282  24.224  1.00  0.00     0.028 C 
ATOM     18  C   UNL     1     -19.885 -43.612  24.646  1.00  0.00     0.039 C 
ATOM     19  C   UNL     1     -21.425 -41.277  24.875  1.00  0.00     0.017 C 
ENDROOT
BRANCH  15  20
ATOM     20  N   UNL     1     -18.104 -42.812  22.640  1.00  0.00    -0.398 N 
ATOM     21  H   UNL     1     -18.873 -42.372  22.085  1.00  0.00     0.156 HD
ATOM     22  H   UNL     1     -17.384 -43.381  22.114  1.00  0.00     0.156 HD
ENDBRANCH  15  20
TORSDOF 1
ENDMDL
MODEL 3
REMARK VINA RESULT:    -9.927      1.962      2.659
REMARK INTER + INTRA:         -10.218
REMARK INTER:                 -10.218
REMARK INTRA:                   0.000
REMARK UNBOUND:                 0.000
REMARK SMILES CC1=C[C@H]2Cc3nc4cc(Cl)ccc4c(N)c3[C@@H](C1)C2
REMARK SMILES IDX 1 1 2 2 3 3 4 4 5 5 6 6 7 7 8 8 9 9 10 10 11 11 12 12 13 13
REMARK SMILES IDX 14 14 15 15 17 16 18 17 19 18 20 19 16 20
REMARK H PARENT 16 21 16 22
ROOT
ATOM      1  C   UNL     1      -9.421 -42.922  28.015  1.00  0.00     0.039 C 
ATOM      2  C   UNL     1      -9.322 -43.704  29.291  1.00  0.00    -0.076 C 
ATOM      3  C   UNL     1      -8.230 -43.534  30.056  1.00  0.00    -0.024 C 
ATOM      4  C   UNL     1      -8.095 -45.553  31.855  1.00  0.00     0.018 C 
ATOM      5  C   UNL     1      -8.399 -44.107  31.654  1.00  0.00     0.064 C 
ATOM      6  C   UNL     1      -9.873 -44.118  31.785  1.00  0.00     0.047 A 
ATOM      7  N   UNL     1     -10.495 -43.229  32.606  1.00  0.00    -0.252 NA
ATOM      8  C   UNL     1     -11.844 -43.247  32.720  1.00  0.00     0.074 A 
ATOM      9  C   UNL     1     -12.449 -42.332  33.561  1.00  0.00     0.049 A 
ATOM     10  C   UNL     1     -13.824 -42.320  33.703  1.00  0.00     0.043 A 
ATOM     11  Cl  UNL     1     -14.597 -41.156  34.774  1.00  0.00    -0.084 Cl
ATOM     12  C   UNL     1     -14.575 -43.247  32.981  1.00  0.00     0.021 A 
ATOM     13  C   UNL     1     -13.972 -44.168  32.136  1.00  0.00     0.014 A 
ATOM     14  C   UNL     1     -12.607 -44.171  32.002  1.00  0.00     0.024 A 
ATOM     15  C   UNL     1     -11.994 -45.083  31.163  1.00  0.00     0.046 A 
ATOM     16  C   UNL     1     -10.617 -45.046  31.062  1.00  0.00     0.001 A 
ATOM     17  C   UNL     1      -9.840 -45.973  30.195  1.00  0.00     0.028 C 
ATOM     18  C   UNL     1     -10.397 -44.652  29.716  1.00  0.00     0.039 C 
ATOM     19  C   UNL     1      -8.464 -46.441  30.687  1.00  0.00     0.017 C 
ENDROOT
BRANCH  15  20
ATOM     20  N   UNL     1     -12.724 -46.045  30.410  1.00  0.00    -0.398 N 
ATOM     21  H   UNL     1     -12.494 -46.303  29.423  1.00  0.00     0.156 HD
ATOM     22  H   UNL     1     -13.547 -46.528  30.864  1.00  0.00     0.156 HD
ENDBRANCH  15  20
TORSDOF 1
ENDMDL
MODEL 4
REMARK VINA RESULT:    -8.965      2.926      5.508
REMARK INTER + INTRA:          -9.227
REMARK INTER:                  -9.227
REMARK INTRA:                   0.000
REMARK UNBOUND:                 0.000
REMARK SMILES CC1=C[C@H]2Cc3nc4cc(Cl)ccc4c(N)c3[C@@H](C1)C2
REMARK SMILES IDX 1 1 2 2 3 3 4 4 5 5 6 6 7 7 8 8 9 9 10 10 11 11 12 12 13 13
REMARK SMILES IDX 14 14 15 15 17 16 18 17 19 18 20 19 16 20
REMARK H PARENT 16 21 16 22
ROOT
ATOM      1  C   UNL     1     -13.693 -42.829  32.744  1.00  0.00     0.039 C 
ATOM      2  C   UNL     1     -12.885 -43.803  31.937  1.00  0.00    -0.076 C 
ATOM      3  C   UNL     1     -13.039 -45.115  32.188  1.00  0.00    -0.024 C 
ATOM      4  C   UNL     1     -10.985 -46.471  31.059  1.00  0.00     0.018 C 
ATOM      5  C   UNL     1     -12.436 -46.137  30.962  1.00  0.00     0.064 C 
ATOM      6  C   UNL     1     -12.426 -45.206  29.812  1.00  0.00     0.047 A 
ATOM      7  N   UNL     1     -13.300 -45.377  28.784  1.00  0.00    -0.252 NA
ATOM      8  C   UNL     1     -13.282 -44.521  27.735  1.00  0.00     0.074 A 
ATOM      9  C   UNL     1     -14.182 -44.718  26.705  1.00  0.00     0.049 A 
ATOM     10  C   UNL     1     -14.194 -43.865  25.618  1.00  0.00     0.043 A 
ATOM     11  Cl  UNL     1     -15.339 -44.114  24.304  1.00  0.00    -0.084 Cl
ATOM     12  C   UNL     1     -13.283 -42.809  25.591  1.00  0.00     0.021 A 
ATOM     13  C   UNL     1     -12.377 -42.608  26.623  1.00  0.00     0.014 A 
ATOM     14  C   UNL     1     -12.373 -43.460  27.697  1.00  0.00     0.024 A 
ATOM     15  C   UNL     1     -11.477 -43.270  28.732  1.00  0.00     0.046 A 
ATOM     16  C   UNL     1     -11.513 -44.155  29.791  1.00  0.00     0.001 A 
ATOM     17  C   UNL     1     -10.601 -44.058  30.963  1.00  0.00     0.028 C 
ATOM     18  C   UNL     1     -11.932 -43.347  30.881  1.00  0.00     0.039 C 
ATOM     19  C   UNL     1     -10.121 -45.362  31.615  1.00  0.00     0.017 C 
ENDROOT
BRANCH  15  20
ATOM     20  N   UNL     1     -10.531 -42.206  28.742  1.00  0.00    -0.398 N 
ATOM     21  H   UNL     1     -10.311 -41.620  27.905  1.00  0.00     0.156 HD
ATOM     22  H   UNL     1     -10.017 -41.991  29.641  1.00  0.00     0.156 HD
ENDBRANCH  15  20
TORSDOF 1
ENDMDL
MODEL 5
REMARK VINA RESULT:    -8.902      2.581      3.368
REMARK INTER + INTRA:          -9.162
REMARK INTER:                  -9.162
REMARK INTRA:                   0.000
REMARK UNBOUND:                 0.000
REMARK SMILES CC1=C[C@H]2Cc3nc4cc(Cl)ccc4c(N)c3[C@@H](C1)C2
REMARK SMILES IDX 1 1 2 2 3 3 4 4 5 5 6 6 7 7 8 8 9 9 10 10 11 11 12 12 13 13
REMARK SMILES IDX 14 14 15 15 17 16 18 17 19 18 20 19 16 20
REMARK H PARENT 16 21 16 22
ROOT
ATOM      1  C   UNL     1     -10.591 -42.081  27.670  1.00  0.00     0.039 C 
ATOM      2  C   UNL     1     -10.592 -43.269  28.586  1.00  0.00    -0.076 C 
ATOM      3  C   UNL     1      -9.656 -44.216  28.398  1.00  0.00    -0.024 C 
ATOM      4  C   UNL     1     -10.382 -46.448  29.748  1.00  0.00     0.018 C 
ATOM      5  C   UNL     1      -9.459 -45.277  29.719  1.00  0.00     0.064 C 
ATOM      6  C   UNL     1     -10.024 -44.457  30.814  1.00  0.00     0.047 A 
ATOM      7  N   UNL     1      -9.212 -43.955  31.783  1.00  0.00    -0.252 NA
ATOM      8  C   UNL     1      -9.740 -43.207  32.782  1.00  0.00     0.074 A 
ATOM      9  C   UNL     1      -8.891 -42.708  33.752  1.00  0.00     0.049 A 
ATOM     10  C   UNL     1      -9.392 -41.941  34.787  1.00  0.00     0.043 A 
ATOM     11  Cl  UNL     1      -8.314 -41.305  36.025  1.00  0.00    -0.084 Cl
ATOM     12  C   UNL     1     -10.762 -41.685  34.822  1.00  0.00     0.021 A 
ATOM     13  C   UNL     1     -11.618 -42.184  33.850  1.00  0.00     0.014 A 
ATOM     14  C   UNL     1     -11.111 -42.944  32.827  1.00  0.00     0.024 A 
ATOM     15  C   UNL     1     -11.952 -43.447  31.852  1.00  0.00     0.046 A 
ATOM     16  C   UNL     1     -11.393 -44.207  30.844  1.00  0.00     0.001 A 
ATOM     17  C   UNL     1     -12.190 -44.803  29.738  1.00  0.00     0.028 C 
ATOM     18  C   UNL     1     -11.597 -43.414  29.683  1.00  0.00     0.039 C 
ATOM     19  C   UNL     1     -11.762 -46.173  29.195  1.00  0.00     0.017 C 
ENDROOT
BRANCH  15  20
ATOM     20  N   UNL     1     -13.355 -43.209  31.852  1.00  0.00    -0.398 N 
ATOM     21  H   UNL     1     -13.901 -42.967  30.994  1.00  0.00     0.156 HD
ATOM     22  H   UNL     1     -13.883 -43.277  32.766  1.00  0.00     0.156 HD
ENDBRANCH  15  20
TORSDOF 1
ENDMDL
MODEL 6
REMARK VINA RESULT:    -8.877      3.388      5.354
REMARK INTER + INTRA:          -9.137
REMARK INTER:                  -9.137
REMARK INTRA:                   0.000
REMARK UNBOUND:                 0.000
REMARK SMILES CC1=C[C@H]2Cc3nc4cc(Cl)ccc4c(N)c3[C@@H](C1)C2
REMARK SMILES IDX 1 1 2 2 3 3 4 4 5 5 6 6 7 7 8 8 9 9 10 10 11 11 12 12 13 13
REMARK SMILES IDX 14 14 15 15 17 16 18 17 19 18 20 19 16 20
REMARK H PARENT 16 21 16 22
ROOT
ATOM      1  C   UNL     1     -10.900 -42.144  28.086  1.00  0.00     0.039 C 
ATOM      2  C   UNL     1     -11.805 -43.330  28.242  1.00  0.00    -0.076 C 
ATOM      3  C   UNL     1     -11.938 -43.869  29.467  1.00  0.00    -0.024 C 
ATOM      4  C   UNL     1     -13.064 -46.320  29.229  1.00  0.00     0.018 C 
ATOM      5  C   UNL     1     -13.286 -44.902  29.634  1.00  0.00     0.064 C 
ATOM      6  C   UNL     1     -14.132 -44.428  28.516  1.00  0.00     0.047 A 
ATOM      7  N   UNL     1     -15.289 -43.757  28.768  1.00  0.00    -0.252 NA
ATOM      8  C   UNL     1     -16.057 -43.329  27.738  1.00  0.00     0.074 A 
ATOM      9  C   UNL     1     -17.226 -42.649  28.024  1.00  0.00     0.049 A 
ATOM     10  C   UNL     1     -18.036 -42.196  26.999  1.00  0.00     0.043 A 
ATOM     11  Cl  UNL     1     -19.525 -41.331  27.360  1.00  0.00    -0.084 Cl
ATOM     12  C   UNL     1     -17.644 -42.441  25.684  1.00  0.00     0.021 A 
ATOM     13  C   UNL     1     -16.471 -43.124  25.392  1.00  0.00     0.014 A 
ATOM     14  C   UNL     1     -15.674 -43.569  26.416  1.00  0.00     0.024 A 
ATOM     15  C   UNL     1     -14.503 -44.250  26.140  1.00  0.00     0.046 A 
ATOM     16  C   UNL     1     -13.735 -44.677  27.205  1.00  0.00     0.001 A 
ATOM     17  C   UNL     1     -12.456 -45.419  27.039  1.00  0.00     0.028 C 
ATOM     18  C   UNL     1     -12.546 -43.911  27.081  1.00  0.00     0.039 C 
ATOM     19  C   UNL     1     -12.109 -46.501  28.071  1.00  0.00     0.017 C 
ENDROOT
BRANCH  15  20
ATOM     20  N   UNL     1     -14.068 -44.520  24.812  1.00  0.00    -0.398 N 
ATOM     21  H   UNL     1     -13.668 -43.794  24.175  1.00  0.00     0.156 HD
ATOM     22  H   UNL     1     -14.152 -45.507  24.440  1.00  0.00     0.156 HD
ENDBRANCH  15  20
TORSDOF 1
ENDMDL
MODEL 7
REMARK VINA RESULT:    -8.795      3.081      5.348
REMARK INTER + INTRA:          -9.052
REMARK INTER:                  -9.052
REMARK INTRA:                   0.000
REMARK UNBOUND:                 0.000
REMARK SMILES CC1=C[C@H]2Cc3nc4cc(Cl)ccc4c(N)c3[C@@H](C1)C2
REMARK SMILES IDX 1 1 2 2 3 3 4 4 5 5 6 6 7 7 8 8 9 9 10 10 11 11 12 12 13 13
REMARK SMILES IDX 14 14 15 15 17 16 18 17 19 18 20 19 16 20
REMARK H PARENT 16 21 16 22
ROOT
ATOM      1  C   UNL     1     -10.177 -42.868  30.248  1.00  0.00     0.039 C 
ATOM      2  C   UNL     1     -11.359 -43.781  30.381  1.00  0.00    -0.076 C 
ATOM      3  C   UNL     1     -12.195 -43.590  31.416  1.00  0.00    -0.024 C 
ATOM      4  C   UNL     1     -13.758 -45.782  31.699  1.00  0.00     0.018 C 
ATOM      5  C   UNL     1     -13.707 -44.362  31.247  1.00  0.00     0.064 C 
ATOM      6  C   UNL     1     -13.758 -44.541  29.778  1.00  0.00     0.047 A 
ATOM      7  N   UNL     1     -14.641 -43.825  29.031  1.00  0.00    -0.252 NA
ATOM      8  C   UNL     1     -14.681 -43.997  27.688  1.00  0.00     0.074 A 
ATOM      9  C   UNL     1     -15.587 -43.255  26.954  1.00  0.00     0.049 A 
ATOM     10  C   UNL     1     -15.658 -43.404  25.581  1.00  0.00     0.043 A 
ATOM     11  Cl  UNL     1     -16.811 -42.461  24.643  1.00  0.00    -0.084 Cl
ATOM     12  C   UNL     1     -14.797 -44.311  24.965  1.00  0.00     0.021 A 
ATOM     13  C   UNL     1     -13.886 -45.058  25.699  1.00  0.00     0.014 A 
ATOM     14  C   UNL     1     -13.824 -44.904  27.060  1.00  0.00     0.024 A 
ATOM     15  C   UNL     1     -12.921 -45.642  27.803  1.00  0.00     0.046 A 
ATOM     16  C   UNL     1     -12.897 -45.450  29.170  1.00  0.00     0.001 A 
ATOM     17  C   UNL     1     -11.972 -46.182  30.077  1.00  0.00     0.028 C 
ATOM     18  C   UNL     1     -11.617 -44.879  29.400  1.00  0.00     0.039 C 
ATOM     19  C   UNL     1     -12.480 -46.559  31.476  1.00  0.00     0.017 C 
ENDROOT
BRANCH  15  20
ATOM     20  N   UNL     1     -12.026 -46.578  27.213  1.00  0.00    -0.398 N 
ATOM     21  H   UNL     1     -12.201 -47.608  27.188  1.00  0.00     0.156 HD
ATOM     22  H   UNL     1     -11.132 -46.221  26.775  1.00  0.00     0.156 HD
ENDBRANCH  15  20
TORSDOF 1
ENDMDL
MODEL 8
REMARK VINA RESULT:    -8.794      3.312      5.490
REMARK INTER + INTRA:          -9.051
REMARK INTER:                  -9.051
REMARK INTRA:                   0.000
REMARK UNBOUND:                 0.000
REMARK SMILES CC1=C[C@H]2Cc3nc4cc(Cl)ccc4c(N)c3[C@@H](C1)C2
REMARK SMILES IDX 1 1 2 2 3 3 4 4 5 5 6 6 7 7 8 8 9 9 10 10 11 11 12 12 13 13
REMARK SMILES IDX 14 14 15 15 17 16 18 17 19 18 20 19 16 20
REMARK H PARENT 16 21 16 22
ROOT
ATOM      1  C   UNL     1     -10.333 -42.689  33.186  1.00  0.00     0.039 C 
ATOM      2  C   UNL     1      -9.995 -43.739  32.169  1.00  0.00    -0.076 C 
ATOM      3  C   UNL     1     -10.136 -45.029  32.518  1.00  0.00    -0.024 C 
ATOM      4  C   UNL     1      -8.819 -46.573  30.726  1.00  0.00     0.018 C 
ATOM      5  C   UNL     1     -10.156 -46.113  31.201  1.00  0.00     0.064 C 
ATOM      6  C   UNL     1     -10.537 -45.198  30.102  1.00  0.00     0.047 A 
ATOM      7  N   UNL     1     -11.760 -45.302  29.517  1.00  0.00    -0.252 NA
ATOM      8  C   UNL     1     -12.099 -44.461  28.510  1.00  0.00     0.074 A 
ATOM      9  C   UNL     1     -13.350 -44.589  27.935  1.00  0.00     0.049 A 
ATOM     10  C   UNL     1     -13.731 -43.748  26.906  1.00  0.00     0.043 A 
ATOM     11  Cl  UNL     1     -15.323 -43.909  26.171  1.00  0.00    -0.084 Cl
ATOM     12  C   UNL     1     -12.829 -42.778  26.470  1.00  0.00     0.021 A 
ATOM     13  C   UNL     1     -11.573 -42.647  27.045  1.00  0.00     0.014 A 
ATOM     14  C   UNL     1     -11.204 -43.485  28.066  1.00  0.00     0.024 A 
ATOM     15  C   UNL     1      -9.955 -43.365  28.647  1.00  0.00     0.046 A 
ATOM     16  C   UNL     1      -9.631 -44.233  29.671  1.00  0.00     0.001 A 
ATOM     17  C   UNL     1      -8.321 -44.204  30.376  1.00  0.00     0.028 C 
ATOM     18  C   UNL     1      -9.514 -43.379  30.800  1.00  0.00     0.039 C 
ATOM     19  C   UNL     1      -7.722 -45.539  30.841  1.00  0.00     0.017 C 
ENDROOT
BRANCH  15  20
ATOM     20  N   UNL     1      -9.006 -42.389  28.231  1.00  0.00    -0.398 N 
ATOM     21  H   UNL     1      -8.285 -41.977  28.865  1.00  0.00     0.156 HD
ATOM     22  H   UNL     1      -9.026 -42.055  27.228  1.00  0.00     0.156 HD
ENDBRANCH  15  20
TORSDOF 1
ENDMDL
MODEL 9
REMARK VINA RESULT:    -8.388      3.186      4.985
REMARK INTER + INTRA:          -8.633
REMARK INTER:                  -8.633
REMARK INTRA:                   0.000
REMARK UNBOUND:                 0.000
REMARK SMILES CC1=C[C@H]2Cc3nc4cc(Cl)ccc4c(N)c3[C@@H](C1)C2
REMARK SMILES IDX 1 1 2 2 3 3 4 4 5 5 6 6 7 7 8 8 9 9 10 10 11 11 12 12 13 13
REMARK SMILES IDX 14 14 15 15 17 16 18 17 19 18 20 19 16 20
REMARK H PARENT 16 21 16 22
ROOT
ATOM      1  C   UNL     1      -8.926 -46.907  29.965  1.00  0.00     0.039 C 
ATOM      2  C   UNL     1      -9.639 -45.644  30.346  1.00  0.00    -0.076 C 
ATOM      3  C   UNL     1      -8.904 -44.535  30.541  1.00  0.00    -0.024 C 
ATOM      4  C   UNL     1     -10.411 -42.700  31.842  1.00  0.00     0.018 C 
ATOM      5  C   UNL     1      -9.807 -43.087  30.535  1.00  0.00     0.064 C 
ATOM      6  C   UNL     1     -11.013 -43.521  29.794  1.00  0.00     0.047 A 
ATOM      7  N   UNL     1     -11.255 -43.050  28.541  1.00  0.00    -0.252 NA
ATOM      8  C   UNL     1     -12.362 -43.453  27.873  1.00  0.00     0.074 A 
ATOM      9  C   UNL     1     -12.581 -42.959  26.601  1.00  0.00     0.049 A 
ATOM     10  C   UNL     1     -13.700 -43.346  25.887  1.00  0.00     0.043 A 
ATOM     11  Cl  UNL     1     -13.983 -42.718  24.267  1.00  0.00    -0.084 Cl
ATOM     12  C   UNL     1     -14.590 -44.241  26.480  1.00  0.00     0.021 A 
ATOM     13  C   UNL     1     -14.373 -44.739  27.757  1.00  0.00     0.014 A 
ATOM     14  C   UNL     1     -13.260 -44.349  28.457  1.00  0.00     0.024 A 
ATOM     15  C   UNL     1     -13.032 -44.838  29.730  1.00  0.00     0.046 A 
ATOM     16  C   UNL     1     -11.898 -44.414  30.393  1.00  0.00     0.001 A 
ATOM     17  C   UNL     1     -11.541 -44.867  31.765  1.00  0.00     0.028 C 
ATOM     18  C   UNL     1     -11.124 -45.599  30.510  1.00  0.00     0.039 C 
ATOM     19  C   UNL     1     -10.851 -43.865  32.700  1.00  0.00     0.017 C 
ENDROOT
BRANCH  15  20
ATOM     20  N   UNL     1     -13.916 -45.752  30.370  1.00  0.00    -0.398 N 
ATOM     21  H   UNL     1     -13.637 -46.715  30.666  1.00  0.00     0.156 HD
ATOM     22  H   UNL     1     -14.912 -45.449  30.559  1.00  0.00     0.156 HD
ENDBRANCH  15  20
TORSDOF 1
ENDMDL
