MODEL 1
REMARK VINA RESULT:   -10.950      0.000      0.000
REMARK INTER + INTRA:         -19.184
REMARK INTER:                 -17.991
REMARK INTRA:                  -1.193
REMARK UNBOUND:                -1.193
REMARK SMILES CNC(=O)Oc1cccc(C[N@@H+](C)CCCOc2ccc(C(=O)c3ccccc3)cc2)c1
REMARK SMILES IDX 14 1 12 2 13 3 11 5 10 6 9 7 32 8 8 9 6 10 7 11 5 12 3 13
REMARK SMILES IDX 2 14 4 15 1 16 15 18 16 19 17 20 18 21 19 22 31 23 20 24
REMARK SMILES IDX 30 25 21 26 22 27 23 28 24 29 25 30 29 31 26 32 28 33 27 34
REMARK H PARENT 12 4 2 17
ROOT
ATOM      1  C   UNL     1     -13.273 -44.940  31.151  1.00  0.00     0.265 C 
ENDROOT
BRANCH   1   2
ATOM      2  N   UNL     1     -13.177 -44.106  32.415  1.00  0.00    -0.334 N 
ATOM      3  C   UNL     1     -14.512 -43.886  33.081  1.00  0.00     0.333 C 
ATOM      4  H   UNL     1     -12.589 -44.614  33.088  1.00  0.00     0.348 HD
BRANCH   2   5
ATOM      5  C   UNL     1     -12.458 -42.793  32.151  1.00  0.00     0.298 C 
BRANCH   5   6
ATOM      6  C   UNL     1     -11.171 -42.651  32.916  1.00  0.00     0.010 A 
ATOM      7  C   UNL     1     -11.155 -42.083  34.201  1.00  0.00     0.010 A 
ATOM      8  C   UNL     1      -9.963 -43.085  32.350  1.00  0.00     0.056 A 
ATOM      9  C   UNL     1      -9.955 -41.955  34.905  1.00  0.00     0.004 A 
ATOM     10  C   UNL     1      -8.776 -42.983  33.075  1.00  0.00     0.133 A 
ATOM     11  C   UNL     1      -8.762 -42.400  34.340  1.00  0.00     0.047 A 
BRANCH  10  12
ATOM     12  O   UNL     1      -7.534 -43.394  32.558  1.00  0.00    -0.410 OA
BRANCH  12  13
ATOM     13  C   UNL     1      -7.512 -44.280  31.485  1.00  0.00     0.412 C 
ATOM     14  N   UNL     1      -7.954 -45.504  31.898  1.00  0.00    -0.324 N 
ATOM     15  O   UNL     1      -7.153 -44.011  30.347  1.00  0.00    -0.224 OA
ATOM     16  C   UNL     1      -8.185 -46.581  30.973  1.00  0.00     0.146 C 
ATOM     17  H   UNL     1      -8.356 -45.548  32.825  1.00  0.00     0.166 HD
ENDBRANCH  12  13
ENDBRANCH  10  12
ENDBRANCH   5   6
ENDBRANCH   2   5
ENDBRANCH   1   2
BRANCH   1  18
ATOM     18  C   UNL     1     -12.210 -46.027  31.138  1.00  0.00     0.103 C 
BRANCH  18  19
ATOM     19  C   UNL     1     -11.628 -46.220  29.738  1.00  0.00     0.235 C 
BRANCH  19  20
ATOM     20  O   UNL     1     -11.460 -44.920  29.181  1.00  0.00    -0.493 OA
BRANCH  20  21
ATOM     21  C   UNL     1     -12.309 -44.555  28.174  1.00  0.00     0.119 A 
ATOM     22  C   UNL     1     -13.306 -45.353  27.610  1.00  0.00     0.047 A 
ATOM     23  C   UNL     1     -12.122 -43.254  27.699  1.00  0.00     0.047 A 
ATOM     24  C   UNL     1     -14.106 -44.855  26.573  1.00  0.00     0.016 A 
ATOM     25  C   UNL     1     -12.914 -42.753  26.664  1.00  0.00     0.016 A 
ATOM     26  C   UNL     1     -13.918 -43.549  26.106  1.00  0.00     0.023 A 
BRANCH  26  27
ATOM     27  C   UNL     1     -14.719 -42.997  24.986  1.00  0.00     0.193 C 
ATOM     28  O   UNL     1     -14.155 -42.738  23.926  1.00  0.00    -0.289 OA
BRANCH  27  29
ATOM     29  C   UNL     1     -16.178 -42.762  25.114  1.00  0.00     0.022 A 
ATOM     30  C   UNL     1     -16.787 -42.580  26.362  1.00  0.00     0.012 A 
ATOM     31  C   UNL     1     -16.946 -42.677  23.946  1.00  0.00     0.012 A 
ATOM     32  C   UNL     1     -18.162 -42.349  26.439  1.00  0.00     0.001 A 
ATOM     33  C   UNL     1     -18.319 -42.447  24.028  1.00  0.00     0.001 A 
ATOM     34  C   UNL     1     -18.926 -42.289  25.273  1.00  0.00     0.000 A 
ENDBRANCH  27  29
ENDBRANCH  26  27
ENDBRANCH  20  21
ENDBRANCH  19  20
ENDBRANCH  18  19
ENDBRANCH   1  18
TORSDOF 11
ENDMDL
MODEL 2
REMARK VINA RESULT:   -10.887      1.489      3.543
REMARK INTER + INTRA:         -19.081
REMARK INTER:                 -17.362
REMARK INTRA:                  -1.719
REMARK UNBOUND:                -1.193
REMARK SMILES CNC(=O)Oc1cccc(C[N@@H+](C)CCCOc2ccc(C(=O)c3ccccc3)cc2)c1
REMARK SMILES IDX 14 1 12 2 13 3 11 5 10 6 9 7 32 8 8 9 6 10 7 11 5 12 3 13
REMARK SMILES IDX 2 14 4 15 1 16 15 18 16 19 17 20 18 21 19 22 31 23 20 24
REMARK SMILES IDX 30 25 21 26 22 27 23 28 24 29 25 30 29 31 26 32 28 33 27 34
REMARK H PARENT 12 4 2 17
ROOT
ATOM      1  C   UNL     1      -9.020 -45.950  31.400  1.00  0.00     0.265 C 
ENDROOT
BRANCH   1   2
ATOM      2  N   UNL     1      -7.848 -45.026  31.131  1.00  0.00    -0.334 N 
ATOM      3  C   UNL     1      -6.751 -45.147  32.160  1.00  0.00     0.333 C 
ATOM      4  H   UNL     1      -7.436 -45.287  30.226  1.00  0.00     0.348 HD
BRANCH   2   5
ATOM      5  C   UNL     1      -8.311 -43.586  30.972  1.00  0.00     0.298 C 
BRANCH   5   6
ATOM      6  C   UNL     1      -9.400 -43.198  31.932  1.00  0.00     0.010 A 
ATOM      7  C   UNL     1      -9.095 -42.801  33.245  1.00  0.00     0.010 A 
ATOM      8  C   UNL     1     -10.742 -43.229  31.526  1.00  0.00     0.056 A 
ATOM      9  C   UNL     1     -10.113 -42.442  34.132  1.00  0.00     0.004 A 
ATOM     10  C   UNL     1     -11.748 -42.836  32.410  1.00  0.00     0.133 A 
ATOM     11  C   UNL     1     -11.443 -42.463  33.716  1.00  0.00     0.047 A 
BRANCH  10  12
ATOM     12  O   UNL     1     -13.111 -42.853  32.063  1.00  0.00    -0.410 OA
BRANCH  12  13
ATOM     13  C   UNL     1     -13.675 -44.041  31.610  1.00  0.00     0.412 C 
ATOM     14  N   UNL     1     -13.686 -44.953  32.626  1.00  0.00    -0.324 N 
ATOM     15  O   UNL     1     -14.099 -44.244  30.481  1.00  0.00    -0.224 OA
ATOM     16  C   UNL     1     -14.349 -46.224  32.500  1.00  0.00     0.146 C 
ATOM     17  H   UNL     1     -13.441 -44.608  33.544  1.00  0.00     0.166 HD
ENDBRANCH  12  13
ENDBRANCH  10  12
ENDBRANCH   5   6
ENDBRANCH   2   5
ENDBRANCH   1   2
BRANCH   1  18
ATOM     18  C   UNL     1      -9.459 -46.652  30.125  1.00  0.00     0.103 C 
BRANCH  18  19
ATOM     19  C   UNL     1     -10.848 -46.189  29.685  1.00  0.00     0.235 C 
BRANCH  19  20
ATOM     20  O   UNL     1     -10.652 -45.133  28.750  1.00  0.00    -0.493 OA
BRANCH  20  21
ATOM     21  C   UNL     1     -11.721 -44.772  27.979  1.00  0.00     0.119 A 
ATOM     22  C   UNL     1     -12.738 -45.620  27.535  1.00  0.00     0.047 A 
ATOM     23  C   UNL     1     -11.756 -43.420  27.628  1.00  0.00     0.047 A 
ATOM     24  C   UNL     1     -13.777 -45.120  26.739  1.00  0.00     0.016 A 
ATOM     25  C   UNL     1     -12.787 -42.916  26.834  1.00  0.00     0.016 A 
ATOM     26  C   UNL     1     -13.810 -43.763  26.398  1.00  0.00     0.023 A 
BRANCH  26  27
ATOM     27  C   UNL     1     -14.872 -43.201  25.528  1.00  0.00     0.193 C 
ATOM     28  O   UNL     1     -14.642 -43.057  24.330  1.00  0.00    -0.289 OA
BRANCH  27  29
ATOM     29  C   UNL     1     -16.200 -42.821  26.069  1.00  0.00     0.022 A 
ATOM     30  C   UNL     1     -17.295 -42.582  25.230  1.00  0.00     0.012 A 
ATOM     31  C   UNL     1     -16.358 -42.747  27.459  1.00  0.00     0.012 A 
ATOM     32  C   UNL     1     -18.531 -42.237  25.781  1.00  0.00     0.001 A 
ATOM     33  C   UNL     1     -17.595 -42.402  28.003  1.00  0.00     0.001 A 
ATOM     34  C   UNL     1     -18.678 -42.142  27.165  1.00  0.00     0.000 A 
ENDBRANCH  27  29
ENDBRANCH  26  27
ENDBRANCH  20  21
ENDBRANCH  19  20
ENDBRANCH  18  19
ENDBRANCH   1  18
TORSDOF 11
ENDMDL
MODEL 3
REMARK VINA RESULT:   -10.475      2.131      3.947
REMARK INTER + INTRA:         -18.404
REMARK INTER:                 -18.375
REMARK INTRA:                  -0.030
REMARK UNBOUND:                -1.193
REMARK SMILES CNC(=O)Oc1cccc(C[N@@H+](C)CCCOc2ccc(C(=O)c3ccccc3)cc2)c1
REMARK SMILES IDX 14 1 12 2 13 3 11 5 10 6 9 7 32 8 8 9 6 10 7 11 5 12 3 13
REMARK SMILES IDX 2 14 4 15 1 16 15 18 16 19 17 20 18 21 19 22 31 23 20 24
REMARK SMILES IDX 30 25 21 26 22 27 23 28 24 29 25 30 29 31 26 32 28 33 27 34
REMARK H PARENT 12 4 2 17
ROOT
ATOM      1  C   UNL     1     -11.270 -46.105  28.197  1.00  0.00     0.265 C 
ENDROOT
BRANCH   1   2
ATOM      2  N   UNL     1     -10.705 -45.044  29.122  1.00  0.00    -0.334 N 
ATOM      3  C   UNL     1      -9.874 -44.013  28.400  1.00  0.00     0.333 C 
ATOM      4  H   UNL     1     -11.493 -44.543  29.552  1.00  0.00     0.348 HD
BRANCH   2   5
ATOM      5  C   UNL     1      -9.939 -45.673  30.275  1.00  0.00     0.298 C 
BRANCH   5   6
ATOM      6  C   UNL     1      -9.625 -44.707  31.382  1.00  0.00     0.010 A 
ATOM      7  C   UNL     1      -8.296 -44.443  31.753  1.00  0.00     0.010 A 
ATOM      8  C   UNL     1     -10.663 -44.054  32.065  1.00  0.00     0.056 A 
ATOM      9  C   UNL     1      -8.012 -43.543  32.784  1.00  0.00     0.004 A 
ATOM     10  C   UNL     1     -10.366 -43.132  33.069  1.00  0.00     0.133 A 
ATOM     11  C   UNL     1      -9.048 -42.890  33.447  1.00  0.00     0.047 A 
BRANCH  10  12
ATOM     12  O   UNL     1     -11.363 -42.453  33.792  1.00  0.00    -0.410 OA
BRANCH  12  13
ATOM     13  C   UNL     1     -12.610 -42.265  33.206  1.00  0.00     0.412 C 
ATOM     14  N   UNL     1     -13.532 -41.996  34.177  1.00  0.00    -0.324 N 
ATOM     15  O   UNL     1     -12.851 -42.330  32.008  1.00  0.00    -0.224 OA
ATOM     16  C   UNL     1     -14.881 -41.607  33.859  1.00  0.00     0.146 C 
ATOM     17  H   UNL     1     -13.171 -41.829  35.106  1.00  0.00     0.166 HD
ENDBRANCH  12  13
ENDBRANCH  10  12
ENDBRANCH   5   6
ENDBRANCH   2   5
ENDBRANCH   1   2
BRANCH   1  18
ATOM     18  C   UNL     1     -12.786 -46.164  28.304  1.00  0.00     0.103 C 
BRANCH  18  19
ATOM     19  C   UNL     1     -13.392 -44.764  28.391  1.00  0.00     0.235 C 
BRANCH  19  20
ATOM     20  O   UNL     1     -13.091 -44.108  27.163  1.00  0.00    -0.493 OA
BRANCH  20  21
ATOM     21  C   UNL     1     -14.142 -43.766  26.360  1.00  0.00     0.119 A 
ATOM     22  C   UNL     1     -14.213 -43.949  24.977  1.00  0.00     0.047 A 
ATOM     23  C   UNL     1     -15.221 -43.182  27.029  1.00  0.00     0.047 A 
ATOM     24  C   UNL     1     -15.352 -43.544  24.269  1.00  0.00     0.016 A 
ATOM     25  C   UNL     1     -16.357 -42.774  26.329  1.00  0.00     0.016 A 
ATOM     26  C   UNL     1     -16.432 -42.967  24.947  1.00  0.00     0.023 A 
BRANCH  26  27
ATOM     27  C   UNL     1     -17.640 -42.491  24.230  1.00  0.00     0.193 C 
ATOM     28  O   UNL     1     -17.650 -42.517  23.002  1.00  0.00    -0.289 OA
BRANCH  27  29
ATOM     29  C   UNL     1     -18.835 -41.999  24.961  1.00  0.00     0.022 A 
ATOM     30  C   UNL     1     -18.940 -42.105  26.353  1.00  0.00     0.012 A 
ATOM     31  C   UNL     1     -19.852 -41.374  24.230  1.00  0.00     0.012 A 
ATOM     32  C   UNL     1     -20.076 -41.618  27.003  1.00  0.00     0.001 A 
ATOM     33  C   UNL     1     -20.985 -40.889  24.885  1.00  0.00     0.001 A 
ATOM     34  C   UNL     1     -21.098 -41.017  26.269  1.00  0.00     0.000 A 
ENDBRANCH  27  29
ENDBRANCH  26  27
ENDBRANCH  20  21
ENDBRANCH  19  20
ENDBRANCH  18  19
ENDBRANCH   1  18
TORSDOF 11
ENDMDL
MODEL 4
REMARK VINA RESULT:   -10.290      2.207      4.094
REMARK INTER + INTRA:         -18.100
REMARK INTER:                 -17.216
REMARK INTRA:                  -0.884
REMARK UNBOUND:                -1.193
REMARK SMILES CNC(=O)Oc1cccc(C[N@@H+](C)CCCOc2ccc(C(=O)c3ccccc3)cc2)c1
REMARK SMILES IDX 14 1 12 2 13 3 11 5 10 6 9 7 32 8 8 9 6 10 7 11 5 12 3 13
REMARK SMILES IDX 2 14 4 15 1 16 15 18 16 19 17 20 18 21 19 22 31 23 20 24
REMARK SMILES IDX 30 25 21 26 22 27 23 28 24 29 25 30 29 31 26 32 28 33 27 34
REMARK H PARENT 12 4 2 17
ROOT
ATOM      1  C   UNL     1     -10.964 -46.344  29.497  1.00  0.00     0.265 C 
ENDROOT
BRANCH   1   2
ATOM      2  N   UNL     1      -9.574 -45.995  29.994  1.00  0.00    -0.334 N 
ATOM      3  C   UNL     1      -9.253 -46.611  31.333  1.00  0.00     0.333 C 
ATOM      4  H   UNL     1      -8.892 -46.371  29.323  1.00  0.00     0.348 HD
BRANCH   2   5
ATOM      5  C   UNL     1      -9.357 -44.491  30.003  1.00  0.00     0.298 C 
BRANCH   5   6
ATOM      6  C   UNL     1      -9.994 -43.801  31.177  1.00  0.00     0.010 A 
ATOM      7  C   UNL     1      -9.277 -43.597  32.368  1.00  0.00     0.010 A 
ATOM      8  C   UNL     1     -11.320 -43.352  31.098  1.00  0.00     0.056 A 
ATOM      9  C   UNL     1      -9.875 -42.955  33.456  1.00  0.00     0.004 A 
ATOM     10  C   UNL     1     -11.897 -42.683  32.178  1.00  0.00     0.133 A 
ATOM     11  C   UNL     1     -11.189 -42.501  33.363  1.00  0.00     0.047 A 
BRANCH  10  12
ATOM     12  O   UNL     1     -13.224 -42.216  32.159  1.00  0.00    -0.410 OA
BRANCH  12  13
ATOM     13  C   UNL     1     -14.040 -42.466  33.257  1.00  0.00     0.412 C 
ATOM     14  N   UNL     1     -14.267 -41.298  33.928  1.00  0.00    -0.324 N 
ATOM     15  O   UNL     1     -14.489 -43.558  33.578  1.00  0.00    -0.224 OA
ATOM     16  C   UNL     1     -15.201 -41.217  35.020  1.00  0.00     0.146 C 
ATOM     17  H   UNL     1     -13.957 -40.450  33.474  1.00  0.00     0.166 HD
ENDBRANCH  12  13
ENDBRANCH  10  12
ENDBRANCH   5   6
ENDBRANCH   2   5
ENDBRANCH   1   2
BRANCH   1  18
ATOM     18  C   UNL     1     -11.084 -46.089  28.003  1.00  0.00     0.103 C 
BRANCH  18  19
ATOM     19  C   UNL     1     -12.464 -46.487  27.480  1.00  0.00     0.235 C 
BRANCH  19  20
ATOM     20  O   UNL     1     -13.388 -45.532  27.991  1.00  0.00    -0.493 OA
BRANCH  20  21
ATOM     21  C   UNL     1     -13.927 -44.643  27.104  1.00  0.00     0.119 A 
ATOM     22  C   UNL     1     -14.393 -43.361  27.406  1.00  0.00     0.047 A 
ATOM     23  C   UNL     1     -13.998 -45.105  25.787  1.00  0.00     0.047 A 
ATOM     24  C   UNL     1     -14.932 -42.552  26.398  1.00  0.00     0.016 A 
ATOM     25  C   UNL     1     -14.536 -44.303  24.779  1.00  0.00     0.016 A 
ATOM     26  C   UNL     1     -14.993 -43.017  25.080  1.00  0.00     0.023 A 
BRANCH  26  27
ATOM     27  C   UNL     1     -15.590 -42.205  23.990  1.00  0.00     0.193 C 
ATOM     28  O   UNL     1     -14.842 -41.605  23.221  1.00  0.00    -0.289 OA
BRANCH  27  29
ATOM     29  C   UNL     1     -17.059 -42.111  23.805  1.00  0.00     0.022 A 
ATOM     30  C   UNL     1     -17.620 -41.571  22.642  1.00  0.00     0.012 A 
ATOM     31  C   UNL     1     -17.892 -42.622  24.808  1.00  0.00     0.012 A 
ATOM     32  C   UNL     1     -19.008 -41.512  22.502  1.00  0.00     0.001 A 
ATOM     33  C   UNL     1     -19.278 -42.559  24.664  1.00  0.00     0.001 A 
ATOM     34  C   UNL     1     -19.834 -42.000  23.514  1.00  0.00     0.000 A 
ENDBRANCH  27  29
ENDBRANCH  26  27
ENDBRANCH  20  21
ENDBRANCH  19  20
ENDBRANCH  18  19
ENDBRANCH   1  18
TORSDOF 11
ENDMDL
MODEL 5
REMARK VINA RESULT:   -10.135      2.916      4.962
REMARK INTER + INTRA:         -17.845
REMARK INTER:                 -16.480
REMARK INTRA:                  -1.365
REMARK UNBOUND:                -1.193
REMARK SMILES CNC(=O)Oc1cccc(C[N@@H+](C)CCCOc2ccc(C(=O)c3ccccc3)cc2)c1
REMARK SMILES IDX 14 1 12 2 13 3 11 5 10 6 9 7 32 8 8 9 6 10 7 11 5 12 3 13
REMARK SMILES IDX 2 14 4 15 1 16 15 18 16 19 17 20 18 21 19 22 31 23 20 24
REMARK SMILES IDX 30 25 21 26 22 27 23 28 24 29 25 30 29 31 26 32 28 33 27 34
REMARK H PARENT 12 4 2 17
ROOT
ATOM      1  C   UNL     1     -11.282 -46.261  27.924  1.00  0.00     0.265 C 
ENDROOT
BRANCH   1   2
ATOM      2  N   UNL     1     -11.050 -45.169  28.951  1.00  0.00    -0.334 N 
ATOM      3  C   UNL     1      -9.808 -44.357  28.680  1.00  0.00     0.333 C 
ATOM      4  H   UNL     1     -11.845 -44.518  28.909  1.00  0.00     0.348 HD
BRANCH   2   5
ATOM      5  C   UNL     1     -11.054 -45.734  30.362  1.00  0.00     0.298 C 
BRANCH   5   6
ATOM      6  C   UNL     1     -12.197 -45.236  31.202  1.00  0.00     0.010 A 
ATOM      7  C   UNL     1     -13.079 -46.136  31.824  1.00  0.00     0.010 A 
ATOM      8  C   UNL     1     -12.399 -43.859  31.374  1.00  0.00     0.056 A 
ATOM      9  C   UNL     1     -14.139 -45.666  32.604  1.00  0.00     0.004 A 
ATOM     10  C   UNL     1     -13.440 -43.402  32.182  1.00  0.00     0.133 A 
ATOM     11  C   UNL     1     -14.324 -44.296  32.779  1.00  0.00     0.047 A 
BRANCH  10  12
ATOM     12  O   UNL     1     -13.696 -42.034  32.386  1.00  0.00    -0.410 OA
BRANCH  12  13
ATOM     13  C   UNL     1     -14.704 -41.662  33.270  1.00  0.00     0.412 C 
ATOM     14  N   UNL     1     -14.159 -41.385  34.491  1.00  0.00    -0.324 N 
ATOM     15  O   UNL     1     -15.896 -41.590  33.001  1.00  0.00    -0.224 OA
ATOM     16  C   UNL     1     -14.938 -40.828  35.564  1.00  0.00     0.146 C 
ATOM     17  H   UNL     1     -13.149 -41.343  34.534  1.00  0.00     0.166 HD
ENDBRANCH  12  13
ENDBRANCH  10  12
ENDBRANCH   5   6
ENDBRANCH   2   5
ENDBRANCH   1   2
BRANCH   1  18
ATOM     18  C   UNL     1     -12.733 -46.278  27.470  1.00  0.00     0.103 C 
BRANCH  18  19
ATOM     19  C   UNL     1     -13.456 -44.993  27.870  1.00  0.00     0.235 C 
BRANCH  19  20
ATOM     20  O   UNL     1     -13.285 -44.074  26.796  1.00  0.00    -0.493 OA
BRANCH  20  21
ATOM     21  C   UNL     1     -14.407 -43.679  26.123  1.00  0.00     0.119 A 
ATOM     22  C   UNL     1     -14.577 -43.683  24.736  1.00  0.00     0.047 A 
ATOM     23  C   UNL     1     -15.453 -43.240  26.939  1.00  0.00     0.047 A 
ATOM     24  C   UNL     1     -15.781 -43.243  24.172  1.00  0.00     0.016 A 
ATOM     25  C   UNL     1     -16.654 -42.798  26.383  1.00  0.00     0.016 A 
ATOM     26  C   UNL     1     -16.827 -42.811  24.996  1.00  0.00     0.023 A 
BRANCH  26  27
ATOM     27  C   UNL     1     -18.104 -42.304  24.437  1.00  0.00     0.193 C 
ATOM     28  O   UNL     1     -18.099 -41.785  23.323  1.00  0.00    -0.289 OA
BRANCH  27  29
ATOM     29  C   UNL     1     -19.380 -42.418  25.186  1.00  0.00     0.022 A 
ATOM     30  C   UNL     1     -20.136 -43.596  25.175  1.00  0.00     0.012 A 
ATOM     31  C   UNL     1     -19.803 -41.326  25.953  1.00  0.00     0.012 A 
ATOM     32  C   UNL     1     -21.326 -43.666  25.903  1.00  0.00     0.001 A 
ATOM     33  C   UNL     1     -20.993 -41.401  26.678  1.00  0.00     0.001 A 
ATOM     34  C   UNL     1     -21.755 -42.568  26.648  1.00  0.00     0.000 A 
ENDBRANCH  27  29
ENDBRANCH  26  27
ENDBRANCH  20  21
ENDBRANCH  19  20
ENDBRANCH  18  19
ENDBRANCH   1  18
TORSDOF 11
ENDMDL
MODEL 6
REMARK VINA RESULT:   -10.065      2.650      4.418
REMARK INTER + INTRA:         -17.731
REMARK INTER:                 -17.191
REMARK INTRA:                  -0.540
REMARK UNBOUND:                -1.193
REMARK SMILES CNC(=O)Oc1cccc(C[N@@H+](C)CCCOc2ccc(C(=O)c3ccccc3)cc2)c1
REMARK SMILES IDX 14 1 12 2 13 3 11 5 10 6 9 7 32 8 8 9 6 10 7 11 5 12 3 13
REMARK SMILES IDX 2 14 4 15 1 16 15 18 16 19 17 20 18 21 19 22 31 23 20 24
REMARK SMILES IDX 30 25 21 26 22 27 23 28 24 29 25 30 29 31 26 32 28 33 27 34
REMARK H PARENT 12 4 2 17
ROOT
ATOM      1  C   UNL     1     -12.932 -44.642  29.241  1.00  0.00     0.265 C 
ENDROOT
BRANCH   1   2
ATOM      2  N   UNL     1     -12.650 -45.996  29.861  1.00  0.00    -0.334 N 
ATOM      3  C   UNL     1     -12.705 -45.980  31.368  1.00  0.00     0.333 C 
ATOM      4  H   UNL     1     -13.377 -46.650  29.544  1.00  0.00     0.348 HD
BRANCH   2   5
ATOM      5  C   UNL     1     -11.335 -46.568  29.354  1.00  0.00     0.298 C 
BRANCH   5   6
ATOM      6  C   UNL     1     -10.125 -45.914  29.962  1.00  0.00     0.010 A 
ATOM      7  C   UNL     1      -9.355 -46.583  30.928  1.00  0.00     0.010 A 
ATOM      8  C   UNL     1      -9.751 -44.620  29.570  1.00  0.00     0.056 A 
ATOM      9  C   UNL     1      -8.231 -45.969  31.488  1.00  0.00     0.004 A 
ATOM     10  C   UNL     1      -8.608 -44.031  30.112  1.00  0.00     0.133 A 
ATOM     11  C   UNL     1      -7.859 -44.689  31.084  1.00  0.00     0.047 A 
BRANCH  10  12
ATOM     12  O   UNL     1      -8.188 -42.734  29.764  1.00  0.00    -0.410 OA
BRANCH  12  13
ATOM     13  C   UNL     1      -8.633 -42.180  28.568  1.00  0.00     0.412 C 
ATOM     14  N   UNL     1      -7.607 -42.163  27.667  1.00  0.00    -0.324 N 
ATOM     15  O   UNL     1      -9.765 -41.771  28.350  1.00  0.00    -0.224 OA
ATOM     16  C   UNL     1      -7.808 -41.786  26.293  1.00  0.00     0.146 C 
ATOM     17  H   UNL     1      -6.769 -42.664  27.928  1.00  0.00     0.166 HD
ENDBRANCH  12  13
ENDBRANCH  10  12
ENDBRANCH   5   6
ENDBRANCH   2   5
ENDBRANCH   1   2
BRANCH   1  18
ATOM     18  C   UNL     1     -13.962 -44.759  28.129  1.00  0.00     0.103 C 
BRANCH  18  19
ATOM     19  C   UNL     1     -13.504 -44.030  26.866  1.00  0.00     0.235 C 
BRANCH  19  20
ATOM     20  O   UNL     1     -14.135 -42.754  26.877  1.00  0.00    -0.493 OA
BRANCH  20  21
ATOM     21  C   UNL     1     -15.410 -42.680  26.389  1.00  0.00     0.119 A 
ATOM     22  C   UNL     1     -16.569 -42.487  27.144  1.00  0.00     0.047 A 
ATOM     23  C   UNL     1     -15.512 -42.817  25.002  1.00  0.00     0.047 A 
ATOM     24  C   UNL     1     -17.820 -42.439  26.516  1.00  0.00     0.016 A 
ATOM     25  C   UNL     1     -16.756 -42.773  24.371  1.00  0.00     0.016 A 
ATOM     26  C   UNL     1     -17.914 -42.570  25.126  1.00  0.00     0.023 A 
BRANCH  26  27
ATOM     27  C   UNL     1     -19.223 -42.561  24.427  1.00  0.00     0.193 C 
ATOM     28  O   UNL     1     -19.993 -43.503  24.598  1.00  0.00    -0.289 OA
BRANCH  27  29
ATOM     29  C   UNL     1     -19.622 -41.441  23.538  1.00  0.00     0.022 A 
ATOM     30  C   UNL     1     -18.847 -41.065  22.435  1.00  0.00     0.012 A 
ATOM     31  C   UNL     1     -20.831 -40.784  23.797  1.00  0.00     0.012 A 
ATOM     32  C   UNL     1     -19.264 -40.013  21.617  1.00  0.00     0.001 A 
ATOM     33  C   UNL     1     -21.244 -39.733  22.977  1.00  0.00     0.001 A 
ATOM     34  C   UNL     1     -20.458 -39.346  21.892  1.00  0.00     0.000 A 
ENDBRANCH  27  29
ENDBRANCH  26  27
ENDBRANCH  20  21
ENDBRANCH  19  20
ENDBRANCH  18  19
ENDBRANCH   1  18
TORSDOF 11
ENDMDL
MODEL 7
REMARK VINA RESULT:   -10.056      3.718     10.773
REMARK INTER + INTRA:         -17.715
REMARK INTER:                 -17.010
REMARK INTRA:                  -0.705
REMARK UNBOUND:                -1.193
REMARK SMILES CNC(=O)Oc1cccc(C[N@@H+](C)CCCOc2ccc(C(=O)c3ccccc3)cc2)c1
REMARK SMILES IDX 14 1 12 2 13 3 11 5 10 6 9 7 32 8 8 9 6 10 7 11 5 12 3 13
REMARK SMILES IDX 2 14 4 15 1 16 15 18 16 19 17 20 18 21 19 22 31 23 20 24
REMARK SMILES IDX 30 25 21 26 22 27 23 28 24 29 25 30 29 31 26 32 28 33 27 34
REMARK H PARENT 12 4 2 17
ROOT
ATOM      1  C   UNL     1     -14.608 -42.435  25.529  1.00  0.00     0.265 C 
ENDROOT
BRANCH   1   2
ATOM      2  N   UNL     1     -15.598 -43.367  24.858  1.00  0.00    -0.334 N 
ATOM      3  C   UNL     1     -14.945 -44.341  23.908  1.00  0.00     0.333 C 
ATOM      4  H   UNL     1     -16.055 -43.927  25.589  1.00  0.00     0.348 HD
BRANCH   2   5
ATOM      5  C   UNL     1     -16.714 -42.587  24.181  1.00  0.00     0.298 C 
BRANCH   5   6
ATOM      6  C   UNL     1     -17.861 -42.266  25.098  1.00  0.00     0.010 A 
ATOM      7  C   UNL     1     -17.760 -42.484  26.482  1.00  0.00     0.010 A 
ATOM      8  C   UNL     1     -19.055 -41.744  24.578  1.00  0.00     0.056 A 
ATOM      9  C   UNL     1     -18.831 -42.183  27.328  1.00  0.00     0.004 A 
ATOM     10  C   UNL     1     -20.105 -41.416  25.436  1.00  0.00     0.133 A 
ATOM     11  C   UNL     1     -20.008 -41.653  26.805  1.00  0.00     0.047 A 
BRANCH  10  12
ATOM     12  O   UNL     1     -21.327 -40.896  24.973  1.00  0.00    -0.410 OA
BRANCH  12  13
ATOM     13  C   UNL     1     -21.617 -40.966  23.614  1.00  0.00     0.412 C 
ATOM     14  N   UNL     1     -22.191 -42.173  23.334  1.00  0.00    -0.324 N 
ATOM     15  O   UNL     1     -21.394 -40.088  22.792  1.00  0.00    -0.224 OA
ATOM     16  C   UNL     1     -22.738 -42.473  22.037  1.00  0.00     0.146 C 
ATOM     17  H   UNL     1     -22.449 -42.744  24.127  1.00  0.00     0.166 HD
ENDBRANCH  12  13
ENDBRANCH  10  12
ENDBRANCH   5   6
ENDBRANCH   2   5
ENDBRANCH   1   2
BRANCH   1  18
ATOM     18  C   UNL     1     -13.711 -43.198  26.490  1.00  0.00     0.103 C 
BRANCH  18  19
ATOM     19  C   UNL     1     -14.506 -44.226  27.295  1.00  0.00     0.235 C 
BRANCH  19  20
ATOM     20  O   UNL     1     -13.748 -45.432  27.284  1.00  0.00    -0.493 OA
BRANCH  20  21
ATOM     21  C   UNL     1     -12.858 -45.623  28.304  1.00  0.00     0.119 A 
ATOM     22  C   UNL     1     -13.089 -45.361  29.656  1.00  0.00     0.047 A 
ATOM     23  C   UNL     1     -11.617 -46.127  27.906  1.00  0.00     0.047 A 
ATOM     24  C   UNL     1     -12.082 -45.595  30.602  1.00  0.00     0.016 A 
ATOM     25  C   UNL     1     -10.609 -46.361  28.843  1.00  0.00     0.016 A 
ATOM     26  C   UNL     1     -10.844 -46.107  30.198  1.00  0.00     0.023 A 
BRANCH  26  27
ATOM     27  C   UNL     1      -9.741 -46.336  31.162  1.00  0.00     0.193 C 
ATOM     28  O   UNL     1      -9.386 -47.489  31.395  1.00  0.00    -0.289 OA
BRANCH  27  29
ATOM     29  C   UNL     1      -9.054 -45.208  31.840  1.00  0.00     0.022 A 
ATOM     30  C   UNL     1      -7.657 -45.126  31.899  1.00  0.00     0.012 A 
ATOM     31  C   UNL     1      -9.835 -44.185  32.389  1.00  0.00     0.012 A 
ATOM     32  C   UNL     1      -7.050 -44.042  32.536  1.00  0.00     0.001 A 
ATOM     33  C   UNL     1      -9.224 -43.104  33.025  1.00  0.00     0.001 A 
ATOM     34  C   UNL     1      -7.833 -43.036  33.103  1.00  0.00     0.000 A 
ENDBRANCH  27  29
ENDBRANCH  26  27
ENDBRANCH  20  21
ENDBRANCH  19  20
ENDBRANCH  18  19
ENDBRANCH   1  18
TORSDOF 11
ENDMDL
MODEL 8
REMARK VINA RESULT:    -9.950      4.074     10.834
REMARK INTER + INTRA:         -17.542
REMARK INTER:                 -16.482
REMARK INTRA:                  -1.060
REMARK UNBOUND:                -1.193
REMARK SMILES CNC(=O)Oc1cccc(C[N@@H+](C)CCCOc2ccc(C(=O)c3ccccc3)cc2)c1
REMARK SMILES IDX 14 1 12 2 13 3 11 5 10 6 9 7 32 8 8 9 6 10 7 11 5 12 3 13
REMARK SMILES IDX 2 14 4 15 1 16 15 18 16 19 17 20 18 21 19 22 31 23 20 24
REMARK SMILES IDX 30 25 21 26 22 27 23 28 24 29 25 30 29 31 26 32 28 33 27 34
REMARK H PARENT 12 4 2 17
ROOT
ATOM      1  C   UNL     1     -16.721 -42.435  24.659  1.00  0.00     0.265 C 
ENDROOT
BRANCH   1   2
ATOM      2  N   UNL     1     -17.519 -42.202  23.390  1.00  0.00    -0.334 N 
ATOM      3  C   UNL     1     -16.816 -41.299  22.407  1.00  0.00     0.333 C 
ATOM      4  H   UNL     1     -17.647 -43.108  22.923  1.00  0.00     0.348 HD
BRANCH   2   5
ATOM      5  C   UNL     1     -18.919 -41.701  23.708  1.00  0.00     0.298 C 
BRANCH   5   6
ATOM      6  C   UNL     1     -19.521 -42.342  24.927  1.00  0.00     0.010 A 
ATOM      7  C   UNL     1     -19.554 -41.662  26.156  1.00  0.00     0.010 A 
ATOM      8  C   UNL     1     -20.060 -43.635  24.851  1.00  0.00     0.056 A 
ATOM      9  C   UNL     1     -20.116 -42.264  27.285  1.00  0.00     0.004 A 
ATOM     10  C   UNL     1     -20.648 -44.213  25.977  1.00  0.00     0.133 A 
ATOM     11  C   UNL     1     -20.659 -43.544  27.198  1.00  0.00     0.047 A 
BRANCH  10  12
ATOM     12  O   UNL     1     -21.197 -45.508  25.964  1.00  0.00    -0.410 OA
BRANCH  12  13
ATOM     13  C   UNL     1     -22.194 -45.807  25.041  1.00  0.00     0.412 C 
ATOM     14  N   UNL     1     -23.346 -45.164  25.394  1.00  0.00    -0.324 N 
ATOM     15  O   UNL     1     -22.066 -46.532  24.064  1.00  0.00    -0.224 OA
ATOM     16  C   UNL     1     -24.507 -45.162  24.544  1.00  0.00     0.146 C 
ATOM     17  H   UNL     1     -23.272 -44.484  26.138  1.00  0.00     0.166 HD
ENDBRANCH  12  13
ENDBRANCH  10  12
ENDBRANCH   5   6
ENDBRANCH   2   5
ENDBRANCH   1   2
BRANCH   1  18
ATOM     18  C   UNL     1     -15.479 -43.263  24.372  1.00  0.00     0.103 C 
BRANCH  18  19
ATOM     19  C   UNL     1     -14.597 -43.391  25.614  1.00  0.00     0.235 C 
BRANCH  19  20
ATOM     20  O   UNL     1     -14.315 -44.777  25.776  1.00  0.00    -0.493 OA
BRANCH  20  21
ATOM     21  C   UNL     1     -13.702 -45.161  26.936  1.00  0.00     0.119 A 
ATOM     22  C   UNL     1     -12.693 -46.120  27.053  1.00  0.00     0.047 A 
ATOM     23  C   UNL     1     -14.161 -44.507  28.082  1.00  0.00     0.047 A 
ATOM     24  C   UNL     1     -12.154 -46.426  28.309  1.00  0.00     0.016 A 
ATOM     25  C   UNL     1     -13.629 -44.809  29.336  1.00  0.00     0.016 A 
ATOM     26  C   UNL     1     -12.613 -45.762  29.452  1.00  0.00     0.023 A 
BRANCH  26  27
ATOM     27  C   UNL     1     -12.094 -46.083  30.804  1.00  0.00     0.193 C 
ATOM     28  O   UNL     1     -12.841 -46.629  31.612  1.00  0.00    -0.289 OA
BRANCH  27  29
ATOM     29  C   UNL     1     -10.697 -45.769  31.196  1.00  0.00     0.022 A 
ATOM     30  C   UNL     1      -9.651 -46.673  30.977  1.00  0.00     0.012 A 
ATOM     31  C   UNL     1     -10.428 -44.514  31.756  1.00  0.00     0.012 A 
ATOM     32  C   UNL     1      -8.349 -46.334  31.350  1.00  0.00     0.001 A 
ATOM     33  C   UNL     1      -9.125 -44.181  32.128  1.00  0.00     0.001 A 
ATOM     34  C   UNL     1      -8.089 -45.092  31.929  1.00  0.00     0.000 A 
ENDBRANCH  27  29
ENDBRANCH  26  27
ENDBRANCH  20  21
ENDBRANCH  19  20
ENDBRANCH  18  19
ENDBRANCH   1  18
TORSDOF 11
ENDMDL
MODEL 9
REMARK VINA RESULT:    -9.720      2.628      4.865
REMARK INTER + INTRA:         -17.163
REMARK INTER:                 -16.176
REMARK INTRA:                  -0.988
REMARK UNBOUND:                -1.193
REMARK SMILES CNC(=O)Oc1cccc(C[N@@H+](C)CCCOc2ccc(C(=O)c3ccccc3)cc2)c1
REMARK SMILES IDX 14 1 12 2 13 3 11 5 10 6 9 7 32 8 8 9 6 10 7 11 5 12 3 13
REMARK SMILES IDX 2 14 4 15 1 16 15 18 16 19 17 20 18 21 19 22 31 23 20 24
REMARK SMILES IDX 30 25 21 26 22 27 23 28 24 29 25 30 29 31 26 32 28 33 27 34
REMARK H PARENT 12 4 2 17
ROOT
ATOM      1  C   UNL     1     -14.167 -44.670  27.908  1.00  0.00     0.265 C 
ENDROOT
BRANCH   1   2
ATOM      2  N   UNL     1     -13.166 -45.025  28.991  1.00  0.00    -0.334 N 
ATOM      3  C   UNL     1     -13.700 -44.804  30.385  1.00  0.00     0.333 C 
ATOM      4  H   UNL     1     -12.952 -46.027  28.911  1.00  0.00     0.348 HD
BRANCH   2   5
ATOM      5  C   UNL     1     -11.846 -44.304  28.776  1.00  0.00     0.298 C 
BRANCH   5   6
ATOM      6  C   UNL     1     -10.770 -44.726  29.737  1.00  0.00     0.010 A 
ATOM      7  C   UNL     1     -10.694 -46.052  30.196  1.00  0.00     0.010 A 
ATOM      8  C   UNL     1      -9.825 -43.794  30.192  1.00  0.00     0.056 A 
ATOM      9  C   UNL     1      -9.690 -46.437  31.090  1.00  0.00     0.004 A 
ATOM     10  C   UNL     1      -8.808 -44.198  31.058  1.00  0.00     0.133 A 
ATOM     11  C   UNL     1      -8.748 -45.507  31.526  1.00  0.00     0.047 A 
BRANCH  10  12
ATOM     12  O   UNL     1      -7.837 -43.308  31.552  1.00  0.00    -0.410 OA
BRANCH  12  13
ATOM     13  C   UNL     1      -7.713 -43.143  32.928  1.00  0.00     0.412 C 
ATOM     14  N   UNL     1      -8.847 -42.560  33.419  1.00  0.00    -0.324 N 
ATOM     15  O   UNL     1      -6.744 -43.467  33.601  1.00  0.00    -0.224 OA
ATOM     16  C   UNL     1      -9.072 -42.403  34.831  1.00  0.00     0.146 C 
ATOM     17  H   UNL     1      -9.625 -42.479  32.778  1.00  0.00     0.166 HD
ENDBRANCH  12  13
ENDBRANCH  10  12
ENDBRANCH   5   6
ENDBRANCH   2   5
ENDBRANCH   1   2
BRANCH   1  18
ATOM     18  C   UNL     1     -13.466 -44.070  26.700  1.00  0.00     0.103 C 
BRANCH  18  19
ATOM     19  C   UNL     1     -14.127 -42.763  26.265  1.00  0.00     0.235 C 
BRANCH  19  20
ATOM     20  O   UNL     1     -14.614 -42.969  24.943  1.00  0.00    -0.493 OA
BRANCH  20  21
ATOM     21  C   UNL     1     -15.929 -42.681  24.707  1.00  0.00     0.119 A 
ATOM     22  C   UNL     1     -16.948 -42.653  25.662  1.00  0.00     0.047 A 
ATOM     23  C   UNL     1     -16.233 -42.396  23.373  1.00  0.00     0.047 A 
ATOM     24  C   UNL     1     -18.262 -42.349  25.282  1.00  0.00     0.016 A 
ATOM     25  C   UNL     1     -17.541 -42.095  22.989  1.00  0.00     0.016 A 
ATOM     26  C   UNL     1     -18.558 -42.057  23.946  1.00  0.00     0.023 A 
BRANCH  26  27
ATOM     27  C   UNL     1     -19.942 -41.766  23.497  1.00  0.00     0.193 C 
ATOM     28  O   UNL     1     -20.881 -42.101  24.216  1.00  0.00    -0.289 OA
BRANCH  27  29
ATOM     29  C   UNL     1     -20.214 -41.076  22.212  1.00  0.00     0.022 A 
ATOM     30  C   UNL     1     -20.009 -39.700  22.059  1.00  0.00     0.012 A 
ATOM     31  C   UNL     1     -20.643 -41.842  21.121  1.00  0.00     0.012 A 
ATOM     32  C   UNL     1     -20.266 -39.090  20.829  1.00  0.00     0.001 A 
ATOM     33  C   UNL     1     -20.899 -41.228  19.895  1.00  0.00     0.001 A 
ATOM     34  C   UNL     1     -20.715 -39.853  19.752  1.00  0.00     0.000 A 
ENDBRANCH  27  29
ENDBRANCH  26  27
ENDBRANCH  20  21
ENDBRANCH  19  20
ENDBRANCH  18  19
ENDBRANCH   1  18
TORSDOF 11
ENDMDL
