MODEL 1
REMARK VINA RESULT:   -13.138      0.000      0.000
REMARK INTER + INTRA:         -17.135
REMARK INTER:                 -16.211
REMARK INTRA:                  -0.924
REMARK UNBOUND:                -0.924
REMARK SMILES O=C(Nc1ccc2c(c1)CN(C(=O)c1cccc(Cl)c1)C(=O)C2)c1cccc(Cl)c1
REMARK SMILES IDX 4 1 5 2 6 3 7 4 8 5 9 6 10 7 11 8 21 9 22 10 23 11 3 12 2 13
REMARK SMILES IDX 1 14 24 16 25 17 30 18 26 19 28 20 27 21 29 22 12 23 13 24
REMARK SMILES IDX 14 25 15 26 20 27 16 28 18 29 17 30 19 31
REMARK H PARENT 3 15
ROOT
ATOM      1  C   UNL     1     -13.392 -44.505  27.272  1.00  0.00     0.041 A 
ATOM      2  C   UNL     1     -13.401 -45.891  27.473  1.00  0.00     0.026 A 
ATOM      3  C   UNL     1     -12.303 -46.537  28.049  1.00  0.00     0.007 A 
ATOM      4  C   UNL     1     -11.185 -45.801  28.448  1.00  0.00    -0.033 A 
ATOM      5  C   UNL     1     -11.169 -44.417  28.253  1.00  0.00    -0.022 A 
ATOM      6  C   UNL     1     -12.265 -43.776  27.657  1.00  0.00     0.032 A 
ATOM      7  C   UNL     1      -9.938 -43.650  28.644  1.00  0.00     0.164 C 
ATOM      8  N   UNL     1      -9.294 -44.224  29.819  1.00  0.00    -0.274 N 
ATOM      9  C   UNL     1      -9.083 -45.590  29.889  1.00  0.00     0.234 C 
ATOM     10  O   UNL     1      -8.168 -46.104  30.535  1.00  0.00    -0.274 OA
ATOM     11  C   UNL     1      -9.972 -46.476  29.028  1.00  0.00     0.136 C 
ENDROOT
BRANCH   1  12
ATOM     12  N   UNL     1     -14.535 -43.934  26.673  1.00  0.00    -0.322 N 
ATOM     13  C   UNL     1     -14.676 -43.528  25.358  1.00  0.00     0.255 C 
ATOM     14  O   UNL     1     -13.816 -43.544  24.486  1.00  0.00    -0.269 OA
ATOM     15  H   UNL     1     -15.305 -43.746  27.301  1.00  0.00     0.170 HD
BRANCH  13  16
ATOM     16  C   UNL     1     -16.019 -42.984  25.008  1.00  0.00     0.041 A 
ATOM     17  C   UNL     1     -16.338 -42.818  23.654  1.00  0.00     0.014 A 
ATOM     18  C   UNL     1     -16.965 -42.675  25.993  1.00  0.00     0.034 A 
ATOM     19  C   UNL     1     -17.587 -42.315  23.284  1.00  0.00     0.002 A 
ATOM     20  C   UNL     1     -18.210 -42.174  25.611  1.00  0.00     0.041 A 
ATOM     21  C   UNL     1     -18.523 -41.988  24.265  1.00  0.00     0.020 A 
ATOM     22  Cl  UNL     1     -19.374 -41.786  26.818  1.00  0.00    -0.084 Cl
ENDBRANCH  13  16
ENDBRANCH   1  12
BRANCH   8  23
ATOM     23  C   UNL     1      -8.788 -43.426  30.833  1.00  0.00     0.260 C 
ATOM     24  O   UNL     1      -7.613 -43.075  30.908  1.00  0.00    -0.269 OA
BRANCH  23  25
ATOM     25  C   UNL     1      -9.684 -43.082  31.965  1.00  0.00     0.041 A 
ATOM     26  C   UNL     1      -9.156 -42.751  33.220  1.00  0.00     0.014 A 
ATOM     27  C   UNL     1     -11.068 -43.139  31.773  1.00  0.00     0.034 A 
ATOM     28  C   UNL     1     -10.017 -42.441  34.275  1.00  0.00     0.002 A 
ATOM     29  C   UNL     1     -11.918 -42.828  32.831  1.00  0.00     0.041 A 
ATOM     30  C   UNL     1     -11.398 -42.474  34.078  1.00  0.00     0.020 A 
ATOM     31  Cl  UNL     1     -13.622 -42.878  32.604  1.00  0.00    -0.084 Cl
ENDBRANCH  23  25
ENDBRANCH   8  23
TORSDOF 4
ENDMDL
MODEL 2
REMARK VINA RESULT:   -12.400      1.599      2.067
REMARK INTER + INTRA:         -16.224
REMARK INTER:                 -15.538
REMARK INTRA:                  -0.687
REMARK UNBOUND:                -0.924
REMARK SMILES O=C(Nc1ccc2c(c1)CN(C(=O)c1cccc(Cl)c1)C(=O)C2)c1cccc(Cl)c1
REMARK SMILES IDX 4 1 5 2 6 3 7 4 8 5 9 6 10 7 11 8 21 9 22 10 23 11 3 12 2 13
REMARK SMILES IDX 1 14 24 16 25 17 30 18 26 19 28 20 27 21 29 22 12 23 13 24
REMARK SMILES IDX 14 25 15 26 20 27 16 28 18 29 17 30 19 31
REMARK H PARENT 3 15
ROOT
ATOM      1  C   UNL     1     -13.672 -44.589  26.670  1.00  0.00     0.041 A 
ATOM      2  C   UNL     1     -13.412 -45.956  26.515  1.00  0.00     0.026 A 
ATOM      3  C   UNL     1     -12.414 -46.584  27.264  1.00  0.00     0.007 A 
ATOM      4  C   UNL     1     -11.670 -45.853  28.195  1.00  0.00    -0.033 A 
ATOM      5  C   UNL     1     -11.925 -44.489  28.359  1.00  0.00    -0.022 A 
ATOM      6  C   UNL     1     -12.915 -43.859  27.589  1.00  0.00     0.032 A 
ATOM      7  C   UNL     1     -11.082 -43.711  29.329  1.00  0.00     0.164 C 
ATOM      8  N   UNL     1     -10.698 -44.520  30.479  1.00  0.00    -0.274 N 
ATOM      9  C   UNL     1     -10.200 -45.796  30.287  1.00  0.00     0.234 C 
ATOM     10  O   UNL     1      -9.423 -46.348  31.068  1.00  0.00    -0.274 OA
ATOM     11  C   UNL     1     -10.560 -46.494  28.982  1.00  0.00     0.136 C 
ENDROOT
BRANCH   1  12
ATOM     12  N   UNL     1     -14.688 -44.030  25.865  1.00  0.00    -0.322 N 
ATOM     13  C   UNL     1     -15.618 -43.075  26.234  1.00  0.00     0.255 C 
ATOM     14  O   UNL     1     -15.761 -42.576  27.343  1.00  0.00    -0.269 OA
ATOM     15  H   UNL     1     -14.775 -44.428  24.939  1.00  0.00     0.170 HD
BRANCH  13  16
ATOM     16  C   UNL     1     -16.553 -42.656  25.151  1.00  0.00     0.041 A 
ATOM     17  C   UNL     1     -16.061 -42.566  23.843  1.00  0.00     0.014 A 
ATOM     18  C   UNL     1     -17.903 -42.389  25.410  1.00  0.00     0.034 A 
ATOM     19  C   UNL     1     -16.904 -42.180  22.800  1.00  0.00     0.002 A 
ATOM     20  C   UNL     1     -18.737 -42.004  24.360  1.00  0.00     0.041 A 
ATOM     21  C   UNL     1     -18.245 -41.894  23.060  1.00  0.00     0.020 A 
ATOM     22  Cl  UNL     1     -20.396 -41.669  24.675  1.00  0.00    -0.084 Cl
ENDBRANCH  13  16
ENDBRANCH   1  12
BRANCH   8  23
ATOM     23  C   UNL     1     -10.717 -44.007  31.766  1.00  0.00     0.260 C 
ATOM     24  O   UNL     1      -9.712 -43.835  32.452  1.00  0.00    -0.269 OA
BRANCH  23  25
ATOM     25  C   UNL     1     -12.036 -43.773  32.405  1.00  0.00     0.041 A 
ATOM     26  C   UNL     1     -13.115 -44.631  32.153  1.00  0.00     0.014 A 
ATOM     27  C   UNL     1     -12.200 -42.655  33.228  1.00  0.00     0.034 A 
ATOM     28  C   UNL     1     -14.350 -44.388  32.756  1.00  0.00     0.002 A 
ATOM     29  C   UNL     1     -13.436 -42.421  33.825  1.00  0.00     0.041 A 
ATOM     30  C   UNL     1     -14.509 -43.285  33.597  1.00  0.00     0.020 A 
ATOM     31  Cl  UNL     1     -13.647 -41.058  34.853  1.00  0.00    -0.084 Cl
ENDBRANCH  23  25
ENDBRANCH   8  23
TORSDOF 4
ENDMDL
MODEL 3
REMARK VINA RESULT:   -12.175      1.803      2.239
REMARK INTER + INTRA:         -15.947
REMARK INTER:                 -15.822
REMARK INTRA:                  -0.125
REMARK UNBOUND:                -0.924
REMARK SMILES O=C(Nc1ccc2c(c1)CN(C(=O)c1cccc(Cl)c1)C(=O)C2)c1cccc(Cl)c1
REMARK SMILES IDX 4 1 5 2 6 3 7 4 8 5 9 6 10 7 11 8 21 9 22 10 23 11 3 12 2 13
REMARK SMILES IDX 1 14 24 16 25 17 30 18 26 19 28 20 27 21 29 22 12 23 13 24
REMARK SMILES IDX 14 25 15 26 20 27 16 28 18 29 17 30 19 31
REMARK H PARENT 3 15
ROOT
ATOM      1  C   UNL     1     -13.967 -44.429  26.555  1.00  0.00     0.041 A 
ATOM      2  C   UNL     1     -13.710 -45.771  26.253  1.00  0.00     0.026 A 
ATOM      3  C   UNL     1     -12.716 -46.480  26.934  1.00  0.00     0.007 A 
ATOM      4  C   UNL     1     -11.975 -45.857  27.942  1.00  0.00    -0.033 A 
ATOM      5  C   UNL     1     -12.227 -44.518  28.252  1.00  0.00    -0.022 A 
ATOM      6  C   UNL     1     -13.212 -43.806  27.550  1.00  0.00     0.032 A 
ATOM      7  C   UNL     1     -11.387 -43.852  29.304  1.00  0.00     0.164 C 
ATOM      8  N   UNL     1     -11.010 -44.783  30.361  1.00  0.00    -0.274 N 
ATOM      9  C   UNL     1     -10.515 -46.032  30.034  1.00  0.00     0.234 C 
ATOM     10  O   UNL     1      -9.742 -46.668  30.754  1.00  0.00    -0.274 OA
ATOM     11  C   UNL     1     -10.870 -46.583  28.659  1.00  0.00     0.136 C 
ENDROOT
BRANCH   1  12
ATOM     12  N   UNL     1     -14.978 -43.783  25.811  1.00  0.00    -0.322 N 
ATOM     13  C   UNL     1     -14.815 -43.001  24.681  1.00  0.00     0.255 C 
ATOM     14  O   UNL     1     -13.758 -42.686  24.150  1.00  0.00    -0.269 OA
ATOM     15  H   UNL     1     -15.910 -43.854  26.194  1.00  0.00     0.170 HD
BRANCH  13  16
ATOM     16  C   UNL     1     -16.079 -42.473  24.094  1.00  0.00     0.041 A 
ATOM     17  C   UNL     1     -16.004 -41.722  22.914  1.00  0.00     0.014 A 
ATOM     18  C   UNL     1     -17.326 -42.740  24.674  1.00  0.00     0.034 A 
ATOM     19  C   UNL     1     -17.165 -41.213  22.330  1.00  0.00     0.002 A 
ATOM     20  C   UNL     1     -18.479 -42.226  24.082  1.00  0.00     0.041 A 
ATOM     21  C   UNL     1     -18.405 -41.462  22.919  1.00  0.00     0.020 A 
ATOM     22  Cl  UNL     1     -20.013 -42.547  24.795  1.00  0.00    -0.084 Cl
ENDBRANCH  13  16
ENDBRANCH   1  12
BRANCH   8  23
ATOM     23  C   UNL     1     -11.034 -44.412  31.697  1.00  0.00     0.260 C 
ATOM     24  O   UNL     1     -12.045 -44.421  32.394  1.00  0.00    -0.269 OA
BRANCH  23  25
ATOM     25  C   UNL     1      -9.795 -43.846  32.287  1.00  0.00     0.041 A 
ATOM     26  C   UNL     1      -8.544 -44.108  31.711  1.00  0.00     0.014 A 
ATOM     27  C   UNL     1      -9.889 -43.084  33.455  1.00  0.00     0.034 A 
ATOM     28  C   UNL     1      -7.390 -43.576  32.287  1.00  0.00     0.002 A 
ATOM     29  C   UNL     1      -8.732 -42.557  34.022  1.00  0.00     0.041 A 
ATOM     30  C   UNL     1      -7.485 -42.794  33.440  1.00  0.00     0.020 A 
ATOM     31  Cl  UNL     1      -8.836 -41.603  35.450  1.00  0.00    -0.084 Cl
ENDBRANCH  23  25
ENDBRANCH   8  23
TORSDOF 4
ENDMDL
MODEL 4
REMARK VINA RESULT:   -11.166      4.114     10.454
REMARK INTER + INTRA:         -14.701
REMARK INTER:                 -14.153
REMARK INTRA:                  -0.548
REMARK UNBOUND:                -0.924
REMARK SMILES O=C(Nc1ccc2c(c1)CN(C(=O)c1cccc(Cl)c1)C(=O)C2)c1cccc(Cl)c1
REMARK SMILES IDX 4 1 5 2 6 3 7 4 8 5 9 6 10 7 11 8 21 9 22 10 23 11 3 12 2 13
REMARK SMILES IDX 1 14 24 16 25 17 30 18 26 19 28 20 27 21 29 22 12 23 13 24
REMARK SMILES IDX 14 25 15 26 20 27 16 28 18 29 17 30 19 31
REMARK H PARENT 3 15
ROOT
ATOM      1  C   UNL     1     -15.624 -42.996  24.637  1.00  0.00     0.041 A 
ATOM      2  C   UNL     1     -14.952 -41.930  24.025  1.00  0.00     0.026 A 
ATOM      3  C   UNL     1     -15.592 -41.137  23.069  1.00  0.00     0.007 A 
ATOM      4  C   UNL     1     -16.921 -41.389  22.722  1.00  0.00    -0.033 A 
ATOM      5  C   UNL     1     -17.600 -42.450  23.329  1.00  0.00    -0.022 A 
ATOM      6  C   UNL     1     -16.946 -43.255  24.274  1.00  0.00     0.032 A 
ATOM      7  C   UNL     1     -19.013 -42.736  22.907  1.00  0.00     0.164 C 
ATOM      8  N   UNL     1     -19.732 -41.514  22.567  1.00  0.00    -0.274 N 
ATOM      9  C   UNL     1     -19.139 -40.572  21.745  1.00  0.00     0.234 C 
ATOM     10  O   UNL     1     -19.776 -39.802  21.024  1.00  0.00    -0.274 OA
ATOM     11  C   UNL     1     -17.619 -40.580  21.663  1.00  0.00     0.136 C 
ENDROOT
BRANCH   1  12
ATOM     12  N   UNL     1     -14.901 -43.755  25.582  1.00  0.00    -0.322 N 
ATOM     13  C   UNL     1     -14.991 -43.680  26.960  1.00  0.00     0.255 C 
ATOM     14  O   UNL     1     -15.679 -42.906  27.612  1.00  0.00    -0.269 OA
ATOM     15  H   UNL     1     -14.197 -44.371  25.196  1.00  0.00     0.170 HD
BRANCH  13  16
ATOM     16  C   UNL     1     -14.118 -44.636  27.700  1.00  0.00     0.041 A 
ATOM     17  C   UNL     1     -13.272 -45.475  26.963  1.00  0.00     0.014 A 
ATOM     18  C   UNL     1     -14.104 -44.684  29.100  1.00  0.00     0.034 A 
ATOM     19  C   UNL     1     -12.437 -46.381  27.618  1.00  0.00     0.002 A 
ATOM     20  C   UNL     1     -13.265 -45.593  29.744  1.00  0.00     0.041 A 
ATOM     21  C   UNL     1     -12.437 -46.443  29.012  1.00  0.00     0.020 A 
ATOM     22  Cl  UNL     1     -13.249 -45.660  31.464  1.00  0.00    -0.084 Cl
ENDBRANCH  13  16
ENDBRANCH   1  12
BRANCH   8  23
ATOM     23  C   UNL     1     -21.046 -41.312  22.961  1.00  0.00     0.260 C 
ATOM     24  O   UNL     1     -21.992 -41.233  22.181  1.00  0.00    -0.269 OA
BRANCH  23  25
ATOM     25  C   UNL     1     -21.311 -41.042  24.397  1.00  0.00     0.041 A 
ATOM     26  C   UNL     1     -20.405 -41.458  25.381  1.00  0.00     0.014 A 
ATOM     27  C   UNL     1     -22.503 -40.406  24.756  1.00  0.00     0.034 A 
ATOM     28  C   UNL     1     -20.678 -41.204  26.727  1.00  0.00     0.002 A 
ATOM     29  C   UNL     1     -22.765 -40.156  26.101  1.00  0.00     0.041 A 
ATOM     30  C   UNL     1     -21.856 -40.547  27.086  1.00  0.00     0.020 A 
ATOM     31  Cl  UNL     1     -24.221 -39.360  26.555  1.00  0.00    -0.084 Cl
ENDBRANCH  23  25
ENDBRANCH   8  23
TORSDOF 4
ENDMDL
MODEL 5
REMARK VINA RESULT:   -10.767      3.873     11.072
REMARK INTER + INTRA:         -14.209
REMARK INTER:                 -13.916
REMARK INTRA:                  -0.293
REMARK UNBOUND:                -0.924
REMARK SMILES O=C(Nc1ccc2c(c1)CN(C(=O)c1cccc(Cl)c1)C(=O)C2)c1cccc(Cl)c1
REMARK SMILES IDX 4 1 5 2 6 3 7 4 8 5 9 6 10 7 11 8 21 9 22 10 23 11 3 12 2 13
REMARK SMILES IDX 1 14 24 16 25 17 30 18 26 19 28 20 27 21 29 22 12 23 13 24
REMARK SMILES IDX 14 25 15 26 20 27 16 28 18 29 17 30 19 31
REMARK H PARENT 3 15
ROOT
ATOM      1  C   UNL     1     -16.366 -43.036  27.481  1.00  0.00     0.041 A 
ATOM      2  C   UNL     1     -17.142 -42.663  28.585  1.00  0.00     0.026 A 
ATOM      3  C   UNL     1     -18.408 -42.097  28.410  1.00  0.00     0.007 A 
ATOM      4  C   UNL     1     -18.923 -41.912  27.124  1.00  0.00    -0.033 A 
ATOM      5  C   UNL     1     -18.156 -42.285  26.017  1.00  0.00    -0.022 A 
ATOM      6  C   UNL     1     -16.878 -42.834  26.198  1.00  0.00     0.032 A 
ATOM      7  C   UNL     1     -18.708 -42.033  24.642  1.00  0.00     0.164 C 
ATOM      8  N   UNL     1     -20.157 -42.187  24.606  1.00  0.00    -0.274 N 
ATOM      9  C   UNL     1     -20.937 -41.591  25.581  1.00  0.00     0.234 C 
ATOM     10  O   UNL     1     -22.104 -41.240  25.397  1.00  0.00    -0.274 OA
ATOM     11  C   UNL     1     -20.263 -41.264  26.906  1.00  0.00     0.136 C 
ENDROOT
BRANCH   1  12
ATOM     12  N   UNL     1     -15.093 -43.588  27.745  1.00  0.00    -0.322 N 
ATOM     13  C   UNL     1     -14.285 -44.285  26.866  1.00  0.00     0.255 C 
ATOM     14  O   UNL     1     -14.549 -44.595  25.711  1.00  0.00    -0.269 OA
ATOM     15  H   UNL     1     -14.780 -43.514  28.703  1.00  0.00     0.170 HD
BRANCH  13  16
ATOM     16  C   UNL     1     -12.975 -44.722  27.427  1.00  0.00     0.041 A 
ATOM     17  C   UNL     1     -12.670 -46.089  27.421  1.00  0.00     0.014 A 
ATOM     18  C   UNL     1     -12.044 -43.800  27.920  1.00  0.00     0.034 A 
ATOM     19  C   UNL     1     -11.452 -46.539  27.934  1.00  0.00     0.002 A 
ATOM     20  C   UNL     1     -10.830 -44.261  28.431  1.00  0.00     0.041 A 
ATOM     21  C   UNL     1     -10.532 -45.623  28.445  1.00  0.00     0.020 A 
ATOM     22  Cl  UNL     1      -9.685 -43.132  29.044  1.00  0.00    -0.084 Cl
ENDBRANCH  13  16
ENDBRANCH   1  12
BRANCH   8  23
ATOM     23  C   UNL     1     -20.792 -42.831  23.555  1.00  0.00     0.260 C 
ATOM     24  O   UNL     1     -21.232 -43.976  23.617  1.00  0.00    -0.269 OA
BRANCH  23  25
ATOM     25  C   UNL     1     -20.828 -42.149  22.237  1.00  0.00     0.041 A 
ATOM     26  C   UNL     1     -20.976 -42.885  21.055  1.00  0.00     0.014 A 
ATOM     27  C   UNL     1     -20.665 -40.761  22.190  1.00  0.00     0.034 A 
ATOM     28  C   UNL     1     -20.996 -42.226  19.824  1.00  0.00     0.002 A 
ATOM     29  C   UNL     1     -20.688 -40.112  20.958  1.00  0.00     0.041 A 
ATOM     30  C   UNL     1     -20.858 -40.837  19.777  1.00  0.00     0.020 A 
ATOM     31  Cl  UNL     1     -20.505 -38.403  20.887  1.00  0.00    -0.084 Cl
ENDBRANCH  23  25
ENDBRANCH   8  23
TORSDOF 4
ENDMDL
MODEL 6
REMARK VINA RESULT:   -10.652      2.131      9.078
REMARK INTER + INTRA:         -14.067
REMARK INTER:                 -13.761
REMARK INTRA:                  -0.307
REMARK UNBOUND:                -0.924
REMARK SMILES O=C(Nc1ccc2c(c1)CN(C(=O)c1cccc(Cl)c1)C(=O)C2)c1cccc(Cl)c1
REMARK SMILES IDX 4 1 5 2 6 3 7 4 8 5 9 6 10 7 11 8 21 9 22 10 23 11 3 12 2 13
REMARK SMILES IDX 1 14 24 16 25 17 30 18 26 19 28 20 27 21 29 22 12 23 13 24
REMARK SMILES IDX 14 25 15 26 20 27 16 28 18 29 17 30 19 31
REMARK H PARENT 3 15
ROOT
ATOM      1  C   UNL     1     -11.479 -44.635  29.490  1.00  0.00     0.041 A 
ATOM      2  C   UNL     1     -11.033 -45.863  28.984  1.00  0.00     0.026 A 
ATOM      3  C   UNL     1     -11.651 -46.446  27.875  1.00  0.00     0.007 A 
ATOM      4  C   UNL     1     -12.717 -45.799  27.244  1.00  0.00    -0.033 A 
ATOM      5  C   UNL     1     -13.167 -44.572  27.741  1.00  0.00    -0.022 A 
ATOM      6  C   UNL     1     -12.555 -44.001  28.867  1.00  0.00     0.032 A 
ATOM      7  C   UNL     1     -14.345 -43.917  27.079  1.00  0.00     0.164 C 
ATOM      8  N   UNL     1     -14.367 -44.170  25.643  1.00  0.00    -0.274 N 
ATOM      9  C   UNL     1     -14.170 -45.454  25.168  1.00  0.00     0.234 C 
ATOM     10  O   UNL     1     -14.634 -45.864  24.103  1.00  0.00    -0.274 OA
ATOM     11  C   UNL     1     -13.430 -46.426  26.077  1.00  0.00     0.136 C 
ENDROOT
BRANCH   1  12
ATOM     12  N   UNL     1     -10.808 -44.122  30.621  1.00  0.00    -0.322 N 
ATOM     13  C   UNL     1     -11.356 -43.389  31.657  1.00  0.00     0.255 C 
ATOM     14  O   UNL     1     -12.515 -43.008  31.758  1.00  0.00    -0.269 OA
ATOM     15  H   UNL     1      -9.806 -44.257  30.628  1.00  0.00     0.170 HD
BRANCH  13  16
ATOM     16  C   UNL     1     -10.398 -43.008  32.734  1.00  0.00     0.041 A 
ATOM     17  C   UNL     1     -10.906 -42.434  33.907  1.00  0.00     0.014 A 
ATOM     18  C   UNL     1      -9.023 -43.242  32.609  1.00  0.00     0.034 A 
ATOM     19  C   UNL     1     -10.043 -42.067  34.940  1.00  0.00     0.002 A 
ATOM     20  C   UNL     1      -8.170 -42.870  33.649  1.00  0.00     0.041 A 
ATOM     21  C   UNL     1      -8.670 -42.281  34.808  1.00  0.00     0.020 A 
ATOM     22  Cl  UNL     1      -6.478 -43.150  33.497  1.00  0.00    -0.084 Cl
ENDBRANCH  13  16
ENDBRANCH   1  12
BRANCH   8  23
ATOM     23  C   UNL     1     -14.687 -43.173  24.735  1.00  0.00     0.260 C 
ATOM     24  O   UNL     1     -13.855 -42.479  24.156  1.00  0.00    -0.269 OA
BRANCH  23  25
ATOM     25  C   UNL     1     -16.120 -42.832  24.548  1.00  0.00     0.041 A 
ATOM     26  C   UNL     1     -16.668 -42.728  23.262  1.00  0.00     0.014 A 
ATOM     27  C   UNL     1     -16.906 -42.572  25.674  1.00  0.00     0.034 A 
ATOM     28  C   UNL     1     -18.015 -42.396  23.107  1.00  0.00     0.002 A 
ATOM     29  C   UNL     1     -18.249 -42.242  25.509  1.00  0.00     0.041 A 
ATOM     30  C   UNL     1     -18.807 -42.159  24.232  1.00  0.00     0.020 A 
ATOM     31  Cl  UNL     1     -19.231 -41.935  26.887  1.00  0.00    -0.084 Cl
ENDBRANCH  23  25
ENDBRANCH   8  23
TORSDOF 4
ENDMDL
MODEL 7
REMARK VINA RESULT:   -10.399      4.536      8.087
REMARK INTER + INTRA:         -13.755
REMARK INTER:                 -13.321
REMARK INTRA:                  -0.434
REMARK UNBOUND:                -0.924
REMARK SMILES O=C(Nc1ccc2c(c1)CN(C(=O)c1cccc(Cl)c1)C(=O)C2)c1cccc(Cl)c1
REMARK SMILES IDX 4 1 5 2 6 3 7 4 8 5 9 6 10 7 11 8 21 9 22 10 23 11 3 12 2 13
REMARK SMILES IDX 1 14 24 16 25 17 30 18 26 19 28 20 27 21 29 22 12 23 13 24
REMARK SMILES IDX 14 25 15 26 20 27 16 28 18 29 17 30 19 31
REMARK H PARENT 3 15
ROOT
ATOM      1  C   UNL     1     -20.103 -41.467  23.622  1.00  0.00     0.041 A 
ATOM      2  C   UNL     1     -20.693 -41.100  24.838  1.00  0.00     0.026 A 
ATOM      3  C   UNL     1     -20.070 -41.398  26.053  1.00  0.00     0.007 A 
ATOM      4  C   UNL     1     -18.837 -42.054  26.068  1.00  0.00    -0.033 A 
ATOM      5  C   UNL     1     -18.240 -42.422  24.859  1.00  0.00    -0.022 A 
ATOM      6  C   UNL     1     -18.879 -42.138  23.642  1.00  0.00     0.032 A 
ATOM      7  C   UNL     1     -16.938 -43.170  24.898  1.00  0.00     0.164 C 
ATOM      8  N   UNL     1     -16.106 -42.748  26.018  1.00  0.00    -0.274 N 
ATOM      9  C   UNL     1     -16.661 -42.631  27.280  1.00  0.00     0.234 C 
ATOM     10  O   UNL     1     -16.016 -42.771  28.322  1.00  0.00    -0.274 OA
ATOM     11  C   UNL     1     -18.167 -42.427  27.362  1.00  0.00     0.136 C 
ENDROOT
BRANCH   1  12
ATOM     12  N   UNL     1     -20.804 -41.140  22.441  1.00  0.00    -0.322 N 
ATOM     13  C   UNL     1     -20.820 -39.922  21.787  1.00  0.00     0.255 C 
ATOM     14  O   UNL     1     -20.267 -38.888  22.142  1.00  0.00    -0.269 OA
ATOM     15  H   UNL     1     -21.408 -41.867  22.081  1.00  0.00     0.170 HD
BRANCH  13  16
ATOM     16  C   UNL     1     -21.635 -39.888  20.539  1.00  0.00     0.041 A 
ATOM     17  C   UNL     1     -22.448 -40.989  20.244  1.00  0.00     0.014 A 
ATOM     18  C   UNL     1     -21.627 -38.776  19.688  1.00  0.00     0.034 A 
ATOM     19  C   UNL     1     -23.229 -40.996  19.087  1.00  0.00     0.002 A 
ATOM     20  C   UNL     1     -22.411 -38.793  18.534  1.00  0.00     0.041 A 
ATOM     21  C   UNL     1     -23.206 -39.896  18.227  1.00  0.00     0.020 A 
ATOM     22  Cl  UNL     1     -22.400 -37.431  17.482  1.00  0.00    -0.084 Cl
ENDBRANCH  13  16
ENDBRANCH   1  12
BRANCH   8  23
ATOM     23  C   UNL     1     -14.740 -42.559  25.878  1.00  0.00     0.260 C 
ATOM     24  O   UNL     1     -14.236 -41.699  25.160  1.00  0.00    -0.269 OA
BRANCH  23  25
ATOM     25  C   UNL     1     -13.830 -43.535  26.529  1.00  0.00     0.041 A 
ATOM     26  C   UNL     1     -14.062 -44.912  26.418  1.00  0.00     0.014 A 
ATOM     27  C   UNL     1     -12.762 -43.057  27.294  1.00  0.00     0.034 A 
ATOM     28  C   UNL     1     -13.200 -45.813  27.047  1.00  0.00     0.002 A 
ATOM     29  C   UNL     1     -11.908 -43.963  27.916  1.00  0.00     0.041 A 
ATOM     30  C   UNL     1     -12.119 -45.338  27.791  1.00  0.00     0.020 A 
ATOM     31  Cl  UNL     1     -10.580 -43.388  28.847  1.00  0.00    -0.084 Cl
ENDBRANCH  23  25
ENDBRANCH   8  23
TORSDOF 4
ENDMDL
MODEL 8
REMARK VINA RESULT:   -10.367      3.589     10.346
REMARK INTER + INTRA:         -13.715
REMARK INTER:                 -12.861
REMARK INTRA:                  -0.855
REMARK UNBOUND:                -0.924
REMARK SMILES O=C(Nc1ccc2c(c1)CN(C(=O)c1cccc(Cl)c1)C(=O)C2)c1cccc(Cl)c1
REMARK SMILES IDX 4 1 5 2 6 3 7 4 8 5 9 6 10 7 11 8 21 9 22 10 23 11 3 12 2 13
REMARK SMILES IDX 1 14 24 16 25 17 30 18 26 19 28 20 27 21 29 22 12 23 13 24
REMARK SMILES IDX 14 25 15 26 20 27 16 28 18 29 17 30 19 31
REMARK H PARENT 3 15
ROOT
ATOM      1  C   UNL     1     -15.077 -42.578  25.626  1.00  0.00     0.041 A 
ATOM      2  C   UNL     1     -14.796 -42.017  24.374  1.00  0.00     0.026 A 
ATOM      3  C   UNL     1     -15.812 -41.824  23.434  1.00  0.00     0.007 A 
ATOM      4  C   UNL     1     -17.129 -42.175  23.740  1.00  0.00    -0.033 A 
ATOM      5  C   UNL     1     -17.418 -42.734  24.988  1.00  0.00    -0.022 A 
ATOM      6  C   UNL     1     -16.391 -42.944  25.921  1.00  0.00     0.032 A 
ATOM      7  C   UNL     1     -18.832 -43.150  25.280  1.00  0.00     0.164 C 
ATOM      8  N   UNL     1     -19.797 -42.266  24.640  1.00  0.00    -0.274 N 
ATOM      9  C   UNL     1     -19.637 -41.918  23.311  1.00  0.00     0.234 C 
ATOM     10  O   UNL     1     -20.574 -41.621  22.568  1.00  0.00    -0.274 OA
ATOM     11  C   UNL     1     -18.233 -42.020  22.730  1.00  0.00     0.136 C 
ENDROOT
BRANCH   1  12
ATOM     12  N   UNL     1     -13.991 -42.752  26.512  1.00  0.00    -0.322 N 
ATOM     13  C   UNL     1     -13.400 -43.944  26.888  1.00  0.00     0.255 C 
ATOM     14  O   UNL     1     -13.743 -45.072  26.558  1.00  0.00    -0.269 OA
ATOM     15  H   UNL     1     -13.663 -41.909  26.965  1.00  0.00     0.170 HD
BRANCH  13  16
ATOM     16  C   UNL     1     -12.247 -43.808  27.822  1.00  0.00     0.041 A 
ATOM     17  C   UNL     1     -11.369 -42.731  27.645  1.00  0.00     0.014 A 
ATOM     18  C   UNL     1     -12.048 -44.705  28.879  1.00  0.00     0.034 A 
ATOM     19  C   UNL     1     -10.279 -42.565  28.501  1.00  0.00     0.002 A 
ATOM     20  C   UNL     1     -10.955 -44.530  29.728  1.00  0.00     0.041 A 
ATOM     21  C   UNL     1     -10.069 -43.470  29.542  1.00  0.00     0.020 A 
ATOM     22  Cl  UNL     1     -10.704 -45.634  31.024  1.00  0.00    -0.084 Cl
ENDBRANCH  13  16
ENDBRANCH   1  12
BRANCH   8  23
ATOM     23  C   UNL     1     -20.941 -41.841  25.299  1.00  0.00     0.260 C 
ATOM     24  O   UNL     1     -21.135 -40.683  25.660  1.00  0.00    -0.269 OA
BRANCH  23  25
ATOM     25  C   UNL     1     -21.931 -42.867  25.711  1.00  0.00     0.041 A 
ATOM     26  C   UNL     1     -22.815 -43.424  24.776  1.00  0.00     0.014 A 
ATOM     27  C   UNL     1     -22.001 -43.239  27.057  1.00  0.00     0.034 A 
ATOM     28  C   UNL     1     -23.746 -44.380  25.185  1.00  0.00     0.002 A 
ATOM     29  C   UNL     1     -22.933 -44.194  27.455  1.00  0.00     0.041 A 
ATOM     30  C   UNL     1     -23.801 -44.769  26.525  1.00  0.00     0.020 A 
ATOM     31  Cl  UNL     1     -23.018 -44.671  29.105  1.00  0.00    -0.084 Cl
ENDBRANCH  23  25
ENDBRANCH   8  23
TORSDOF 4
ENDMDL
