MODEL 1
REMARK VINA RESULT:   -12.315      0.000      0.000
REMARK INTER + INTRA:         -18.391
REMARK INTER:                 -17.355
REMARK INTRA:                  -1.036
REMARK UNBOUND:                -1.036
REMARK SMILES O=C1C(=NCCCN=c2c3c([nH]c4cc(Cl)ccc24)CCCC3)C=C(O)c2c(O)cccc21
REMARK SMILES IDX 5 1 4 2 3 3 25 4 24 5 27 6 28 7 33 8 2 9 30 10 32 11 31 12
REMARK SMILES IDX 1 13 26 14 29 16 6 18 7 19 8 20 9 21 10 22 19 23 11 24 23 25
REMARK SMILES IDX 18 26 13 27 12 28 20 29 22 30 17 31 14 32 21 33 15 34 16 36
REMARK H PARENT 26 15 29 17 12 35
ROOT
ATOM      1  C   UNL     1     -12.714 -44.870  27.731  1.00  0.00     0.145 C 
ENDROOT
BRANCH   1   2
ATOM      2  N   UNL     1     -13.645 -44.989  26.612  1.00  0.00    -0.281 NA
BRANCH   2   3
ATOM      3  C   UNL     1     -14.551 -44.086  26.433  1.00  0.00     0.109 C 
ATOM      4  C   UNL     1     -16.303 -42.768  27.525  1.00  0.00     0.129 C 
ATOM      5  C   UNL     1     -15.165 -43.461  27.626  1.00  0.00     0.079 C 
ATOM      6  C   UNL     1     -17.040 -42.635  26.256  1.00  0.00     0.069 A 
ATOM      7  C   UNL     1     -18.355 -42.151  26.182  1.00  0.00     0.127 A 
ATOM      8  C   UNL     1     -16.413 -42.983  25.051  1.00  0.00     0.039 A 
ATOM      9  C   UNL     1     -15.060 -43.577  25.085  1.00  0.00     0.211 C 
ATOM     10  C   UNL     1     -18.991 -41.939  24.959  1.00  0.00     0.047 A 
ATOM     11  C   UNL     1     -17.044 -42.781  23.815  1.00  0.00     0.013 A 
ATOM     12  C   UNL     1     -18.331 -42.248  23.772  1.00  0.00     0.005 A 
ATOM     13  O   UNL     1     -14.377 -43.633  24.074  1.00  0.00    -0.287 OA
BRANCH   4  14
ATOM     14  O   UNL     1     -16.816 -42.130  28.638  1.00  0.00    -0.507 OA
ATOM     15  H   UNL     1     -16.163 -42.219  29.363  1.00  0.00     0.293 HD
ENDBRANCH   4  14
BRANCH   7  16
ATOM     16  O   UNL     1     -19.092 -41.877  27.305  1.00  0.00    -0.507 OA
ATOM     17  H   UNL     1     -19.914 -42.406  27.252  1.00  0.00     0.293 HD
ENDBRANCH   7  16
ENDBRANCH   2   3
ENDBRANCH   1   2
BRANCH   1  18
ATOM     18  C   UNL     1     -12.694 -46.184  28.513  1.00  0.00     0.047 C 
BRANCH  18  19
ATOM     19  C   UNL     1     -11.427 -46.344  29.352  1.00  0.00     0.145 C 
BRANCH  19  20
ATOM     20  N   UNL     1     -11.684 -45.965  30.727  1.00  0.00    -0.284 NA
BRANCH  20  21
ATOM     21  C   UNL     1     -11.280 -44.919  31.350  1.00  0.00     0.072 A 
ATOM     22  C   UNL     1      -9.872 -44.474  31.706  1.00  0.00    -0.003 A 
ATOM     23  C   UNL     1     -12.375 -44.001  31.829  1.00  0.00     0.024 A 
ATOM     24  C   UNL     1      -9.725 -43.544  32.680  1.00  0.00     0.021 A 
ATOM     25  C   UNL     1      -8.694 -45.002  30.932  1.00  0.00     0.039 C 
ATOM     26  C   UNL     1     -13.685 -44.135  31.341  1.00  0.00     0.014 A 
ATOM     27  C   UNL     1     -12.084 -43.043  32.808  1.00  0.00     0.049 A 
ATOM     28  N   UNL     1     -10.787 -42.942  33.324  1.00  0.00    -0.358 N 
ATOM     29  C   UNL     1      -8.358 -43.061  33.126  1.00  0.00     0.054 C 
ATOM     30  C   UNL     1      -7.401 -44.210  31.128  1.00  0.00     0.005 C 
ATOM     31  C   UNL     1     -14.704 -43.318  31.833  1.00  0.00     0.021 A 
ATOM     32  C   UNL     1     -13.118 -42.247  33.317  1.00  0.00     0.047 A 
ATOM     33  C   UNL     1      -7.192 -43.893  32.599  1.00  0.00     0.007 C 
ATOM     34  C   UNL     1     -14.415 -42.382  32.822  1.00  0.00     0.043 A 
ATOM     35  H   UNL     1     -10.576 -42.118  33.875  1.00  0.00     0.166 HD
ATOM     36  Cl  UNL     1     -15.672 -41.384  33.445  1.00  0.00    -0.084 Cl
ENDBRANCH  20  21
ENDBRANCH  19  20
ENDBRANCH  18  19
ENDBRANCH   1  18
TORSDOF 8
ENDMDL
MODEL 2
REMARK VINA RESULT:   -12.222      0.964      2.054
REMARK INTER + INTRA:         -18.260
REMARK INTER:                 -17.199
REMARK INTRA:                  -1.061
REMARK UNBOUND:                -1.036
REMARK SMILES O=C1C(=NCCCN=c2c3c([nH]c4cc(Cl)ccc24)CCCC3)C=C(O)c2c(O)cccc21
REMARK SMILES IDX 5 1 4 2 3 3 25 4 24 5 27 6 28 7 33 8 2 9 30 10 32 11 31 12
REMARK SMILES IDX 1 13 26 14 29 16 6 18 7 19 8 20 9 21 10 22 19 23 11 24 23 25
REMARK SMILES IDX 18 26 13 27 12 28 20 29 22 30 17 31 14 32 21 33 15 34 16 36
REMARK H PARENT 26 15 29 17 12 35
ROOT
ATOM      1  C   UNL     1     -12.024 -44.681  27.891  1.00  0.00     0.145 C 
ENDROOT
BRANCH   1   2
ATOM      2  N   UNL     1     -12.909 -43.524  27.793  1.00  0.00    -0.281 NA
BRANCH   2   3
ATOM      3  C   UNL     1     -13.988 -43.599  27.088  1.00  0.00     0.109 C 
ATOM      4  C   UNL     1     -14.882 -43.760  24.813  1.00  0.00     0.129 C 
ATOM      5  C   UNL     1     -13.869 -43.967  25.659  1.00  0.00     0.079 C 
ATOM      6  C   UNL     1     -16.138 -43.106  25.225  1.00  0.00     0.069 A 
ATOM      7  C   UNL     1     -17.093 -42.639  24.309  1.00  0.00     0.127 A 
ATOM      8  C   UNL     1     -16.423 -42.952  26.589  1.00  0.00     0.039 A 
ATOM      9  C   UNL     1     -15.410 -43.351  27.589  1.00  0.00     0.211 C 
ATOM     10  C   UNL     1     -18.317 -42.119  24.729  1.00  0.00     0.047 A 
ATOM     11  C   UNL     1     -17.648 -42.424  27.023  1.00  0.00     0.013 A 
ATOM     12  C   UNL     1     -18.598 -42.017  26.088  1.00  0.00     0.005 A 
ATOM     13  O   UNL     1     -15.715 -43.495  28.763  1.00  0.00    -0.287 OA
BRANCH   4  14
ATOM     14  O   UNL     1     -14.775 -44.182  23.502  1.00  0.00    -0.507 OA
ATOM     15  H   UNL     1     -15.681 -44.313  23.154  1.00  0.00     0.293 HD
ENDBRANCH   4  14
BRANCH   7  16
ATOM     16  O   UNL     1     -16.869 -42.652  22.957  1.00  0.00    -0.507 OA
ATOM     17  H   UNL     1     -17.701 -42.933  22.525  1.00  0.00     0.293 HD
ENDBRANCH   7  16
ENDBRANCH   2   3
ENDBRANCH   1   2
BRANCH   1  18
ATOM     18  C   UNL     1     -12.673 -45.740  28.782  1.00  0.00     0.047 C 
BRANCH  18  19
ATOM     19  C   UNL     1     -11.654 -46.480  29.647  1.00  0.00     0.145 C 
BRANCH  19  20
ATOM     20  N   UNL     1     -11.763 -46.052  31.028  1.00  0.00    -0.284 NA
BRANCH  20  21
ATOM     21  C   UNL     1     -11.299 -44.985  31.566  1.00  0.00     0.072 A 
ATOM     22  C   UNL     1      -9.862 -44.556  31.812  1.00  0.00    -0.003 A 
ATOM     23  C   UNL     1     -12.343 -44.017  32.060  1.00  0.00     0.024 A 
ATOM     24  C   UNL     1      -9.636 -43.580  32.723  1.00  0.00     0.021 A 
ATOM     25  C   UNL     1      -8.746 -45.154  30.998  1.00  0.00     0.039 C 
ATOM     26  C   UNL     1     -13.683 -44.144  31.660  1.00  0.00     0.014 A 
ATOM     27  C   UNL     1     -11.972 -43.015  32.966  1.00  0.00     0.049 A 
ATOM     28  N   UNL     1     -10.643 -42.919  33.396  1.00  0.00    -0.358 N 
ATOM     29  C   UNL     1      -8.233 -43.107  33.058  1.00  0.00     0.054 C 
ATOM     30  C   UNL     1      -7.427 -44.384  31.071  1.00  0.00     0.005 C 
ATOM     31  C   UNL     1     -14.651 -43.277  32.167  1.00  0.00     0.021 A 
ATOM     32  C   UNL     1     -12.954 -42.167  33.491  1.00  0.00     0.047 A 
ATOM     33  C   UNL     1      -7.121 -43.994  32.507  1.00  0.00     0.007 C 
ATOM     34  C   UNL     1     -14.282 -42.297  33.084  1.00  0.00     0.043 A 
ATOM     35  H   UNL     1     -10.381 -42.071  33.887  1.00  0.00     0.166 HD
ATOM     36  Cl  UNL     1     -15.477 -41.237  33.726  1.00  0.00    -0.084 Cl
ENDBRANCH  20  21
ENDBRANCH  19  20
ENDBRANCH  18  19
ENDBRANCH   1  18
TORSDOF 8
ENDMDL
MODEL 3
REMARK VINA RESULT:   -12.069      1.909      3.732
REMARK INTER + INTRA:         -18.043
REMARK INTER:                 -17.081
REMARK INTRA:                  -0.962
REMARK UNBOUND:                -1.036
REMARK SMILES O=C1C(=NCCCN=c2c3c([nH]c4cc(Cl)ccc24)CCCC3)C=C(O)c2c(O)cccc21
REMARK SMILES IDX 5 1 4 2 3 3 25 4 24 5 27 6 28 7 33 8 2 9 30 10 32 11 31 12
REMARK SMILES IDX 1 13 26 14 29 16 6 18 7 19 8 20 9 21 10 22 19 23 11 24 23 25
REMARK SMILES IDX 18 26 13 27 12 28 20 29 22 30 17 31 14 32 21 33 15 34 16 36
REMARK H PARENT 26 15 29 17 12 35
ROOT
ATOM      1  C   UNL     1     -12.725 -44.856  27.886  1.00  0.00     0.145 C 
ENDROOT
BRANCH   1   2
ATOM      2  N   UNL     1     -13.663 -45.069  26.787  1.00  0.00    -0.281 NA
BRANCH   2   3
ATOM      3  C   UNL     1     -14.530 -44.157  26.498  1.00  0.00     0.109 C 
ATOM      4  C   UNL     1     -16.331 -42.757  27.390  1.00  0.00     0.129 C 
ATOM      5  C   UNL     1     -15.222 -43.467  27.611  1.00  0.00     0.079 C 
ATOM      6  C   UNL     1     -16.963 -42.665  26.061  1.00  0.00     0.069 A 
ATOM      7  C   UNL     1     -18.256 -42.159  25.862  1.00  0.00     0.127 A 
ATOM      8  C   UNL     1     -16.251 -43.078  24.926  1.00  0.00     0.039 A 
ATOM      9  C   UNL     1     -14.919 -43.698  25.094  1.00  0.00     0.211 C 
ATOM     10  C   UNL     1     -18.788 -41.988  24.584  1.00  0.00     0.047 A 
ATOM     11  C   UNL     1     -16.777 -42.918  23.636  1.00  0.00     0.013 A 
ATOM     12  C   UNL     1     -18.044 -42.362  23.468  1.00  0.00     0.005 A 
ATOM     13  O   UNL     1     -14.160 -43.812  24.144  1.00  0.00    -0.287 OA
BRANCH   4  14
ATOM     14  O   UNL     1     -16.915 -42.060  28.430  1.00  0.00    -0.507 OA
ATOM     15  H   UNL     1     -16.596 -42.450  29.270  1.00  0.00     0.293 HD
ENDBRANCH   4  14
BRANCH   7  16
ATOM     16  O   UNL     1     -19.073 -41.821  26.910  1.00  0.00    -0.507 OA
ATOM     17  H   UNL     1     -19.809 -41.288  26.548  1.00  0.00     0.293 HD
ENDBRANCH   7  16
ENDBRANCH   2   3
ENDBRANCH   1   2
BRANCH   1  18
ATOM     18  C   UNL     1     -12.041 -46.179  28.230  1.00  0.00     0.047 C 
BRANCH  18  19
ATOM     19  C   UNL     1     -10.640 -45.978  28.805  1.00  0.00     0.145 C 
BRANCH  19  20
ATOM     20  N   UNL     1     -10.653 -46.181  30.241  1.00  0.00    -0.284 NA
BRANCH  20  21
ATOM     21  C   UNL     1     -10.759 -45.298  31.165  1.00  0.00     0.072 A 
ATOM     22  C   UNL     1     -11.994 -44.637  31.752  1.00  0.00    -0.003 A 
ATOM     23  C   UNL     1      -9.450 -44.817  31.737  1.00  0.00     0.024 A 
ATOM     24  C   UNL     1     -11.834 -43.480  32.436  1.00  0.00     0.021 A 
ATOM     25  C   UNL     1     -13.337 -45.308  31.635  1.00  0.00     0.039 C 
ATOM     26  C   UNL     1      -8.261 -45.523  31.496  1.00  0.00     0.014 A 
ATOM     27  C   UNL     1      -9.423 -43.625  32.473  1.00  0.00     0.049 A 
ATOM     28  N   UNL     1     -10.603 -42.901  32.674  1.00  0.00    -0.358 N 
ATOM     29  C   UNL     1     -13.012 -42.732  33.032  1.00  0.00     0.054 C 
ATOM     30  C   UNL     1     -14.407 -44.749  32.573  1.00  0.00     0.005 C 
ATOM     31  C   UNL     1      -7.046 -45.039  31.983  1.00  0.00     0.021 A 
ATOM     32  C   UNL     1      -8.196 -43.131  32.934  1.00  0.00     0.047 A 
ATOM     33  C   UNL     1     -14.376 -43.230  32.565  1.00  0.00     0.007 C 
ATOM     34  C   UNL     1      -7.020 -43.842  32.694  1.00  0.00     0.043 A 
ATOM     35  H   UNL     1     -10.575 -42.163  33.369  1.00  0.00     0.166 HD
ATOM     36  Cl  UNL     1      -5.522 -43.232  33.282  1.00  0.00    -0.084 Cl
ENDBRANCH  20  21
ENDBRANCH  19  20
ENDBRANCH  18  19
ENDBRANCH   1  18
TORSDOF 8
ENDMDL
MODEL 4
REMARK VINA RESULT:   -11.843      2.227      4.252
REMARK INTER + INTRA:         -17.726
REMARK INTER:                 -16.670
REMARK INTRA:                  -1.056
REMARK UNBOUND:                -1.036
REMARK SMILES O=C1C(=NCCCN=c2c3c([nH]c4cc(Cl)ccc24)CCCC3)C=C(O)c2c(O)cccc21
REMARK SMILES IDX 5 1 4 2 3 3 25 4 24 5 27 6 28 7 33 8 2 9 30 10 32 11 31 12
REMARK SMILES IDX 1 13 26 14 29 16 6 18 7 19 8 20 9 21 10 22 19 23 11 24 23 25
REMARK SMILES IDX 18 26 13 27 12 28 20 29 22 30 17 31 14 32 21 33 15 34 16 36
REMARK H PARENT 26 15 29 17 12 35
ROOT
ATOM      1  C   UNL     1     -12.850 -43.959  27.017  1.00  0.00     0.145 C 
ENDROOT
BRANCH   1   2
ATOM      2  N   UNL     1     -13.711 -42.783  26.939  1.00  0.00    -0.281 NA
BRANCH   2   3
ATOM      3  C   UNL     1     -14.928 -42.905  26.523  1.00  0.00     0.109 C 
ATOM      4  C   UNL     1     -16.367 -42.969  24.543  1.00  0.00     0.129 C 
ATOM      5  C   UNL     1     -15.157 -43.145  25.081  1.00  0.00     0.079 C 
ATOM      6  C   UNL     1     -17.517 -42.474  25.321  1.00  0.00     0.069 A 
ATOM      7  C   UNL     1     -18.708 -42.030  24.728  1.00  0.00     0.127 A 
ATOM      8  C   UNL     1     -17.449 -42.457  26.722  1.00  0.00     0.039 A 
ATOM      9  C   UNL     1     -16.185 -42.836  27.389  1.00  0.00     0.211 C 
ATOM     10  C   UNL     1     -19.816 -41.665  25.492  1.00  0.00     0.047 A 
ATOM     11  C   UNL     1     -18.554 -42.086  27.501  1.00  0.00     0.013 A 
ATOM     12  C   UNL     1     -19.742 -41.700  26.882  1.00  0.00     0.005 A 
ATOM     13  O   UNL     1     -16.164 -43.101  28.581  1.00  0.00    -0.287 OA
BRANCH   4  14
ATOM     14  O   UNL     1     -16.573 -43.272  23.211  1.00  0.00    -0.507 OA
ATOM     15  H   UNL     1     -17.535 -43.399  23.077  1.00  0.00     0.293 HD
ENDBRANCH   4  14
BRANCH   7  16
ATOM     16  O   UNL     1     -18.842 -41.913  23.369  1.00  0.00    -0.507 OA
ATOM     17  H   UNL     1     -19.762 -41.630  23.189  1.00  0.00     0.293 HD
ENDBRANCH   7  16
ENDBRANCH   2   3
ENDBRANCH   1   2
BRANCH   1  18
ATOM     18  C   UNL     1     -12.552 -44.271  28.484  1.00  0.00     0.047 C 
BRANCH  18  19
ATOM     19  C   UNL     1     -13.412 -45.412  29.024  1.00  0.00     0.145 C 
BRANCH  19  20
ATOM     20  N   UNL     1     -12.937 -45.824  30.330  1.00  0.00    -0.284 NA
BRANCH  20  21
ATOM     21  C   UNL     1     -12.411 -45.098  31.247  1.00  0.00     0.072 A 
ATOM     22  C   UNL     1     -13.040 -44.049  32.147  1.00  0.00    -0.003 A 
ATOM     23  C   UNL     1     -10.929 -45.296  31.442  1.00  0.00     0.024 A 
ATOM     24  C   UNL     1     -12.220 -43.162  32.761  1.00  0.00     0.021 A 
ATOM     25  C   UNL     1     -14.523 -44.062  32.401  1.00  0.00     0.039 C 
ATOM     26  C   UNL     1     -10.277 -46.408  30.887  1.00  0.00     0.014 A 
ATOM     27  C   UNL     1     -10.197 -44.328  32.141  1.00  0.00     0.049 A 
ATOM     28  N   UNL     1     -10.844 -43.198  32.655  1.00  0.00    -0.358 N 
ATOM     29  C   UNL     1     -12.758 -42.060  33.654  1.00  0.00     0.054 C 
ATOM     30  C   UNL     1     -14.969 -43.215  33.593  1.00  0.00     0.005 C 
ATOM     31  C   UNL     1      -8.896 -46.552  31.025  1.00  0.00     0.021 A 
ATOM     32  C   UNL     1      -8.808 -44.465  32.251  1.00  0.00     0.047 A 
ATOM     33  C   UNL     1     -14.270 -41.867  33.576  1.00  0.00     0.007 C 
ATOM     34  C   UNL     1      -8.168 -45.576  31.702  1.00  0.00     0.043 A 
ATOM     35  H   UNL     1     -10.323 -42.632  33.316  1.00  0.00     0.166 HD
ATOM     36  Cl  UNL     1      -6.462 -45.740  31.859  1.00  0.00    -0.084 Cl
ENDBRANCH  20  21
ENDBRANCH  19  20
ENDBRANCH  18  19
ENDBRANCH   1  18
TORSDOF 8
ENDMDL
MODEL 5
REMARK VINA RESULT:   -11.392      3.887      9.527
REMARK INTER + INTRA:         -17.089
REMARK INTER:                 -16.186
REMARK INTRA:                  -0.904
REMARK UNBOUND:                -1.036
REMARK SMILES O=C1C(=NCCCN=c2c3c([nH]c4cc(Cl)ccc24)CCCC3)C=C(O)c2c(O)cccc21
REMARK SMILES IDX 5 1 4 2 3 3 25 4 24 5 27 6 28 7 33 8 2 9 30 10 32 11 31 12
REMARK SMILES IDX 1 13 26 14 29 16 6 18 7 19 8 20 9 21 10 22 19 23 11 24 23 25
REMARK SMILES IDX 18 26 13 27 12 28 20 29 22 30 17 31 14 32 21 33 15 34 16 36
REMARK H PARENT 26 15 29 17 12 35
ROOT
ATOM      1  C   UNL     1     -13.837 -43.363  25.731  1.00  0.00     0.145 C 
ENDROOT
BRANCH   1   2
ATOM      2  N   UNL     1     -14.237 -44.656  26.278  1.00  0.00    -0.281 NA
BRANCH   2   3
ATOM      3  C   UNL     1     -13.753 -45.053  27.407  1.00  0.00     0.109 C 
ATOM      4  C   UNL     1     -13.747 -44.668  29.826  1.00  0.00     0.129 C 
ATOM      5  C   UNL     1     -14.377 -44.555  28.654  1.00  0.00     0.079 C 
ATOM      6  C   UNL     1     -12.390 -45.229  29.946  1.00  0.00     0.069 A 
ATOM      7  C   UNL     1     -11.613 -45.110  31.108  1.00  0.00     0.127 A 
ATOM      8  C   UNL     1     -11.836 -45.937  28.870  1.00  0.00     0.039 A 
ATOM      9  C   UNL     1     -12.581 -46.016  27.595  1.00  0.00     0.211 C 
ATOM     10  C   UNL     1     -10.374 -45.740  31.229  1.00  0.00     0.047 A 
ATOM     11  C   UNL     1     -10.588 -46.569  28.976  1.00  0.00     0.013 A 
ATOM     12  C   UNL     1      -9.863 -46.477  30.163  1.00  0.00     0.005 A 
ATOM     13  O   UNL     1     -12.277 -46.837  26.744  1.00  0.00    -0.287 OA
BRANCH   4  14
ATOM     14  O   UNL     1     -14.382 -44.265  30.985  1.00  0.00    -0.507 OA
ATOM     15  H   UNL     1     -15.174 -43.748  30.730  1.00  0.00     0.293 HD
ENDBRANCH   4  14
BRANCH   7  16
ATOM     16  O   UNL     1     -12.018 -44.357  32.179  1.00  0.00    -0.507 OA
ATOM     17  H   UNL     1     -11.224 -43.916  32.544  1.00  0.00     0.293 HD
ENDBRANCH   7  16
ENDBRANCH   2   3
ENDBRANCH   1   2
BRANCH   1  18
ATOM     18  C   UNL     1     -14.288 -43.269  24.274  1.00  0.00     0.047 C 
BRANCH  18  19
ATOM     19  C   UNL     1     -15.175 -42.052  24.015  1.00  0.00     0.145 C 
BRANCH  19  20
ATOM     20  N   UNL     1     -16.520 -42.474  23.676  1.00  0.00    -0.284 NA
BRANCH  20  21
ATOM     21  C   UNL     1     -17.626 -42.095  24.203  1.00  0.00     0.072 A 
ATOM     22  C   UNL     1     -18.165 -42.308  25.607  1.00  0.00    -0.003 A 
ATOM     23  C   UNL     1     -18.549 -41.348  23.275  1.00  0.00     0.024 A 
ATOM     24  C   UNL     1     -19.495 -42.149  25.810  1.00  0.00     0.021 A 
ATOM     25  C   UNL     1     -17.222 -42.605  26.742  1.00  0.00     0.039 C 
ATOM     26  C   UNL     1     -18.079 -40.843  22.053  1.00  0.00     0.014 A 
ATOM     27  C   UNL     1     -19.899 -41.207  23.622  1.00  0.00     0.049 A 
ATOM     28  N   UNL     1     -20.373 -41.751  24.822  1.00  0.00    -0.358 N 
ATOM     29  C   UNL     1     -20.130 -42.369  27.170  1.00  0.00     0.054 C 
ATOM     30  C   UNL     1     -17.828 -42.423  28.134  1.00  0.00     0.005 C 
ATOM     31  C   UNL     1     -18.955 -40.202  21.175  1.00  0.00     0.021 A 
ATOM     32  C   UNL     1     -20.777 -40.588  22.724  1.00  0.00     0.047 A 
ATOM     33  C   UNL     1     -19.215 -43.040  28.191  1.00  0.00     0.007 C 
ATOM     34  C   UNL     1     -20.300 -40.083  21.514  1.00  0.00     0.043 A 
ATOM     35  H   UNL     1     -21.295 -41.457  25.125  1.00  0.00     0.166 HD
ATOM     36  Cl  UNL     1     -21.388 -39.310  20.427  1.00  0.00    -0.084 Cl
ENDBRANCH  20  21
ENDBRANCH  19  20
ENDBRANCH  18  19
ENDBRANCH   1  18
TORSDOF 8
ENDMDL
MODEL 6
REMARK VINA RESULT:   -11.012      4.077     10.048
REMARK INTER + INTRA:         -16.555
REMARK INTER:                 -15.930
REMARK INTRA:                  -0.625
REMARK UNBOUND:                -1.036
REMARK SMILES O=C1C(=NCCCN=c2c3c([nH]c4cc(Cl)ccc24)CCCC3)C=C(O)c2c(O)cccc21
REMARK SMILES IDX 5 1 4 2 3 3 25 4 24 5 27 6 28 7 33 8 2 9 30 10 32 11 31 12
REMARK SMILES IDX 1 13 26 14 29 16 6 18 7 19 8 20 9 21 10 22 19 23 11 24 23 25
REMARK SMILES IDX 18 26 13 27 12 28 20 29 22 30 17 31 14 32 21 33 15 34 16 36
REMARK H PARENT 26 15 29 17 12 35
ROOT
ATOM      1  C   UNL     1     -14.066 -42.906  25.481  1.00  0.00     0.145 C 
ENDROOT
BRANCH   1   2
ATOM      2  N   UNL     1     -13.795 -44.047  26.351  1.00  0.00    -0.281 NA
BRANCH   2   3
ATOM      3  C   UNL     1     -12.957 -43.925  27.326  1.00  0.00     0.109 C 
ATOM      4  C   UNL     1     -10.880 -42.850  28.055  1.00  0.00     0.129 C 
ATOM      5  C   UNL     1     -11.951 -42.840  27.258  1.00  0.00     0.079 C 
ATOM      6  C   UNL     1     -10.601 -43.952  28.994  1.00  0.00     0.069 A 
ATOM      7  C   UNL     1      -9.363 -44.115  29.635  1.00  0.00     0.127 A 
ATOM      8  C   UNL     1     -11.609 -44.879  29.293  1.00  0.00     0.039 A 
ATOM      9  C   UNL     1     -12.901 -44.798  28.579  1.00  0.00     0.211 C 
ATOM     10  C   UNL     1      -9.161 -45.105  30.597  1.00  0.00     0.047 A 
ATOM     11  C   UNL     1     -11.416 -45.883  30.253  1.00  0.00     0.013 A 
ATOM     12  C   UNL     1     -10.192 -45.987  30.912  1.00  0.00     0.005 A 
ATOM     13  O   UNL     1     -13.883 -45.392  28.996  1.00  0.00    -0.287 OA
BRANCH   4  14
ATOM     14  O   UNL     1      -9.996 -41.789  28.026  1.00  0.00    -0.507 OA
ATOM     15  H   UNL     1      -9.292 -42.002  27.379  1.00  0.00     0.293 HD
ENDBRANCH   4  14
BRANCH   7  16
ATOM     16  O   UNL     1      -8.283 -43.325  29.340  1.00  0.00    -0.507 OA
ATOM     17  H   UNL     1      -8.375 -43.040  28.408  1.00  0.00     0.293 HD
ENDBRANCH   7  16
ENDBRANCH   2   3
ENDBRANCH   1   2
BRANCH   1  18
ATOM     18  C   UNL     1     -14.946 -43.358  24.315  1.00  0.00     0.047 C 
BRANCH  18  19
ATOM     19  C   UNL     1     -15.592 -42.184  23.583  1.00  0.00     0.145 C 
BRANCH  19  20
ATOM     20  N   UNL     1     -16.984 -42.475  23.297  1.00  0.00    -0.284 NA
BRANCH  20  21
ATOM     21  C   UNL     1     -18.027 -41.977  23.851  1.00  0.00     0.072 A 
ATOM     22  C   UNL     1     -18.575 -42.164  25.256  1.00  0.00    -0.003 A 
ATOM     23  C   UNL     1     -18.858 -41.089  22.960  1.00  0.00     0.024 A 
ATOM     24  C   UNL     1     -19.871 -41.846  25.483  1.00  0.00     0.021 A 
ATOM     25  C   UNL     1     -17.664 -42.615  26.367  1.00  0.00     0.039 C 
ATOM     26  C   UNL     1     -18.341 -40.608  21.747  1.00  0.00     0.014 A 
ATOM     27  C   UNL     1     -20.176 -40.790  23.331  1.00  0.00     0.049 A 
ATOM     28  N   UNL     1     -20.702 -41.308  24.520  1.00  0.00    -0.358 N 
ATOM     29  C   UNL     1     -20.515 -42.027  26.845  1.00  0.00     0.054 C 
ATOM     30  C   UNL     1     -18.228 -42.403  27.773  1.00  0.00     0.005 C 
ATOM     31  C   UNL     1     -19.138 -39.834  20.903  1.00  0.00     0.021 A 
ATOM     32  C   UNL     1     -20.978 -40.037  22.465  1.00  0.00     0.047 A 
ATOM     33  C   UNL     1     -19.681 -42.841  27.831  1.00  0.00     0.007 C 
ATOM     34  C   UNL     1     -20.454 -39.558  21.265  1.00  0.00     0.043 A 
ATOM     35  H   UNL     1     -21.576 -40.911  24.845  1.00  0.00     0.166 HD
ATOM     36  Cl  UNL     1     -21.446 -38.618  20.218  1.00  0.00    -0.084 Cl
ENDBRANCH  20  21
ENDBRANCH  19  20
ENDBRANCH  18  19
ENDBRANCH   1  18
TORSDOF 8
ENDMDL
MODEL 7
REMARK VINA RESULT:   -10.641      3.820      8.806
REMARK INTER + INTRA:         -16.031
REMARK INTER:                 -15.233
REMARK INTRA:                  -0.799
REMARK UNBOUND:                -1.036
REMARK SMILES O=C1C(=NCCCN=c2c3c([nH]c4cc(Cl)ccc24)CCCC3)C=C(O)c2c(O)cccc21
REMARK SMILES IDX 5 1 4 2 3 3 25 4 24 5 27 6 28 7 33 8 2 9 30 10 32 11 31 12
REMARK SMILES IDX 1 13 26 14 29 16 6 18 7 19 8 20 9 21 10 22 19 23 11 24 23 25
REMARK SMILES IDX 18 26 13 27 12 28 20 29 22 30 17 31 14 32 21 33 15 34 16 36
REMARK H PARENT 26 15 29 17 12 35
ROOT
ATOM      1  C   UNL     1     -13.067 -45.693  27.062  1.00  0.00     0.145 C 
ENDROOT
BRANCH   1   2
ATOM      2  N   UNL     1     -11.932 -45.509  27.962  1.00  0.00    -0.281 NA
BRANCH   2   3
ATOM      3  C   UNL     1     -12.135 -45.370  29.230  1.00  0.00     0.109 C 
ATOM      4  C   UNL     1     -13.434 -46.169  31.146  1.00  0.00     0.129 C 
ATOM      5  C   UNL     1     -12.929 -46.403  29.933  1.00  0.00     0.079 C 
ATOM      6  C   UNL     1     -13.289 -44.869  31.828  1.00  0.00     0.069 A 
ATOM      7  C   UNL     1     -14.031 -44.516  32.966  1.00  0.00     0.127 A 
ATOM      8  C   UNL     1     -12.360 -43.935  31.348  1.00  0.00     0.039 A 
ATOM      9  C   UNL     1     -11.618 -44.227  30.103  1.00  0.00     0.211 C 
ATOM     10  C   UNL     1     -13.799 -43.322  33.649  1.00  0.00     0.047 A 
ATOM     11  C   UNL     1     -12.123 -42.729  32.022  1.00  0.00     0.013 A 
ATOM     12  C   UNL     1     -12.838 -42.430  33.181  1.00  0.00     0.005 A 
ATOM     13  O   UNL     1     -10.620 -43.589  29.807  1.00  0.00    -0.287 OA
BRANCH   4  14
ATOM     14  O   UNL     1     -14.106 -47.174  31.813  1.00  0.00    -0.507 OA
ATOM     15  H   UNL     1     -13.533 -47.968  31.817  1.00  0.00     0.293 HD
ENDBRANCH   4  14
BRANCH   7  16
ATOM     16  O   UNL     1     -15.032 -45.313  33.456  1.00  0.00    -0.507 OA
ATOM     17  H   UNL     1     -14.625 -45.938  34.090  1.00  0.00     0.293 HD
ENDBRANCH   7  16
ENDBRANCH   2   3
ENDBRANCH   1   2
BRANCH   1  18
ATOM     18  C   UNL     1     -13.614 -44.326  26.653  1.00  0.00     0.047 C 
BRANCH  18  19
ATOM     19  C   UNL     1     -14.487 -44.397  25.401  1.00  0.00     0.145 C 
BRANCH  19  20
ATOM     20  N   UNL     1     -15.016 -43.085  25.081  1.00  0.00    -0.284 NA
BRANCH  20  21
ATOM     21  C   UNL     1     -16.194 -42.630  25.304  1.00  0.00     0.072 A 
ATOM     22  C   UNL     1     -17.040 -42.676  26.565  1.00  0.00    -0.003 A 
ATOM     23  C   UNL     1     -16.855 -41.974  24.119  1.00  0.00     0.024 A 
ATOM     24  C   UNL     1     -18.373 -42.471  26.445  1.00  0.00     0.021 A 
ATOM     25  C   UNL     1     -16.385 -42.863  27.907  1.00  0.00     0.039 C 
ATOM     26  C   UNL     1     -16.105 -41.616  22.988  1.00  0.00     0.014 A 
ATOM     27  C   UNL     1     -18.241 -41.770  24.137  1.00  0.00     0.049 A 
ATOM     28  N   UNL     1     -18.992 -42.169  25.249  1.00  0.00    -0.358 N 
ATOM     29  C   UNL     1     -19.303 -42.527  27.643  1.00  0.00     0.054 C 
ATOM     30  C   UNL     1     -17.277 -42.517  29.100  1.00  0.00     0.005 C 
ATOM     31  C   UNL     1     -16.736 -41.060  21.875  1.00  0.00     0.021 A 
ATOM     32  C   UNL     1     -18.871 -41.239  23.005  1.00  0.00     0.047 A 
ATOM     33  C   UNL     1     -18.667 -43.097  28.908  1.00  0.00     0.007 C 
ATOM     34  C   UNL     1     -18.116 -40.880  21.887  1.00  0.00     0.043 A 
ATOM     35  H   UNL     1     -19.945 -41.827  25.304  1.00  0.00     0.166 HD
ATOM     36  Cl  UNL     1     -18.902 -40.212  20.509  1.00  0.00    -0.084 Cl
ENDBRANCH  20  21
ENDBRANCH  19  20
ENDBRANCH  18  19
ENDBRANCH   1  18
TORSDOF 8
ENDMDL
MODEL 8
REMARK VINA RESULT:   -10.539      3.464      9.109
REMARK INTER + INTRA:         -15.888
REMARK INTER:                 -15.117
REMARK INTRA:                  -0.771
REMARK UNBOUND:                -1.036
REMARK SMILES O=C1C(=NCCCN=c2c3c([nH]c4cc(Cl)ccc24)CCCC3)C=C(O)c2c(O)cccc21
REMARK SMILES IDX 5 1 4 2 3 3 25 4 24 5 27 6 28 7 33 8 2 9 30 10 32 11 31 12
REMARK SMILES IDX 1 13 26 14 29 16 6 18 7 19 8 20 9 21 10 22 19 23 11 24 23 25
REMARK SMILES IDX 18 26 13 27 12 28 20 29 22 30 17 31 14 32 21 33 15 34 16 36
REMARK H PARENT 26 15 29 17 12 35
ROOT
ATOM      1  C   UNL     1     -14.995 -43.982  30.353  1.00  0.00     0.145 C 
ENDROOT
BRANCH   1   2
ATOM      2  N   UNL     1     -13.989 -43.911  31.409  1.00  0.00    -0.281 NA
BRANCH   2   3
ATOM      3  C   UNL     1     -12.745 -44.110  31.124  1.00  0.00     0.109 C 
ATOM      4  C   UNL     1     -11.156 -45.650  30.073  1.00  0.00     0.129 C 
ATOM      5  C   UNL     1     -12.406 -45.189  30.169  1.00  0.00     0.079 C 
ATOM      6  C   UNL     1     -10.065 -45.167  30.939  1.00  0.00     0.069 A 
ATOM      7  C   UNL     1      -8.826 -45.817  31.041  1.00  0.00     0.127 A 
ATOM      8  C   UNL     1     -10.242 -43.994  31.687  1.00  0.00     0.039 A 
ATOM      9  C   UNL     1     -11.558 -43.322  31.677  1.00  0.00     0.211 C 
ATOM     10  C   UNL     1      -7.776 -45.280  31.788  1.00  0.00     0.047 A 
ATOM     11  C   UNL     1      -9.197 -43.449  32.446  1.00  0.00     0.013 A 
ATOM     12  C   UNL     1      -7.960 -44.090  32.486  1.00  0.00     0.005 A 
ATOM     13  O   UNL     1     -11.676 -42.174  32.076  1.00  0.00    -0.287 OA
BRANCH   4  14
ATOM     14  O   UNL     1     -10.850 -46.603  29.122  1.00  0.00    -0.507 OA
ATOM     15  H   UNL     1     -10.178 -46.222  28.520  1.00  0.00     0.293 HD
ENDBRANCH   4  14
BRANCH   7  16
ATOM     16  O   UNL     1      -8.584 -47.020  30.431  1.00  0.00    -0.507 OA
ATOM     17  H   UNL     1      -9.134 -47.054  29.622  1.00  0.00     0.293 HD
ENDBRANCH   7  16
ENDBRANCH   2   3
ENDBRANCH   1   2
BRANCH   1  18
ATOM     18  C   UNL     1     -15.949 -42.795  30.483  1.00  0.00     0.047 C 
BRANCH  18  19
ATOM     19  C   UNL     1     -17.170 -42.926  29.574  1.00  0.00     0.145 C 
BRANCH  19  20
ATOM     20  N   UNL     1     -17.028 -42.065  28.416  1.00  0.00    -0.284 NA
BRANCH  20  21
ATOM     21  C   UNL     1     -17.119 -42.383  27.177  1.00  0.00     0.072 A 
ATOM     22  C   UNL     1     -16.093 -43.009  26.248  1.00  0.00    -0.003 A 
ATOM     23  C   UNL     1     -18.441 -42.055  26.532  1.00  0.00     0.024 A 
ATOM     24  C   UNL     1     -16.290 -42.900  24.913  1.00  0.00     0.021 A 
ATOM     25  C   UNL     1     -14.941 -43.795  26.816  1.00  0.00     0.039 C 
ATOM     26  C   UNL     1     -19.560 -41.736  27.317  1.00  0.00     0.014 A 
ATOM     27  C   UNL     1     -18.530 -42.022  25.134  1.00  0.00     0.049 A 
ATOM     28  N   UNL     1     -17.400 -42.298  24.355  1.00  0.00    -0.358 N 
ATOM     29  C   UNL     1     -15.305 -43.466  23.908  1.00  0.00     0.054 C 
ATOM     30  C   UNL     1     -14.212 -44.674  25.799  1.00  0.00     0.005 C 
ATOM     31  C   UNL     1     -20.764 -41.379  26.709  1.00  0.00     0.021 A 
ATOM     32  C   UNL     1     -19.733 -41.635  24.532  1.00  0.00     0.047 A 
ATOM     33  C   UNL     1     -13.973 -43.906  24.511  1.00  0.00     0.007 C 
ATOM     34  C   UNL     1     -20.843 -41.326  25.320  1.00  0.00     0.043 A 
ATOM     35  H   UNL     1     -17.554 -42.457  23.366  1.00  0.00     0.166 HD
ATOM     36  Cl  UNL     1     -22.321 -40.868  24.566  1.00  0.00    -0.084 Cl
ENDBRANCH  20  21
ENDBRANCH  19  20
ENDBRANCH  18  19
ENDBRANCH   1  18
TORSDOF 8
ENDMDL
MODEL 9
REMARK VINA RESULT:   -10.253      3.571      9.970
REMARK INTER + INTRA:         -15.485
REMARK INTER:                 -15.020
REMARK INTRA:                  -0.465
REMARK UNBOUND:                -1.036
REMARK SMILES O=C1C(=NCCCN=c2c3c([nH]c4cc(Cl)ccc24)CCCC3)C=C(O)c2c(O)cccc21
REMARK SMILES IDX 5 1 4 2 3 3 25 4 24 5 27 6 28 7 33 8 2 9 30 10 32 11 31 12
REMARK SMILES IDX 1 13 26 14 29 16 6 18 7 19 8 20 9 21 10 22 19 23 11 24 23 25
REMARK SMILES IDX 18 26 13 27 12 28 20 29 22 30 17 31 14 32 21 33 15 34 16 36
REMARK H PARENT 26 15 29 17 12 35
ROOT
ATOM      1  C   UNL     1     -15.395 -43.498  26.499  1.00  0.00     0.145 C 
ENDROOT
BRANCH   1   2
ATOM      2  N   UNL     1     -14.376 -44.540  26.417  1.00  0.00    -0.281 NA
BRANCH   2   3
ATOM      3  C   UNL     1     -13.822 -44.982  27.497  1.00  0.00     0.109 C 
ATOM      4  C   UNL     1     -13.657 -44.690  29.923  1.00  0.00     0.129 C 
ATOM      5  C   UNL     1     -14.360 -44.529  28.799  1.00  0.00     0.079 C 
ATOM      6  C   UNL     1     -12.298 -45.262  29.932  1.00  0.00     0.069 A 
ATOM      7  C   UNL     1     -11.446 -45.191  31.045  1.00  0.00     0.127 A 
ATOM      8  C   UNL     1     -11.820 -45.930  28.796  1.00  0.00     0.039 A 
ATOM      9  C   UNL     1     -12.647 -45.956  27.571  1.00  0.00     0.211 C 
ATOM     10  C   UNL     1     -10.206 -45.830  31.061  1.00  0.00     0.047 A 
ATOM     11  C   UNL     1     -10.572 -46.570  28.797  1.00  0.00     0.013 A 
ATOM     12  C   UNL     1      -9.771 -46.527  29.937  1.00  0.00     0.005 A 
ATOM     13  O   UNL     1     -12.404 -46.745  26.671  1.00  0.00    -0.287 OA
BRANCH   4  14
ATOM     14  O   UNL     1     -14.212 -44.329  31.135  1.00  0.00    -0.507 OA
ATOM     15  H   UNL     1     -14.104 -45.083  31.751  1.00  0.00     0.293 HD
ENDBRANCH   4  14
BRANCH   7  16
ATOM     16  O   UNL     1     -11.776 -44.477  32.168  1.00  0.00    -0.507 OA
ATOM     17  H   UNL     1     -12.369 -45.039  32.708  1.00  0.00     0.293 HD
ENDBRANCH   7  16
ENDBRANCH   2   3
ENDBRANCH   1   2
BRANCH   1  18
ATOM     18  C   UNL     1     -15.437 -42.727  25.180  1.00  0.00     0.047 C 
BRANCH  18  19
ATOM     19  C   UNL     1     -16.766 -42.897  24.446  1.00  0.00     0.145 C 
BRANCH  19  20
ATOM     20  N   UNL     1     -17.832 -42.242  25.179  1.00  0.00    -0.284 NA
BRANCH  20  21
ATOM     21  C   UNL     1     -19.011 -41.949  24.768  1.00  0.00     0.072 A 
ATOM     22  C   UNL     1     -19.455 -41.112  23.581  1.00  0.00    -0.003 A 
ATOM     23  C   UNL     1     -20.132 -42.495  25.614  1.00  0.00     0.024 A 
ATOM     24  C   UNL     1     -20.723 -40.638  23.574  1.00  0.00     0.021 A 
ATOM     25  C   UNL     1     -18.523 -40.896  22.419  1.00  0.00     0.039 C 
ATOM     26  C   UNL     1     -19.888 -43.499  26.565  1.00  0.00     0.014 A 
ATOM     27  C   UNL     1     -21.417 -41.953  25.479  1.00  0.00     0.049 A 
ATOM     28  N   UNL     1     -21.647 -40.922  24.561  1.00  0.00    -0.358 N 
ATOM     29  C   UNL     1     -21.248 -39.768  22.447  1.00  0.00     0.054 C 
ATOM     30  C   UNL     1     -19.202 -40.373  21.152  1.00  0.00     0.005 C 
ATOM     31  C   UNL     1     -20.921 -43.958  27.382  1.00  0.00     0.021 A 
ATOM     32  C   UNL     1     -22.442 -42.399  26.322  1.00  0.00     0.047 A 
ATOM     33  C   UNL     1     -20.172 -39.255  21.495  1.00  0.00     0.007 C 
ATOM     34  C   UNL     1     -22.192 -43.401  27.259  1.00  0.00     0.043 A 
ATOM     35  H   UNL     1     -22.615 -40.700  24.354  1.00  0.00     0.166 HD
ATOM     36  Cl  UNL     1     -23.466 -43.951  28.278  1.00  0.00    -0.084 Cl
ENDBRANCH  20  21
ENDBRANCH  19  20
ENDBRANCH  18  19
ENDBRANCH   1  18
TORSDOF 8
ENDMDL
