MODEL 1
REMARK VINA RESULT:   -12.962      0.000      0.000
REMARK INTER + INTRA:         -16.909
REMARK INTER:                 -16.750
REMARK INTRA:                  -0.158
REMARK UNBOUND:                -0.158
REMARK SMILES COc1ccccc1C(=O)N1Cc2cc(NC(=O)c3cccc(Cl)c3)ccc2CC1=O
REMARK SMILES IDX 11 1 12 2 13 3 14 4 15 5 26 6 27 7 28 8 29 9 30 10 31 11
REMARK SMILES IDX 9 12 10 13 8 14 3 15 4 16 5 17 7 18 6 19 2 20 1 21 16 22
REMARK SMILES IDX 17 23 18 25 19 26 20 27 25 28 21 29 23 30 22 31 24 32
REMARK H PARENT 16 24
ROOT
ATOM      1  N   UNL     1     -10.812 -44.770  30.490  1.00  0.00    -0.274 N 
ATOM      2  C   UNL     1     -11.283 -43.924  29.402  1.00  0.00     0.164 C 
ATOM      3  C   UNL     1     -12.052 -44.696  28.368  1.00  0.00    -0.022 A 
ATOM      4  C   UNL     1     -13.148 -44.145  27.688  1.00  0.00     0.032 A 
ATOM      5  C   UNL     1     -13.819 -44.877  26.698  1.00  0.00     0.041 A 
ATOM      6  C   UNL     1     -13.364 -46.158  26.385  1.00  0.00     0.026 A 
ATOM      7  C   UNL     1     -12.264 -46.707  27.051  1.00  0.00     0.007 A 
ATOM      8  C   UNL     1     -11.612 -45.981  28.049  1.00  0.00    -0.033 A 
ATOM      9  C   UNL     1     -10.402 -46.519  28.759  1.00  0.00     0.136 C 
ATOM     10  C   UNL     1     -10.230 -46.005  30.185  1.00  0.00     0.234 C 
ATOM     11  O   UNL     1      -9.578 -46.686  30.979  1.00  0.00    -0.274 OA
ENDROOT
BRANCH   1  12
ATOM     12  C   UNL     1     -10.663 -44.110  31.723  1.00  0.00     0.264 C 
ATOM     13  O   UNL     1      -9.566 -43.869  32.229  1.00  0.00    -0.268 OA
BRANCH  12  14
ATOM     14  C   UNL     1     -11.865 -43.633  32.434  1.00  0.00     0.082 A 
ATOM     15  C   UNL     1     -11.792 -42.529  33.298  1.00  0.00     0.131 A 
ATOM     16  C   UNL     1     -12.969 -42.090  33.912  1.00  0.00     0.047 A 
ATOM     17  C   UNL     1     -14.188 -42.735  33.660  1.00  0.00     0.004 A 
ATOM     18  C   UNL     1     -13.083 -44.275  32.174  1.00  0.00     0.018 A 
ATOM     19  C   UNL     1     -14.245 -43.824  32.793  1.00  0.00     0.001 A 
BRANCH  15  20
ATOM     20  O   UNL     1     -10.554 -41.977  33.493  1.00  0.00    -0.496 OA
ATOM     21  C   UNL     1     -10.129 -41.778  34.834  1.00  0.00     0.278 C 
ENDBRANCH  15  20
ENDBRANCH  12  14
ENDBRANCH   1  12
BRANCH   5  22
ATOM     22  N   UNL     1     -14.914 -44.251  26.066  1.00  0.00    -0.322 N 
ATOM     23  C   UNL     1     -14.878 -43.407  24.970  1.00  0.00     0.255 C 
ATOM     24  H   UNL     1     -15.827 -44.509  26.419  1.00  0.00     0.170 HD
ATOM     25  O   UNL     1     -13.895 -43.103  24.307  1.00  0.00    -0.269 OA
BRANCH  23  26
ATOM     26  C   UNL     1     -16.200 -42.860  24.554  1.00  0.00     0.041 A 
ATOM     27  C   UNL     1     -16.419 -42.608  23.193  1.00  0.00     0.014 A 
ATOM     28  C   UNL     1     -17.200 -42.567  25.488  1.00  0.00     0.034 A 
ATOM     29  C   UNL     1     -17.644 -42.094  22.762  1.00  0.00     0.002 A 
ATOM     30  C   UNL     1     -18.419 -42.051  25.048  1.00  0.00     0.041 A 
ATOM     31  C   UNL     1     -18.647 -41.818  23.691  1.00  0.00     0.020 A 
ATOM     32  Cl  UNL     1     -19.653 -41.695  26.193  1.00  0.00    -0.084 Cl
ENDBRANCH  23  26
ENDBRANCH   5  22
TORSDOF 5
ENDMDL
MODEL 2
REMARK VINA RESULT:   -12.101      1.360      2.366
REMARK INTER + INTRA:         -15.797
REMARK INTER:                 -16.816
REMARK INTRA:                   1.020
REMARK UNBOUND:                -0.158
REMARK SMILES COc1ccccc1C(=O)N1Cc2cc(NC(=O)c3cccc(Cl)c3)ccc2CC1=O
REMARK SMILES IDX 11 1 12 2 13 3 14 4 15 5 26 6 27 7 28 8 29 9 30 10 31 11
REMARK SMILES IDX 9 12 10 13 8 14 3 15 4 16 5 17 7 18 6 19 2 20 1 21 16 22
REMARK SMILES IDX 17 23 18 25 19 26 20 27 25 28 21 29 23 30 22 31 24 32
REMARK H PARENT 16 24
ROOT
ATOM      1  N   UNL     1     -10.929 -44.962  30.466  1.00  0.00    -0.274 N 
ATOM      2  C   UNL     1     -11.379 -44.074  29.403  1.00  0.00     0.164 C 
ATOM      3  C   UNL     1     -12.146 -44.800  28.336  1.00  0.00    -0.022 A 
ATOM      4  C   UNL     1     -13.228 -44.212  27.664  1.00  0.00     0.032 A 
ATOM      5  C   UNL     1     -13.898 -44.901  26.644  1.00  0.00     0.041 A 
ATOM      6  C   UNL     1     -13.456 -46.177  26.291  1.00  0.00     0.026 A 
ATOM      7  C   UNL     1     -12.369 -46.761  26.948  1.00  0.00     0.007 A 
ATOM      8  C   UNL     1     -11.718 -46.079  27.977  1.00  0.00    -0.033 A 
ATOM      9  C   UNL     1     -10.522 -46.655  28.680  1.00  0.00     0.136 C 
ATOM     10  C   UNL     1     -10.359 -46.193  30.124  1.00  0.00     0.234 C 
ATOM     11  O   UNL     1      -9.723 -46.910  30.900  1.00  0.00    -0.274 OA
ENDROOT
BRANCH   1  12
ATOM     12  C   UNL     1     -10.784 -44.348  31.722  1.00  0.00     0.264 C 
ATOM     13  O   UNL     1     -11.729 -44.139  32.483  1.00  0.00    -0.268 OA
BRANCH  12  14
ATOM     14  C   UNL     1      -9.434 -43.974  32.189  1.00  0.00     0.082 A 
ATOM     15  C   UNL     1      -9.267 -42.994  33.180  1.00  0.00     0.131 A 
ATOM     16  C   UNL     1      -7.970 -42.710  33.618  1.00  0.00     0.047 A 
ATOM     17  C   UNL     1      -6.871 -43.395  33.083  1.00  0.00     0.004 A 
ATOM     18  C   UNL     1      -8.337 -44.666  31.656  1.00  0.00     0.018 A 
ATOM     19  C   UNL     1      -7.054 -44.370  32.105  1.00  0.00     0.001 A 
BRANCH  15  20
ATOM     20  O   UNL     1     -10.400 -42.369  33.628  1.00  0.00    -0.496 OA
ATOM     21  C   UNL     1     -10.343 -41.746  34.904  1.00  0.00     0.278 C 
ENDBRANCH  15  20
ENDBRANCH  12  14
ENDBRANCH   1  12
BRANCH   5  22
ATOM     22  N   UNL     1     -14.979 -44.240  26.023  1.00  0.00    -0.322 N 
ATOM     23  C   UNL     1     -14.924 -43.380  24.941  1.00  0.00     0.255 C 
ATOM     24  H   UNL     1     -15.897 -44.483  26.372  1.00  0.00     0.170 HD
ATOM     25  O   UNL     1     -13.935 -43.087  24.282  1.00  0.00    -0.269 OA
BRANCH  23  26
ATOM     26  C   UNL     1     -16.233 -42.796  24.536  1.00  0.00     0.041 A 
ATOM     27  C   UNL     1     -16.418 -42.440  23.192  1.00  0.00     0.014 A 
ATOM     28  C   UNL     1     -17.256 -42.569  25.464  1.00  0.00     0.034 A 
ATOM     29  C   UNL     1     -17.630 -41.888  22.772  1.00  0.00     0.002 A 
ATOM     30  C   UNL     1     -18.462 -42.015  25.034  1.00  0.00     0.041 A 
ATOM     31  C   UNL     1     -18.655 -41.679  23.694  1.00  0.00     0.020 A 
ATOM     32  Cl  UNL     1     -19.724 -41.741  26.172  1.00  0.00    -0.084 Cl
ENDBRANCH  23  26
ENDBRANCH   5  22
TORSDOF 5
ENDMDL
MODEL 3
REMARK VINA RESULT:   -11.249      4.217     10.474
REMARK INTER + INTRA:         -14.696
REMARK INTER:                 -14.140
REMARK INTRA:                  -0.556
REMARK UNBOUND:                -0.158
REMARK SMILES COc1ccccc1C(=O)N1Cc2cc(NC(=O)c3cccc(Cl)c3)ccc2CC1=O
REMARK SMILES IDX 11 1 12 2 13 3 14 4 15 5 26 6 27 7 28 8 29 9 30 10 31 11
REMARK SMILES IDX 9 12 10 13 8 14 3 15 4 16 5 17 7 18 6 19 2 20 1 21 16 22
REMARK SMILES IDX 17 23 18 25 19 26 20 27 25 28 21 29 23 30 22 31 24 32
REMARK H PARENT 16 24
ROOT
ATOM      1  N   UNL     1     -19.885 -41.437  22.870  1.00  0.00    -0.274 N 
ATOM      2  C   UNL     1     -19.134 -42.656  23.133  1.00  0.00     0.164 C 
ATOM      3  C   UNL     1     -17.687 -42.385  23.432  1.00  0.00    -0.022 A 
ATOM      4  C   UNL     1     -16.960 -43.150  24.356  1.00  0.00     0.032 A 
ATOM      5  C   UNL     1     -15.600 -42.898  24.582  1.00  0.00     0.041 A 
ATOM      6  C   UNL     1     -14.974 -41.884  23.856  1.00  0.00     0.026 A 
ATOM      7  C   UNL     1     -15.691 -41.127  22.924  1.00  0.00     0.007 A 
ATOM      8  C   UNL     1     -17.050 -41.370  22.717  1.00  0.00    -0.033 A 
ATOM      9  C   UNL     1     -17.847 -40.607  21.697  1.00  0.00     0.136 C 
ATOM     10  C   UNL     1     -19.327 -40.464  22.033  1.00  0.00     0.234 C 
ATOM     11  O   UNL     1     -19.952 -39.523  21.540  1.00  0.00    -0.274 OA
ENDROOT
BRANCH   1  12
ATOM     12  C   UNL     1     -21.251 -41.508  23.195  1.00  0.00     0.264 C 
ATOM     13  O   UNL     1     -22.095 -42.011  22.452  1.00  0.00    -0.268 OA
BRANCH  12  14
ATOM     14  C   UNL     1     -21.706 -41.006  24.506  1.00  0.00     0.082 A 
ATOM     15  C   UNL     1     -22.902 -40.280  24.618  1.00  0.00     0.131 A 
ATOM     16  C   UNL     1     -23.310 -39.867  25.890  1.00  0.00     0.047 A 
ATOM     17  C   UNL     1     -22.544 -40.180  27.021  1.00  0.00     0.004 A 
ATOM     18  C   UNL     1     -20.941 -41.327  25.636  1.00  0.00     0.018 A 
ATOM     19  C   UNL     1     -21.362 -40.908  26.895  1.00  0.00     0.001 A 
BRANCH  15  20
ATOM     20  O   UNL     1     -23.572 -40.010  23.454  1.00  0.00    -0.496 OA
ATOM     21  C   UNL     1     -23.409 -38.716  22.890  1.00  0.00     0.278 C 
ENDBRANCH  15  20
ENDBRANCH  12  14
ENDBRANCH   1  12
BRANCH   5  22
ATOM     22  N   UNL     1     -14.944 -43.710  25.531  1.00  0.00    -0.322 N 
ATOM     23  C   UNL     1     -14.960 -43.568  26.907  1.00  0.00     0.255 C 
ATOM     24  H   UNL     1     -14.470 -44.522  25.157  1.00  0.00     0.170 HD
ATOM     25  O   UNL     1     -15.601 -42.752  27.557  1.00  0.00    -0.269 OA
BRANCH  23  26
ATOM     26  C   UNL     1     -14.129 -44.557  27.650  1.00  0.00     0.041 A 
ATOM     27  C   UNL     1     -13.315 -45.431  26.915  1.00  0.00     0.014 A 
ATOM     28  C   UNL     1     -14.169 -44.649  29.046  1.00  0.00     0.034 A 
ATOM     29  C   UNL     1     -12.523 -46.374  27.573  1.00  0.00     0.002 A 
ATOM     30  C   UNL     1     -13.374 -45.596  29.693  1.00  0.00     0.041 A 
ATOM     31  C   UNL     1     -12.549 -46.454  28.965  1.00  0.00     0.020 A 
ATOM     32  Cl  UNL     1     -13.416 -45.707  31.410  1.00  0.00    -0.084 Cl
ENDBRANCH  23  26
ENDBRANCH   5  22
TORSDOF 5
ENDMDL
MODEL 4
REMARK VINA RESULT:   -11.160      4.315      9.689
REMARK INTER + INTRA:         -14.581
REMARK INTER:                 -13.907
REMARK INTRA:                  -0.674
REMARK UNBOUND:                -0.158
REMARK SMILES COc1ccccc1C(=O)N1Cc2cc(NC(=O)c3cccc(Cl)c3)ccc2CC1=O
REMARK SMILES IDX 11 1 12 2 13 3 14 4 15 5 26 6 27 7 28 8 29 9 30 10 31 11
REMARK SMILES IDX 9 12 10 13 8 14 3 15 4 16 5 17 7 18 6 19 2 20 1 21 16 22
REMARK SMILES IDX 17 23 18 25 19 26 20 27 25 28 21 29 23 30 22 31 24 32
REMARK H PARENT 16 24
ROOT
ATOM      1  N   UNL     1     -19.338 -42.088  25.837  1.00  0.00    -0.274 N 
ATOM      2  C   UNL     1     -18.347 -43.031  26.336  1.00  0.00     0.164 C 
ATOM      3  C   UNL     1     -16.971 -42.752  25.801  1.00  0.00    -0.022 A 
ATOM      4  C   UNL     1     -15.816 -42.957  26.570  1.00  0.00     0.032 A 
ATOM      5  C   UNL     1     -14.544 -42.727  26.028  1.00  0.00     0.041 A 
ATOM      6  C   UNL     1     -14.444 -42.309  24.700  1.00  0.00     0.026 A 
ATOM      7  C   UNL     1     -15.592 -42.115  23.926  1.00  0.00     0.007 A 
ATOM      8  C   UNL     1     -16.857 -42.327  24.476  1.00  0.00    -0.033 A 
ATOM      9  C   UNL     1     -18.113 -42.170  23.666  1.00  0.00     0.136 C 
ATOM     10  C   UNL     1     -19.337 -41.759  24.478  1.00  0.00     0.234 C 
ATOM     11  O   UNL     1     -20.258 -41.182  23.896  1.00  0.00    -0.274 OA
ENDROOT
BRANCH   1  12
ATOM     12  C   UNL     1     -20.427 -41.871  26.700  1.00  0.00     0.264 C 
ATOM     13  O   UNL     1     -20.645 -40.792  27.252  1.00  0.00    -0.268 OA
BRANCH  12  14
ATOM     14  C   UNL     1     -21.395 -42.963  26.926  1.00  0.00     0.082 A 
ATOM     15  C   UNL     1     -22.613 -42.993  26.230  1.00  0.00     0.131 A 
ATOM     16  C   UNL     1     -23.474 -44.073  26.449  1.00  0.00     0.047 A 
ATOM     17  C   UNL     1     -23.119 -45.099  27.335  1.00  0.00     0.004 A 
ATOM     18  C   UNL     1     -21.034 -43.991  27.808  1.00  0.00     0.018 A 
ATOM     19  C   UNL     1     -21.903 -45.059  28.013  1.00  0.00     0.001 A 
BRANCH  15  20
ATOM     20  O   UNL     1     -22.876 -41.937  25.399  1.00  0.00    -0.496 OA
ATOM     21  C   UNL     1     -24.008 -41.132  25.701  1.00  0.00     0.278 C 
ENDBRANCH  15  20
ENDBRANCH  12  14
ENDBRANCH   1  12
BRANCH   5  22
ATOM     22  N   UNL     1     -13.435 -42.953  26.870  1.00  0.00    -0.322 N 
ATOM     23  C   UNL     1     -12.967 -44.172  27.328  1.00  0.00     0.255 C 
ATOM     24  H   UNL     1     -12.889 -42.133  27.101  1.00  0.00     0.170 HD
ATOM     25  O   UNL     1     -13.390 -45.282  27.033  1.00  0.00    -0.269 OA
BRANCH  23  26
ATOM     26  C   UNL     1     -11.797 -44.090  28.247  1.00  0.00     0.041 A 
ATOM     27  C   UNL     1     -10.887 -43.037  28.076  1.00  0.00     0.014 A 
ATOM     28  C   UNL     1     -11.575 -45.049  29.241  1.00  0.00     0.034 A 
ATOM     29  C   UNL     1      -9.776 -42.926  28.914  1.00  0.00     0.002 A 
ATOM     30  C   UNL     1     -10.461 -44.930  30.072  1.00  0.00     0.041 A 
ATOM     31  C   UNL     1      -9.565 -43.872  29.917  1.00  0.00     0.020 A 
ATOM     32  Cl  UNL     1     -10.188 -46.105  31.301  1.00  0.00    -0.084 Cl
ENDBRANCH  23  26
ENDBRANCH   5  22
TORSDOF 5
ENDMDL
MODEL 5
REMARK VINA RESULT:   -11.091      4.306      9.621
REMARK INTER + INTRA:         -14.491
REMARK INTER:                 -14.182
REMARK INTRA:                  -0.309
REMARK UNBOUND:                -0.158
REMARK SMILES COc1ccccc1C(=O)N1Cc2cc(NC(=O)c3cccc(Cl)c3)ccc2CC1=O
REMARK SMILES IDX 11 1 12 2 13 3 14 4 15 5 26 6 27 7 28 8 29 9 30 10 31 11
REMARK SMILES IDX 9 12 10 13 8 14 3 15 4 16 5 17 7 18 6 19 2 20 1 21 16 22
REMARK SMILES IDX 17 23 18 25 19 26 20 27 25 28 21 29 23 30 22 31 24 32
REMARK H PARENT 16 24
ROOT
ATOM      1  N   UNL     1     -19.896 -41.636  24.304  1.00  0.00    -0.274 N 
ATOM      2  C   UNL     1     -19.062 -42.817  24.479  1.00  0.00     0.164 C 
ATOM      3  C   UNL     1     -17.610 -42.536  24.218  1.00  0.00    -0.022 A 
ATOM      4  C   UNL     1     -16.587 -43.165  24.943  1.00  0.00     0.032 A 
ATOM      5  C   UNL     1     -15.240 -42.912  24.648  1.00  0.00     0.041 A 
ATOM      6  C   UNL     1     -14.932 -42.039  23.604  1.00  0.00     0.026 A 
ATOM      7  C   UNL     1     -15.949 -41.420  22.869  1.00  0.00     0.007 A 
ATOM      8  C   UNL     1     -17.288 -41.660  23.181  1.00  0.00    -0.033 A 
ATOM      9  C   UNL     1     -18.409 -41.046  22.390  1.00  0.00     0.136 C 
ATOM     10  C   UNL     1     -19.689 -40.819  23.187  1.00  0.00     0.234 C 
ATOM     11  O   UNL     1     -20.474 -39.951  22.800  1.00  0.00    -0.274 OA
ENDROOT
BRANCH   1  12
ATOM     12  C   UNL     1     -21.066 -41.624  25.084  1.00  0.00     0.264 C 
ATOM     13  O   UNL     1     -21.752 -40.615  25.255  1.00  0.00    -0.268 OA
BRANCH  12  14
ATOM     14  C   UNL     1     -21.538 -42.882  25.694  1.00  0.00     0.082 A 
ATOM     15  C   UNL     1     -21.190 -43.212  27.013  1.00  0.00     0.131 A 
ATOM     16  C   UNL     1     -21.700 -44.394  27.557  1.00  0.00     0.047 A 
ATOM     17  C   UNL     1     -22.544 -45.220  26.802  1.00  0.00     0.004 A 
ATOM     18  C   UNL     1     -22.387 -43.703  24.938  1.00  0.00     0.018 A 
ATOM     19  C   UNL     1     -22.886 -44.876  25.496  1.00  0.00     0.001 A 
BRANCH  15  20
ATOM     20  O   UNL     1     -20.348 -42.350  27.663  1.00  0.00    -0.496 OA
ATOM     21  C   UNL     1     -19.040 -42.816  27.968  1.00  0.00     0.278 C 
ENDBRANCH  15  20
ENDBRANCH  12  14
ENDBRANCH   1  12
BRANCH   5  22
ATOM     22  N   UNL     1     -14.274 -43.582  25.428  1.00  0.00    -0.322 N 
ATOM     23  C   UNL     1     -14.250 -43.706  26.805  1.00  0.00     0.255 C 
ATOM     24  H   UNL     1     -13.563 -44.080  24.907  1.00  0.00     0.170 HD
ATOM     25  O   UNL     1     -15.099 -43.315  27.595  1.00  0.00    -0.269 OA
BRANCH  23  26
ATOM     26  C   UNL     1     -13.070 -44.435  27.350  1.00  0.00     0.041 A 
ATOM     27  C   UNL     1     -13.047 -45.834  27.254  1.00  0.00     0.014 A 
ATOM     28  C   UNL     1     -12.014 -43.762  27.975  1.00  0.00     0.034 A 
ATOM     29  C   UNL     1     -11.961 -46.554  27.754  1.00  0.00     0.002 A 
ATOM     30  C   UNL     1     -10.935 -44.491  28.473  1.00  0.00     0.041 A 
ATOM     31  C   UNL     1     -10.900 -45.882  28.361  1.00  0.00     0.020 A 
ATOM     32  Cl  UNL     1      -9.632 -43.665  29.236  1.00  0.00    -0.084 Cl
ENDBRANCH  23  26
ENDBRANCH   5  22
TORSDOF 5
ENDMDL
MODEL 6
REMARK VINA RESULT:   -10.886      4.558     11.389
REMARK INTER + INTRA:         -14.227
REMARK INTER:                 -14.019
REMARK INTRA:                  -0.208
REMARK UNBOUND:                -0.158
REMARK SMILES COc1ccccc1C(=O)N1Cc2cc(NC(=O)c3cccc(Cl)c3)ccc2CC1=O
REMARK SMILES IDX 11 1 12 2 13 3 14 4 15 5 26 6 27 7 28 8 29 9 30 10 31 11
REMARK SMILES IDX 9 12 10 13 8 14 3 15 4 16 5 17 7 18 6 19 2 20 1 21 16 22
REMARK SMILES IDX 17 23 18 25 19 26 20 27 25 28 21 29 23 30 22 31 24 32
REMARK H PARENT 16 24
ROOT
ATOM      1  N   UNL     1     -20.033 -41.966  23.411  1.00  0.00    -0.274 N 
ATOM      2  C   UNL     1     -18.654 -41.663  23.768  1.00  0.00     0.164 C 
ATOM      3  C   UNL     1     -18.348 -41.991  25.202  1.00  0.00    -0.022 A 
ATOM      4  C   UNL     1     -17.097 -42.478  25.605  1.00  0.00     0.032 A 
ATOM      5  C   UNL     1     -16.829 -42.735  26.957  1.00  0.00     0.041 A 
ATOM      6  C   UNL     1     -17.824 -42.477  27.901  1.00  0.00     0.026 A 
ATOM      7  C   UNL     1     -19.069 -41.978  27.505  1.00  0.00     0.007 A 
ATOM      8  C   UNL     1     -19.337 -41.743  26.155  1.00  0.00    -0.033 A 
ATOM      9  C   UNL     1     -20.646 -41.169  25.693  1.00  0.00     0.136 C 
ATOM     10  C   UNL     1     -21.057 -41.593  24.287  1.00  0.00     0.234 C 
ATOM     11  O   UNL     1     -22.254 -41.565  23.994  1.00  0.00    -0.274 OA
ENDROOT
BRANCH   1  12
ATOM     12  C   UNL     1     -20.231 -42.285  22.056  1.00  0.00     0.264 C 
ATOM     13  O   UNL     1     -20.254 -43.441  21.632  1.00  0.00    -0.268 OA
BRANCH  12  14
ATOM     14  C   UNL     1     -20.476 -41.197  21.089  1.00  0.00     0.082 A 
ATOM     15  C   UNL     1     -21.744 -41.024  20.514  1.00  0.00     0.131 A 
ATOM     16  C   UNL     1     -21.934 -39.951  19.638  1.00  0.00     0.047 A 
ATOM     17  C   UNL     1     -20.882 -39.070  19.352  1.00  0.00     0.004 A 
ATOM     18  C   UNL     1     -19.423 -40.314  20.810  1.00  0.00     0.018 A 
ATOM     19  C   UNL     1     -19.630 -39.250  19.937  1.00  0.00     0.001 A 
BRANCH  15  20
ATOM     20  O   UNL     1     -22.702 -41.945  20.843  1.00  0.00    -0.496 OA
ATOM     21  C   UNL     1     -24.061 -41.540  20.748  1.00  0.00     0.278 C 
ENDBRANCH  15  20
ENDBRANCH  12  14
ENDBRANCH   1  12
BRANCH   5  22
ATOM     22  N   UNL     1     -15.547 -43.229  27.277  1.00  0.00    -0.322 N 
ATOM     23  C   UNL     1     -14.697 -43.947  26.455  1.00  0.00     0.255 C 
ATOM     24  H   UNL     1     -15.192 -42.963  28.187  1.00  0.00     0.170 HD
ATOM     25  O   UNL     1     -14.875 -44.228  25.277  1.00  0.00    -0.269 OA
BRANCH  23  26
ATOM     26  C   UNL     1     -13.420 -44.375  27.091  1.00  0.00     0.041 A 
ATOM     27  C   UNL     1     -13.201 -45.744  27.296  1.00  0.00     0.014 A 
ATOM     28  C   UNL     1     -12.462 -43.445  27.512  1.00  0.00     0.034 A 
ATOM     29  C   UNL     1     -12.018 -46.186  27.891  1.00  0.00     0.002 A 
ATOM     30  C   UNL     1     -11.283 -43.897  28.106  1.00  0.00     0.041 A 
ATOM     31  C   UNL     1     -11.055 -45.261  28.293  1.00  0.00     0.020 A 
ATOM     32  Cl  UNL     1     -10.100 -42.757  28.619  1.00  0.00    -0.084 Cl
ENDBRANCH  23  26
ENDBRANCH   5  22
TORSDOF 5
ENDMDL
MODEL 7
REMARK VINA RESULT:   -10.873      4.426     10.165
REMARK INTER + INTRA:         -14.210
REMARK INTER:                 -13.131
REMARK INTRA:                  -1.078
REMARK UNBOUND:                -0.158
REMARK SMILES COc1ccccc1C(=O)N1Cc2cc(NC(=O)c3cccc(Cl)c3)ccc2CC1=O
REMARK SMILES IDX 11 1 12 2 13 3 14 4 15 5 26 6 27 7 28 8 29 9 30 10 31 11
REMARK SMILES IDX 9 12 10 13 8 14 3 15 4 16 5 17 7 18 6 19 2 20 1 21 16 22
REMARK SMILES IDX 17 23 18 25 19 26 20 27 25 28 21 29 23 30 22 31 24 32
REMARK H PARENT 16 24
ROOT
ATOM      1  N   UNL     1     -20.179 -41.830  23.089  1.00  0.00    -0.274 N 
ATOM      2  C   UNL     1     -19.251 -42.949  23.178  1.00  0.00     0.164 C 
ATOM      3  C   UNL     1     -17.826 -42.500  23.339  1.00  0.00    -0.022 A 
ATOM      4  C   UNL     1     -16.904 -43.212  24.119  1.00  0.00     0.032 A 
ATOM      5  C   UNL     1     -15.571 -42.790  24.215  1.00  0.00     0.041 A 
ATOM      6  C   UNL     1     -15.170 -41.659  23.504  1.00  0.00     0.026 A 
ATOM      7  C   UNL     1     -16.083 -40.953  22.714  1.00  0.00     0.007 A 
ATOM      8  C   UNL     1     -17.414 -41.367  22.637  1.00  0.00    -0.033 A 
ATOM      9  C   UNL     1     -18.416 -40.660  21.769  1.00  0.00     0.136 C 
ATOM     10  C   UNL     1     -19.853 -40.742  22.272  1.00  0.00     0.234 C 
ATOM     11  O   UNL     1     -20.648 -39.868  21.921  1.00  0.00    -0.274 OA
ENDROOT
BRANCH   1  12
ATOM     12  C   UNL     1     -21.477 -42.107  23.553  1.00  0.00     0.264 C 
ATOM     13  O   UNL     1     -22.162 -43.037  23.126  1.00  0.00    -0.268 OA
BRANCH  12  14
ATOM     14  C   UNL     1     -22.043 -41.285  24.641  1.00  0.00     0.082 A 
ATOM     15  C   UNL     1     -21.603 -41.448  25.963  1.00  0.00     0.131 A 
ATOM     16  C   UNL     1     -22.140 -40.612  26.948  1.00  0.00     0.047 A 
ATOM     17  C   UNL     1     -23.087 -39.634  26.614  1.00  0.00     0.004 A 
ATOM     18  C   UNL     1     -22.985 -40.303  24.302  1.00  0.00     0.018 A 
ATOM     19  C   UNL     1     -23.509 -39.480  25.295  1.00  0.00     0.001 A 
BRANCH  15  20
ATOM     20  O   UNL     1     -20.688 -42.440  26.192  1.00  0.00    -0.496 OA
ATOM     21  C   UNL     1     -19.439 -42.063  26.755  1.00  0.00     0.278 C 
ENDBRANCH  15  20
ENDBRANCH  12  14
ENDBRANCH   1  12
BRANCH   5  22
ATOM     22  N   UNL     1     -14.709 -43.560  25.025  1.00  0.00    -0.322 N 
ATOM     23  C   UNL     1     -14.405 -43.352  26.358  1.00  0.00     0.255 C 
ATOM     24  H   UNL     1     -14.331 -44.393  24.590  1.00  0.00     0.170 HD
ATOM     25  O   UNL     1     -14.881 -42.501  27.098  1.00  0.00    -0.269 OA
BRANCH  23  26
ATOM     26  C   UNL     1     -13.420 -44.310  26.935  1.00  0.00     0.041 A 
ATOM     27  C   UNL     1     -13.569 -45.674  26.649  1.00  0.00     0.014 A 
ATOM     28  C   UNL     1     -12.383 -43.882  27.771  1.00  0.00     0.034 A 
ATOM     29  C   UNL     1     -12.669 -46.604  27.172  1.00  0.00     0.002 A 
ATOM     30  C   UNL     1     -11.490 -44.820  28.290  1.00  0.00     0.041 A 
ATOM     31  C   UNL     1     -11.624 -46.176  27.990  1.00  0.00     0.020 A 
ATOM     32  Cl  UNL     1     -10.208 -44.296  29.314  1.00  0.00    -0.084 Cl
ENDBRANCH  23  26
ENDBRANCH   5  22
TORSDOF 5
ENDMDL
MODEL 8
REMARK VINA RESULT:   -10.857      2.561      3.737
REMARK INTER + INTRA:         -14.189
REMARK INTER:                 -13.782
REMARK INTRA:                  -0.407
REMARK UNBOUND:                -0.158
REMARK SMILES COc1ccccc1C(=O)N1Cc2cc(NC(=O)c3cccc(Cl)c3)ccc2CC1=O
REMARK SMILES IDX 11 1 12 2 13 3 14 4 15 5 26 6 27 7 28 8 29 9 30 10 31 11
REMARK SMILES IDX 9 12 10 13 8 14 3 15 4 16 5 17 7 18 6 19 2 20 1 21 16 22
REMARK SMILES IDX 17 23 18 25 19 26 20 27 25 28 21 29 23 30 22 31 24 32
REMARK H PARENT 16 24
ROOT
ATOM      1  N   UNL     1     -13.577 -45.045  29.007  1.00  0.00    -0.274 N 
ATOM      2  C   UNL     1     -14.286 -43.796  28.767  1.00  0.00     0.164 C 
ATOM      3  C   UNL     1     -14.857 -43.718  27.380  1.00  0.00    -0.022 A 
ATOM      4  C   UNL     1     -16.078 -43.084  27.110  1.00  0.00     0.032 A 
ATOM      5  C   UNL     1     -16.564 -42.992  25.798  1.00  0.00     0.041 A 
ATOM      6  C   UNL     1     -15.799 -43.523  24.759  1.00  0.00     0.026 A 
ATOM      7  C   UNL     1     -14.573 -44.144  25.022  1.00  0.00     0.007 A 
ATOM      8  C   UNL     1     -14.105 -44.251  26.332  1.00  0.00    -0.033 A 
ATOM      9  C   UNL     1     -12.775 -44.874  26.651  1.00  0.00     0.136 C 
ATOM     10  C   UNL     1     -12.701 -45.525  28.028  1.00  0.00     0.234 C 
ATOM     11  O   UNL     1     -11.870 -46.417  28.210  1.00  0.00    -0.274 OA
ENDROOT
BRANCH   1  12
ATOM     12  C   UNL     1     -13.569 -45.466  30.348  1.00  0.00     0.264 C 
ATOM     13  O   UNL     1     -13.853 -46.613  30.696  1.00  0.00    -0.268 OA
BRANCH  12  14
ATOM     14  C   UNL     1     -13.153 -44.516  31.399  1.00  0.00     0.082 A 
ATOM     15  C   UNL     1     -11.794 -44.230  31.605  1.00  0.00     0.131 A 
ATOM     16  C   UNL     1     -11.457 -43.289  32.583  1.00  0.00     0.047 A 
ATOM     17  C   UNL     1     -12.456 -42.646  33.328  1.00  0.00     0.004 A 
ATOM     18  C   UNL     1     -14.154 -43.870  32.137  1.00  0.00     0.018 A 
ATOM     19  C   UNL     1     -13.800 -42.936  33.106  1.00  0.00     0.001 A 
BRANCH  15  20
ATOM     20  O   UNL     1     -10.894 -44.921  30.840  1.00  0.00    -0.496 OA
ATOM     21  C   UNL     1     -10.209 -46.005  31.452  1.00  0.00     0.278 C 
ENDBRANCH  15  20
ENDBRANCH  12  14
ENDBRANCH   1  12
BRANCH   5  22
ATOM     22  N   UNL     1     -17.803 -42.344  25.614  1.00  0.00    -0.322 N 
ATOM     23  C   UNL     1     -18.843 -42.253  26.522  1.00  0.00     0.255 C 
ATOM     24  H   UNL     1     -17.904 -41.834  24.746  1.00  0.00     0.170 HD
ATOM     25  O   UNL     1     -18.852 -42.662  27.676  1.00  0.00    -0.269 OA
BRANCH  23  26
ATOM     26  C   UNL     1     -20.052 -41.540  26.023  1.00  0.00     0.041 A 
ATOM     27  C   UNL     1     -20.168 -41.306  24.646  1.00  0.00     0.014 A 
ATOM     28  C   UNL     1     -21.045 -41.078  26.895  1.00  0.00     0.034 A 
ATOM     29  C   UNL     1     -21.285 -40.639  24.138  1.00  0.00     0.002 A 
ATOM     30  C   UNL     1     -22.156 -40.411  26.378  1.00  0.00     0.041 A 
ATOM     31  C   UNL     1     -22.283 -40.194  25.005  1.00  0.00     0.020 A 
ATOM     32  Cl  UNL     1     -23.381 -39.848  27.447  1.00  0.00    -0.084 Cl
ENDBRANCH  23  26
ENDBRANCH   5  22
TORSDOF 5
ENDMDL
MODEL 9
REMARK VINA RESULT:   -10.566      4.165     10.607
REMARK INTER + INTRA:         -13.813
REMARK INTER:                 -12.891
REMARK INTRA:                  -0.922
REMARK UNBOUND:                -0.158
REMARK SMILES COc1ccccc1C(=O)N1Cc2cc(NC(=O)c3cccc(Cl)c3)ccc2CC1=O
REMARK SMILES IDX 11 1 12 2 13 3 14 4 15 5 26 6 27 7 28 8 29 9 30 10 31 11
REMARK SMILES IDX 9 12 10 13 8 14 3 15 4 16 5 17 7 18 6 19 2 20 1 21 16 22
REMARK SMILES IDX 17 23 18 25 19 26 20 27 25 28 21 29 23 30 22 31 24 32
REMARK H PARENT 16 24
ROOT
ATOM      1  N   UNL     1     -19.829 -41.322  23.510  1.00  0.00    -0.274 N 
ATOM      2  C   UNL     1     -19.163 -42.576  23.835  1.00  0.00     0.164 C 
ATOM      3  C   UNL     1     -17.671 -42.427  23.921  1.00  0.00    -0.022 A 
ATOM      4  C   UNL     1     -16.901 -43.153  24.841  1.00  0.00     0.032 A 
ATOM      5  C   UNL     1     -15.505 -43.022  24.868  1.00  0.00     0.041 A 
ATOM      6  C   UNL     1     -14.891 -42.172  23.948  1.00  0.00     0.026 A 
ATOM      7  C   UNL     1     -15.654 -41.456  23.020  1.00  0.00     0.007 A 
ATOM      8  C   UNL     1     -17.045 -41.575  23.010  1.00  0.00    -0.033 A 
ATOM      9  C   UNL     1     -17.897 -40.855  22.004  1.00  0.00     0.136 C 
ATOM     10  C   UNL     1     -19.301 -40.518  22.494  1.00  0.00     0.234 C 
ATOM     11  O   UNL     1     -19.897 -39.579  21.963  1.00  0.00    -0.274 OA
ENDROOT
BRANCH   1  12
ATOM     12  C   UNL     1     -21.141 -41.210  24.003  1.00  0.00     0.264 C 
ATOM     13  O   UNL     1     -21.499 -40.314  24.768  1.00  0.00    -0.268 OA
BRANCH  12  14
ATOM     14  C   UNL     1     -22.164 -42.174  23.553  1.00  0.00     0.082 A 
ATOM     15  C   UNL     1     -22.646 -43.163  24.424  1.00  0.00     0.131 A 
ATOM     16  C   UNL     1     -23.648 -44.022  23.961  1.00  0.00     0.047 A 
ATOM     17  C   UNL     1     -24.157 -43.889  22.663  1.00  0.00     0.004 A 
ATOM     18  C   UNL     1     -22.677 -42.033  22.255  1.00  0.00     0.018 A 
ATOM     19  C   UNL     1     -23.674 -42.897  21.812  1.00  0.00     0.001 A 
BRANCH  15  20
ATOM     20  O   UNL     1     -22.074 -43.224  25.667  1.00  0.00    -0.496 OA
ATOM     21  C   UNL     1     -22.916 -42.990  26.787  1.00  0.00     0.278 C 
ENDBRANCH  15  20
ENDBRANCH  12  14
ENDBRANCH   1  12
BRANCH   5  22
ATOM     22  N   UNL     1     -14.806 -43.784  25.828  1.00  0.00    -0.322 N 
ATOM     23  C   UNL     1     -14.926 -43.711  27.204  1.00  0.00     0.255 C 
ATOM     24  H   UNL     1     -14.204 -44.508  25.455  1.00  0.00     0.170 HD
ATOM     25  O   UNL     1     -15.710 -43.018  27.839  1.00  0.00    -0.269 OA
BRANCH  23  26
ATOM     26  C   UNL     1     -14.016 -44.615  27.963  1.00  0.00     0.041 A 
ATOM     27  C   UNL     1     -13.084 -45.378  27.247  1.00  0.00     0.014 A 
ATOM     28  C   UNL     1     -14.097 -44.737  29.355  1.00  0.00     0.034 A 
ATOM     29  C   UNL     1     -12.215 -46.239  27.920  1.00  0.00     0.002 A 
ATOM     30  C   UNL     1     -13.225 -45.602  30.018  1.00  0.00     0.041 A 
ATOM     31  C   UNL     1     -12.283 -46.348  29.309  1.00  0.00     0.020 A 
ATOM     32  Cl  UNL     1     -13.317 -45.750  31.730  1.00  0.00    -0.084 Cl
ENDBRANCH  23  26
ENDBRANCH   5  22
TORSDOF 5
ENDMDL
