MODEL 1
REMARK VINA RESULT:   -10.132      0.000      0.000
REMARK INTER + INTRA:         -11.115
REMARK INTER:                 -11.021
REMARK INTRA:                  -0.094
REMARK UNBOUND:                -0.094
REMARK SMILES CCC1=C[C@H]2Cc3[nH]c4cc(Cl)ccc4c(=N)c3[C@@H](C1)C2
REMARK SMILES IDX 8 1 7 2 18 3 16 4 15 5 14 6 13 7 11 8 12 9 10 10 9 11 19 12
REMARK SMILES IDX 20 13 3 14 4 15 5 16 6 17 21 18 17 20 2 22 1 23
REMARK H PARENT 8 19 17 21
ROOT
ATOM      1  N   UNL     1     -15.113 -43.762  28.708  1.00  0.00    -0.358 N 
ATOM      2  C   UNL     1     -14.294 -44.485  29.546  1.00  0.00     0.021 A 
ATOM      3  C   UNL     1     -13.398 -45.388  29.097  1.00  0.00     0.000 A 
ATOM      4  C   UNL     1     -13.273 -45.610  27.617  1.00  0.00     0.068 A 
ATOM      5  C   UNL     1     -14.111 -44.751  26.719  1.00  0.00     0.023 A 
ATOM      6  C   UNL     1     -14.027 -44.829  25.320  1.00  0.00     0.014 A 
ATOM      7  C   UNL     1     -14.835 -44.014  24.521  1.00  0.00     0.021 A 
ATOM      8  C   UNL     1     -15.726 -43.125  25.117  1.00  0.00     0.043 A 
ATOM      9  Cl  UNL     1     -16.726 -42.130  24.131  1.00  0.00    -0.084 Cl
ATOM     10  C   UNL     1     -15.814 -43.035  26.504  1.00  0.00     0.047 A 
ATOM     11  C   UNL     1     -14.998 -43.834  27.314  1.00  0.00     0.049 A 
ATOM     12  C   UNL     1     -12.514 -46.215  30.019  1.00  0.00     0.028 C 
ATOM     13  C   UNL     1     -11.103 -45.594  30.136  1.00  0.00     0.039 C 
ATOM     14  C   UNL     1     -11.033 -44.401  31.078  1.00  0.00    -0.074 C 
ATOM     15  C   UNL     1     -12.075 -44.069  31.865  1.00  0.00    -0.024 C 
ATOM     16  C   UNL     1     -13.364 -44.865  31.913  1.00  0.00     0.018 C 
ATOM     17  C   UNL     1     -14.444 -44.204  31.036  1.00  0.00     0.062 C 
ATOM     18  C   UNL     1     -13.134 -46.297  31.421  1.00  0.00     0.017 C 
ATOM     19  H   UNL     1     -15.639 -42.995  29.110  1.00  0.00     0.166 HD
ENDROOT
BRANCH   4  20
ATOM     20  N   UNL     1     -12.454 -46.521  27.184  1.00  0.00    -0.300 NA
ATOM     21  H   UNL     1     -11.580 -46.139  26.829  1.00  0.00     0.188 HD
ENDBRANCH   4  20
BRANCH  14  22
ATOM     22  C   UNL     1      -9.762 -43.586  31.051  1.00  0.00     0.027 C 
ATOM     23  C   UNL     1      -8.921 -43.772  32.306  1.00  0.00     0.008 C 
ENDBRANCH  14  22
TORSDOF 2
ENDMDL
MODEL 2
REMARK VINA RESULT:    -9.468      4.502      8.458
REMARK INTER + INTRA:         -10.393
REMARK INTER:                 -10.262
REMARK INTRA:                  -0.131
REMARK UNBOUND:                -0.094
REMARK SMILES CCC1=C[C@H]2Cc3[nH]c4cc(Cl)ccc4c(=N)c3[C@@H](C1)C2
REMARK SMILES IDX 8 1 7 2 18 3 16 4 15 5 14 6 13 7 11 8 12 9 10 10 9 11 19 12
REMARK SMILES IDX 20 13 3 14 4 15 5 16 6 17 21 18 17 20 2 22 1 23
REMARK H PARENT 8 19 17 21
ROOT
ATOM      1  N   UNL     1     -17.578 -42.298  26.884  1.00  0.00    -0.358 N 
ATOM      2  C   UNL     1     -18.754 -42.034  26.218  1.00  0.00     0.021 A 
ATOM      3  C   UNL     1     -18.885 -42.167  24.882  1.00  0.00     0.000 A 
ATOM      4  C   UNL     1     -17.705 -42.638  24.081  1.00  0.00     0.068 A 
ATOM      5  C   UNL     1     -16.463 -43.003  24.835  1.00  0.00     0.023 A 
ATOM      6  C   UNL     1     -15.324 -43.514  24.195  1.00  0.00     0.014 A 
ATOM      7  C   UNL     1     -14.183 -43.833  24.938  1.00  0.00     0.021 A 
ATOM      8  C   UNL     1     -14.179 -43.640  26.317  1.00  0.00     0.043 A 
ATOM      9  Cl  UNL     1     -12.770 -44.024  27.228  1.00  0.00    -0.084 Cl
ATOM     10  C   UNL     1     -15.305 -43.138  26.964  1.00  0.00     0.047 A 
ATOM     11  C   UNL     1     -16.459 -42.832  26.232  1.00  0.00     0.049 A 
ATOM     12  C   UNL     1     -20.172 -41.845  24.135  1.00  0.00     0.028 C 
ATOM     13  C   UNL     1     -20.987 -43.130  23.857  1.00  0.00     0.039 C 
ATOM     14  C   UNL     1     -21.769 -43.634  25.060  1.00  0.00    -0.074 C 
ATOM     15  C   UNL     1     -21.872 -42.899  26.185  1.00  0.00    -0.024 C 
ATOM     16  C   UNL     1     -21.270 -41.516  26.329  1.00  0.00     0.018 C 
ATOM     17  C   UNL     1     -19.926 -41.584  27.080  1.00  0.00     0.062 C 
ATOM     18  C   UNL     1     -21.039 -40.880  24.956  1.00  0.00     0.017 C 
ATOM     19  H   UNL     1     -17.607 -42.328  27.897  1.00  0.00     0.166 HD
ENDROOT
BRANCH   4  20
ATOM     20  N   UNL     1     -17.811 -42.710  22.788  1.00  0.00    -0.300 NA
ATOM     21  H   UNL     1     -18.289 -43.551  22.471  1.00  0.00     0.188 HD
ENDBRANCH   4  20
BRANCH  14  22
ATOM     22  C   UNL     1     -22.379 -45.010  24.947  1.00  0.00     0.027 C 
ATOM     23  C   UNL     1     -21.410 -46.115  25.343  1.00  0.00     0.008 C 
ENDBRANCH  14  22
TORSDOF 2
ENDMDL
MODEL 3
REMARK VINA RESULT:    -9.393      3.521      6.898
REMARK INTER + INTRA:         -10.310
REMARK INTER:                 -10.215
REMARK INTRA:                  -0.096
REMARK UNBOUND:                -0.094
REMARK SMILES CCC1=C[C@H]2Cc3[nH]c4cc(Cl)ccc4c(=N)c3[C@@H](C1)C2
REMARK SMILES IDX 8 1 7 2 18 3 16 4 15 5 14 6 13 7 11 8 12 9 10 10 9 11 19 12
REMARK SMILES IDX 20 13 3 14 4 15 5 16 6 17 21 18 17 20 2 22 1 23
REMARK H PARENT 8 19 17 21
ROOT
ATOM      1  N   UNL     1      -9.625 -45.294  30.180  1.00  0.00    -0.358 N 
ATOM      2  C   UNL     1     -10.885 -45.588  29.709  1.00  0.00     0.021 A 
ATOM      3  C   UNL     1     -12.012 -45.157  30.314  1.00  0.00     0.000 A 
ATOM      4  C   UNL     1     -11.893 -44.308  31.547  1.00  0.00     0.068 A 
ATOM      5  C   UNL     1     -10.513 -43.928  31.992  1.00  0.00     0.023 A 
ATOM      6  C   UNL     1     -10.288 -43.087  33.092  1.00  0.00     0.014 A 
ATOM      7  C   UNL     1      -8.982 -42.767  33.475  1.00  0.00     0.021 A 
ATOM      8  C   UNL     1      -7.904 -43.287  32.765  1.00  0.00     0.043 A 
ATOM      9  Cl  UNL     1      -6.298 -42.899  33.246  1.00  0.00    -0.084 Cl
ATOM     10  C   UNL     1      -8.115 -44.118  31.668  1.00  0.00     0.047 A 
ATOM     11  C   UNL     1      -9.419 -44.432  31.264  1.00  0.00     0.049 A 
ATOM     12  C   UNL     1     -13.408 -45.505  29.819  1.00  0.00     0.028 C 
ATOM     13  C   UNL     1     -13.999 -44.352  28.973  1.00  0.00     0.039 C 
ATOM     14  C   UNL     1     -13.467 -44.301  27.549  1.00  0.00    -0.074 C 
ATOM     15  C   UNL     1     -12.707 -45.295  27.050  1.00  0.00    -0.024 C 
ATOM     16  C   UNL     1     -12.359 -46.545  27.832  1.00  0.00     0.018 C 
ATOM     17  C   UNL     1     -10.949 -46.430  28.442  1.00  0.00     0.062 C 
ATOM     18  C   UNL     1     -13.369 -46.776  28.960  1.00  0.00     0.017 C 
ATOM     19  H   UNL     1      -8.836 -45.518  29.584  1.00  0.00     0.166 HD
ENDROOT
BRANCH   4  20
ATOM     20  N   UNL     1     -12.976 -43.941  32.165  1.00  0.00    -0.300 NA
ATOM     21  H   UNL     1     -13.312 -43.025  31.877  1.00  0.00     0.188 HD
ENDBRANCH   4  20
BRANCH  14  22
ATOM     22  C   UNL     1     -13.795 -43.066  26.745  1.00  0.00     0.027 C 
ATOM     23  C   UNL     1     -15.293 -42.861  26.569  1.00  0.00     0.008 C 
ENDBRANCH  14  22
TORSDOF 2
ENDMDL
MODEL 4
REMARK VINA RESULT:    -9.374      4.178      6.001
REMARK INTER + INTRA:         -10.290
REMARK INTER:                 -10.191
REMARK INTRA:                  -0.099
REMARK UNBOUND:                -0.094
REMARK SMILES CCC1=C[C@H]2Cc3[nH]c4cc(Cl)ccc4c(=N)c3[C@@H](C1)C2
REMARK SMILES IDX 8 1 7 2 18 3 16 4 15 5 14 6 13 7 11 8 12 9 10 10 9 11 19 12
REMARK SMILES IDX 20 13 3 14 4 15 5 16 6 17 21 18 17 20 2 22 1 23
REMARK H PARENT 8 19 17 21
ROOT
ATOM      1  N   UNL     1     -10.927 -42.870  32.949  1.00  0.00    -0.358 N 
ATOM      2  C   UNL     1     -10.338 -43.606  31.946  1.00  0.00     0.021 A 
ATOM      3  C   UNL     1     -11.047 -44.327  31.052  1.00  0.00     0.000 A 
ATOM      4  C   UNL     1     -12.546 -44.318  31.140  1.00  0.00     0.068 A 
ATOM      5  C   UNL     1     -13.169 -43.442  32.184  1.00  0.00     0.023 A 
ATOM      6  C   UNL     1     -14.560 -43.308  32.313  1.00  0.00     0.014 A 
ATOM      7  C   UNL     1     -15.097 -42.485  33.308  1.00  0.00     0.021 A 
ATOM      8  C   UNL     1     -14.249 -41.800  34.173  1.00  0.00     0.043 A 
ATOM      9  Cl  UNL     1     -14.914 -40.796  35.402  1.00  0.00    -0.084 Cl
ATOM     10  C   UNL     1     -12.867 -41.921  34.051  1.00  0.00     0.047 A 
ATOM     11  C   UNL     1     -12.317 -42.728  33.047  1.00  0.00     0.049 A 
ATOM     12  C   UNL     1     -10.401 -45.169  29.962  1.00  0.00     0.028 C 
ATOM     13  C   UNL     1     -10.386 -44.412  28.613  1.00  0.00     0.039 C 
ATOM     14  C   UNL     1      -9.286 -43.367  28.507  1.00  0.00    -0.074 C 
ATOM     15  C   UNL     1      -8.318 -43.274  29.439  1.00  0.00    -0.024 C 
ATOM     16  C   UNL     1      -8.216 -44.212  30.625  1.00  0.00     0.018 C 
ATOM     17  C   UNL     1      -8.817 -43.561  31.886  1.00  0.00     0.062 C 
ATOM     18  C   UNL     1      -8.956 -45.522  30.344  1.00  0.00     0.017 C 
ATOM     19  H   UNL     1     -10.339 -42.235  33.475  1.00  0.00     0.166 HD
ENDROOT
BRANCH   4  20
ATOM     20  N   UNL     1     -13.228 -45.057  30.318  1.00  0.00    -0.300 NA
ATOM     21  H   UNL     1     -14.106 -44.631  30.029  1.00  0.00     0.188 HD
ENDBRANCH   4  20
BRANCH  14  22
ATOM     22  C   UNL     1      -9.361 -42.416  27.337  1.00  0.00     0.027 C 
ATOM     23  C   UNL     1      -7.998 -41.868  26.939  1.00  0.00     0.008 C 
ENDBRANCH  14  22
TORSDOF 2
ENDMDL
MODEL 5
REMARK VINA RESULT:    -9.235      3.312      6.101
REMARK INTER + INTRA:         -10.139
REMARK INTER:                 -10.009
REMARK INTRA:                  -0.130
REMARK UNBOUND:                -0.094
REMARK SMILES CCC1=C[C@H]2Cc3[nH]c4cc(Cl)ccc4c(=N)c3[C@@H](C1)C2
REMARK SMILES IDX 8 1 7 2 18 3 16 4 15 5 14 6 13 7 11 8 12 9 10 10 9 11 19 12
REMARK SMILES IDX 20 13 3 14 4 15 5 16 6 17 21 18 17 20 2 22 1 23
REMARK H PARENT 8 19 17 21
ROOT
ATOM      1  N   UNL     1     -11.992 -42.890  31.492  1.00  0.00    -0.358 N 
ATOM      2  C   UNL     1     -11.725 -43.858  30.550  1.00  0.00     0.021 A 
ATOM      3  C   UNL     1     -12.326 -45.066  30.550  1.00  0.00     0.000 A 
ATOM      4  C   UNL     1     -13.343 -45.371  31.613  1.00  0.00     0.068 A 
ATOM      5  C   UNL     1     -13.682 -44.273  32.575  1.00  0.00     0.023 A 
ATOM      6  C   UNL     1     -14.662 -44.426  33.567  1.00  0.00     0.014 A 
ATOM      7  C   UNL     1     -14.940 -43.377  34.449  1.00  0.00     0.021 A 
ATOM      8  C   UNL     1     -14.238 -42.179  34.343  1.00  0.00     0.043 A 
ATOM      9  Cl  UNL     1     -14.575 -40.894  35.437  1.00  0.00    -0.084 Cl
ATOM     10  C   UNL     1     -13.267 -42.014  33.359  1.00  0.00     0.047 A 
ATOM     11  C   UNL     1     -12.992 -43.051  32.459  1.00  0.00     0.049 A 
ATOM     12  C   UNL     1     -12.012 -46.153  29.532  1.00  0.00     0.028 C 
ATOM     13  C   UNL     1     -13.062 -46.169  28.397  1.00  0.00     0.039 C 
ATOM     14  C   UNL     1     -12.855 -45.081  27.353  1.00  0.00    -0.074 C 
ATOM     15  C   UNL     1     -11.743 -44.321  27.347  1.00  0.00    -0.024 C 
ATOM     16  C   UNL     1     -10.604 -44.509  28.329  1.00  0.00     0.018 C 
ATOM     17  C   UNL     1     -10.706 -43.490  29.480  1.00  0.00     0.062 C 
ATOM     18  C   UNL     1     -10.624 -45.923  28.916  1.00  0.00     0.017 C 
ATOM     19  H   UNL     1     -11.622 -41.961  31.330  1.00  0.00     0.166 HD
ENDROOT
BRANCH   4  20
ATOM     20  N   UNL     1     -13.879 -46.553  31.650  1.00  0.00    -0.300 NA
ATOM     21  H   UNL     1     -14.844 -46.567  31.326  1.00  0.00     0.188 HD
ENDBRANCH   4  20
BRANCH  14  22
ATOM     22  C   UNL     1     -13.973 -44.868  26.362  1.00  0.00     0.027 C 
ATOM     23  C   UNL     1     -14.825 -43.650  26.692  1.00  0.00     0.008 C 
ENDBRANCH  14  22
TORSDOF 2
ENDMDL
MODEL 6
REMARK VINA RESULT:    -8.613      5.444     10.206
REMARK INTER + INTRA:          -9.463
REMARK INTER:                  -9.344
REMARK INTRA:                  -0.119
REMARK UNBOUND:                -0.094
REMARK SMILES CCC1=C[C@H]2Cc3[nH]c4cc(Cl)ccc4c(=N)c3[C@@H](C1)C2
REMARK SMILES IDX 8 1 7 2 18 3 16 4 15 5 14 6 13 7 11 8 12 9 10 10 9 11 19 12
REMARK SMILES IDX 20 13 3 14 4 15 5 16 6 17 21 18 17 20 2 22 1 23
REMARK H PARENT 8 19 17 21
ROOT
ATOM      1  N   UNL     1     -18.670 -42.046  24.894  1.00  0.00    -0.358 N 
ATOM      2  C   UNL     1     -19.376 -41.386  23.912  1.00  0.00     0.021 A 
ATOM      3  C   UNL     1     -18.801 -40.923  22.783  1.00  0.00     0.000 A 
ATOM      4  C   UNL     1     -17.331 -41.145  22.573  1.00  0.00     0.068 A 
ATOM      5  C   UNL     1     -16.600 -41.940  23.612  1.00  0.00     0.023 A 
ATOM      6  C   UNL     1     -15.240 -42.262  23.487  1.00  0.00     0.014 A 
ATOM      7  C   UNL     1     -14.598 -43.000  24.486  1.00  0.00     0.021 A 
ATOM      8  C   UNL     1     -15.310 -43.413  25.609  1.00  0.00     0.043 A 
ATOM      9  Cl  UNL     1     -14.513 -44.311  26.841  1.00  0.00    -0.084 Cl
ATOM     10  C   UNL     1     -16.661 -43.104  25.742  1.00  0.00     0.047 A 
ATOM     11  C   UNL     1     -17.320 -42.381  24.740  1.00  0.00     0.049 A 
ATOM     12  C   UNL     1     -19.568 -40.164  21.709  1.00  0.00     0.028 C 
ATOM     13  C   UNL     1     -19.966 -41.102  20.545  1.00  0.00     0.039 C 
ATOM     14  C   UNL     1     -21.177 -41.973  20.846  1.00  0.00    -0.074 C 
ATOM     15  C   UNL     1     -21.921 -41.778  21.952  1.00  0.00    -0.024 C 
ATOM     16  C   UNL     1     -21.650 -40.670  22.949  1.00  0.00     0.018 C 
ATOM     17  C   UNL     1     -20.868 -41.210  24.162  1.00  0.00     0.062 C 
ATOM     18  C   UNL     1     -20.842 -39.543  22.300  1.00  0.00     0.017 C 
ATOM     19  H   UNL     1     -19.200 -42.499  25.629  1.00  0.00     0.166 HD
ENDROOT
BRANCH   4  20
ATOM     20  N   UNL     1     -16.764 -40.648  21.515  1.00  0.00    -0.300 NA
ATOM     21  H   UNL     1     -17.390 -40.072  20.957  1.00  0.00     0.188 HD
ENDBRANCH   4  20
BRANCH  14  22
ATOM     22  C   UNL     1     -21.472 -43.087  19.871  1.00  0.00     0.027 C 
ATOM     23  C   UNL     1     -22.019 -44.333  20.554  1.00  0.00     0.008 C 
ENDBRANCH  14  22
TORSDOF 2
ENDMDL
MODEL 7
REMARK VINA RESULT:    -8.214      3.200      6.484
REMARK INTER + INTRA:          -9.028
REMARK INTER:                  -8.934
REMARK INTRA:                  -0.094
REMARK UNBOUND:                -0.094
REMARK SMILES CCC1=C[C@H]2Cc3[nH]c4cc(Cl)ccc4c(=N)c3[C@@H](C1)C2
REMARK SMILES IDX 8 1 7 2 18 3 16 4 15 5 14 6 13 7 11 8 12 9 10 10 9 11 19 12
REMARK SMILES IDX 20 13 3 14 4 15 5 16 6 17 21 18 17 20 2 22 1 23
REMARK H PARENT 8 19 17 21
ROOT
ATOM      1  N   UNL     1     -10.992 -43.131  28.412  1.00  0.00    -0.358 N 
ATOM      2  C   UNL     1     -12.123 -43.512  27.726  1.00  0.00     0.021 A 
ATOM      3  C   UNL     1     -12.947 -44.490  28.157  1.00  0.00     0.000 A 
ATOM      4  C   UNL     1     -12.630 -45.189  29.448  1.00  0.00     0.068 A 
ATOM      5  C   UNL     1     -11.444 -44.700  30.222  1.00  0.00     0.023 A 
ATOM      6  C   UNL     1     -11.094 -45.236  31.470  1.00  0.00     0.014 A 
ATOM      7  C   UNL     1      -9.973 -44.755  32.153  1.00  0.00     0.021 A 
ATOM      8  C   UNL     1      -9.201 -43.741  31.590  1.00  0.00     0.043 A 
ATOM      9  Cl  UNL     1      -7.816 -43.158  32.428  1.00  0.00    -0.084 Cl
ATOM     10  C   UNL     1      -9.542 -43.198  30.354  1.00  0.00     0.047 A 
ATOM     11  C   UNL     1     -10.672 -43.660  29.669  1.00  0.00     0.049 A 
ATOM     12  C   UNL     1     -14.180 -44.939  27.387  1.00  0.00     0.028 C 
ATOM     13  C   UNL     1     -15.459 -44.278  27.954  1.00  0.00     0.039 C 
ATOM     14  C   UNL     1     -15.657 -42.838  27.504  1.00  0.00    -0.074 C 
ATOM     15  C   UNL     1     -14.880 -42.291  26.549  1.00  0.00    -0.024 C 
ATOM     16  C   UNL     1     -13.793 -43.058  25.824  1.00  0.00     0.018 C 
ATOM     17  C   UNL     1     -12.412 -42.755  26.437  1.00  0.00     0.062 C 
ATOM     18  C   UNL     1     -14.050 -44.566  25.903  1.00  0.00     0.017 C 
ATOM     19  H   UNL     1     -10.519 -42.288  28.109  1.00  0.00     0.166 HD
ENDROOT
BRANCH   4  20
ATOM     20  N   UNL     1     -13.388 -46.170  29.834  1.00  0.00    -0.300 NA
ATOM     21  H   UNL     1     -13.809 -46.681  29.062  1.00  0.00     0.188 HD
ENDBRANCH   4  20
BRANCH  14  22
ATOM     22  C   UNL     1     -16.731 -42.047  28.210  1.00  0.00     0.027 C 
ATOM     23  C   UNL     1     -18.132 -42.406  27.734  1.00  0.00     0.008 C 
ENDBRANCH  14  22
TORSDOF 2
ENDMDL
MODEL 8
REMARK VINA RESULT:    -7.952      5.776     10.540
REMARK INTER + INTRA:          -8.744
REMARK INTER:                  -8.647
REMARK INTRA:                  -0.096
REMARK UNBOUND:                -0.094
REMARK SMILES CCC1=C[C@H]2Cc3[nH]c4cc(Cl)ccc4c(=N)c3[C@@H](C1)C2
REMARK SMILES IDX 8 1 7 2 18 3 16 4 15 5 14 6 13 7 11 8 12 9 10 10 9 11 19 12
REMARK SMILES IDX 20 13 3 14 4 15 5 16 6 17 21 18 17 20 2 22 1 23
REMARK H PARENT 8 19 17 21
ROOT
ATOM      1  N   UNL     1     -20.207 -41.272  25.521  1.00  0.00    -0.358 N 
ATOM      2  C   UNL     1     -20.586 -41.107  24.208  1.00  0.00     0.021 A 
ATOM      3  C   UNL     1     -19.765 -41.369  23.169  1.00  0.00     0.000 A 
ATOM      4  C   UNL     1     -18.380 -41.878  23.451  1.00  0.00     0.068 A 
ATOM      5  C   UNL     1     -18.019 -42.133  24.882  1.00  0.00     0.023 A 
ATOM      6  C   UNL     1     -16.776 -42.668  25.254  1.00  0.00     0.014 A 
ATOM      7  C   UNL     1     -16.479 -42.882  26.604  1.00  0.00     0.021 A 
ATOM      8  C   UNL     1     -17.418 -42.560  27.580  1.00  0.00     0.043 A 
ATOM      9  Cl  UNL     1     -17.045 -42.815  29.240  1.00  0.00    -0.084 Cl
ATOM     10  C   UNL     1     -18.656 -42.034  27.222  1.00  0.00     0.047 A 
ATOM     11  C   UNL     1     -18.973 -41.832  25.873  1.00  0.00     0.049 A 
ATOM     12  C   UNL     1     -20.166 -41.157  21.717  1.00  0.00     0.028 C 
ATOM     13  C   UNL     1     -20.619 -42.486  21.067  1.00  0.00     0.039 C 
ATOM     14  C   UNL     1     -22.036 -42.897  21.436  1.00  0.00    -0.074 C 
ATOM     15  C   UNL     1     -22.855 -42.063  22.107  1.00  0.00    -0.024 C 
ATOM     16  C   UNL     1     -22.459 -40.655  22.504  1.00  0.00     0.018 C 
ATOM     17  C   UNL     1     -22.008 -40.613  23.977  1.00  0.00     0.062 C 
ATOM     18  C   UNL     1     -21.316 -40.145  21.622  1.00  0.00     0.017 C 
ATOM     19  H   UNL     1     -20.928 -41.208  26.231  1.00  0.00     0.166 HD
ENDROOT
BRANCH   4  20
ATOM     20  N   UNL     1     -17.569 -42.075  22.456  1.00  0.00    -0.300 NA
ATOM     21  H   UNL     1     -17.214 -43.028  22.409  1.00  0.00     0.188 HD
ENDBRANCH   4  20
BRANCH  14  22
ATOM     22  C   UNL     1     -22.460 -44.295  21.055  1.00  0.00     0.027 C 
ATOM     23  C   UNL     1     -22.290 -44.575  19.569  1.00  0.00     0.008 C 
ENDBRANCH  14  22
TORSDOF 2
ENDMDL
MODEL 9
REMARK VINA RESULT:    -7.396      6.945      9.784
REMARK INTER + INTRA:          -8.139
REMARK INTER:                  -8.007
REMARK INTRA:                  -0.131
REMARK UNBOUND:                -0.094
REMARK SMILES CCC1=C[C@H]2Cc3[nH]c4cc(Cl)ccc4c(=N)c3[C@@H](C1)C2
REMARK SMILES IDX 8 1 7 2 18 3 16 4 15 5 14 6 13 7 11 8 12 9 10 10 9 11 19 12
REMARK SMILES IDX 20 13 3 14 4 15 5 16 6 17 21 18 17 20 2 22 1 23
REMARK H PARENT 8 19 17 21
ROOT
ATOM      1  N   UNL     1     -21.910 -39.798  23.403  1.00  0.00    -0.358 N 
ATOM      2  C   UNL     1     -21.621 -40.854  24.239  1.00  0.00     0.021 A 
ATOM      3  C   UNL     1     -21.262 -42.072  23.783  1.00  0.00     0.000 A 
ATOM      4  C   UNL     1     -21.156 -42.290  22.301  1.00  0.00     0.068 A 
ATOM      5  C   UNL     1     -21.388 -41.105  21.413  1.00  0.00     0.023 A 
ATOM      6  C   UNL     1     -21.252 -41.179  20.019  1.00  0.00     0.014 A 
ATOM      7  C   UNL     1     -21.487 -40.049  19.229  1.00  0.00     0.021 A 
ATOM      8  C   UNL     1     -21.861 -38.850  19.829  1.00  0.00     0.043 A 
ATOM      9  Cl  UNL     1     -22.159 -37.464  18.853  1.00  0.00    -0.084 Cl
ATOM     10  C   UNL     1     -21.994 -38.763  21.212  1.00  0.00     0.047 A 
ATOM     11  C   UNL     1     -21.743 -39.883  22.015  1.00  0.00     0.049 A 
ATOM     12  C   UNL     1     -20.975 -43.253  24.700  1.00  0.00     0.028 C 
ATOM     13  C   UNL     1     -19.454 -43.422  24.924  1.00  0.00     0.039 C 
ATOM     14  C   UNL     1     -18.870 -42.448  25.937  1.00  0.00    -0.074 C 
ATOM     15  C   UNL     1     -19.665 -41.660  26.688  1.00  0.00    -0.024 C 
ATOM     16  C   UNL     1     -21.178 -41.708  26.624  1.00  0.00     0.018 C 
ATOM     17  C   UNL     1     -21.720 -40.574  25.732  1.00  0.00     0.062 C 
ATOM     18  C   UNL     1     -21.654 -43.050  26.061  1.00  0.00     0.017 C 
ATOM     19  H   UNL     1     -22.014 -38.882  23.822  1.00  0.00     0.166 HD
ENDROOT
BRANCH   4  20
ATOM     20  N   UNL     1     -20.867 -43.477  21.858  1.00  0.00    -0.300 NA
ATOM     21  H   UNL     1     -20.910 -43.548  20.844  1.00  0.00     0.188 HD
ENDBRANCH   4  20
BRANCH  14  22
ATOM     22  C   UNL     1     -17.365 -42.376  26.022  1.00  0.00     0.027 C 
ATOM     23  C   UNL     1     -16.689 -42.650  24.686  1.00  0.00     0.008 C 
ENDBRANCH  14  22
TORSDOF 2
ENDMDL
