MODEL 1
REMARK VINA RESULT:   -11.408      0.000      0.000
REMARK INTER + INTRA:         -15.781
REMARK INTER:                 -15.075
REMARK INTRA:                  -0.705
REMARK UNBOUND:                -0.705
REMARK SMILES COc1cc2c(cc1OC)C(O)=C(CC1CCN(c3ccccc3)CC1)C2
REMARK SMILES IDX 11 1 13 2 27 3 5 4 4 5 3 6 8 7 7 8 6 9 12 10 14 12 15 13
REMARK SMILES IDX 16 14 26 15 17 16 25 17 18 18 19 19 20 20 24 21 21 22 23 23
REMARK SMILES IDX 22 24 9 25 10 26 2 27 1 28
REMARK H PARENT 12 11
ROOT
ATOM      1  C   UNL     1     -15.494 -43.384  24.753  1.00  0.00     0.122 C 
ATOM      2  C   UNL     1     -15.126 -43.519  26.036  1.00  0.00    -0.023 C 
ATOM      3  C   UNL     1     -16.188 -42.970  26.968  1.00  0.00     0.071 C 
ATOM      4  C   UNL     1     -17.258 -42.564  25.994  1.00  0.00    -0.029 A 
ATOM      5  C   UNL     1     -18.500 -42.005  26.265  1.00  0.00     0.055 A 
ATOM      6  C   UNL     1     -19.348 -41.698  25.192  1.00  0.00     0.161 A 
ATOM      7  C   UNL     1     -18.930 -41.992  23.870  1.00  0.00     0.161 A 
ATOM      8  C   UNL     1     -17.659 -42.529  23.615  1.00  0.00     0.062 A 
ATOM      9  C   UNL     1     -16.833 -42.816  24.685  1.00  0.00     0.024 A 
ENDROOT
BRANCH   1  10
ATOM     10  O   UNL     1     -14.756 -43.700  23.657  1.00  0.00    -0.507 OA
ATOM     11  H   UNL     1     -14.430 -42.875  23.262  1.00  0.00     0.293 HD
ENDBRANCH   1  10
BRANCH   2  12
ATOM     12  C   UNL     1     -13.810 -43.994  26.555  1.00  0.00     0.039 C 
BRANCH  12  13
ATOM     13  C   UNL     1     -13.777 -45.135  27.599  1.00  0.00    -0.003 C 
ATOM     14  C   UNL     1     -12.710 -46.213  27.350  1.00  0.00     0.025 C 
ATOM     15  C   UNL     1     -13.765 -44.649  29.059  1.00  0.00     0.025 C 
ATOM     16  C   UNL     1     -11.357 -45.925  28.003  1.00  0.00     0.117 C 
ATOM     17  C   UNL     1     -12.375 -44.433  29.655  1.00  0.00     0.117 C 
ATOM     18  N   UNL     1     -11.548 -45.631  29.426  1.00  0.00    -0.372 N 
BRANCH  18  19
ATOM     19  C   UNL     1     -10.398 -45.640  30.241  1.00  0.00     0.037 A 
ATOM     20  C   UNL     1     -10.211 -44.593  31.159  1.00  0.00     0.026 A 
ATOM     21  C   UNL     1      -9.420 -46.643  30.200  1.00  0.00     0.026 A 
ATOM     22  C   UNL     1      -9.092 -44.542  31.995  1.00  0.00     0.002 A 
ATOM     23  C   UNL     1      -8.296 -46.597  31.034  1.00  0.00     0.002 A 
ATOM     24  C   UNL     1      -8.133 -45.546  31.931  1.00  0.00     0.000 A 
ENDBRANCH  18  19
ENDBRANCH  12  13
ENDBRANCH   2  12
BRANCH   7  25
ATOM     25  O   UNL     1     -19.660 -41.734  22.734  1.00  0.00    -0.493 OA
ATOM     26  C   UNL     1     -19.254 -40.568  22.023  1.00  0.00     0.278 C 
ENDBRANCH   7  25
BRANCH   6  27
ATOM     27  O   UNL     1     -20.576 -41.105  25.340  1.00  0.00    -0.493 OA
ATOM     28  C   UNL     1     -21.131 -41.049  26.646  1.00  0.00     0.278 C 
ENDBRANCH   6  27
TORSDOF 6
ENDMDL
MODEL 2
REMARK VINA RESULT:   -11.072      2.196      4.056
REMARK INTER + INTRA:         -15.337
REMARK INTER:                 -14.370
REMARK INTRA:                  -0.967
REMARK UNBOUND:                -0.705
REMARK SMILES COc1cc2c(cc1OC)C(O)=C(CC1CCN(c3ccccc3)CC1)C2
REMARK SMILES IDX 11 1 13 2 27 3 5 4 4 5 3 6 8 7 7 8 6 9 12 10 14 12 15 13
REMARK SMILES IDX 16 14 26 15 17 16 25 17 18 18 19 19 20 20 24 21 21 22 23 23
REMARK SMILES IDX 22 24 9 25 10 26 2 27 1 28
REMARK H PARENT 12 11
ROOT
ATOM      1  C   UNL     1     -14.183 -44.638  28.325  1.00  0.00     0.122 C 
ATOM      2  C   UNL     1     -13.184 -45.371  27.812  1.00  0.00    -0.023 C 
ATOM      3  C   UNL     1     -13.226 -45.366  26.297  1.00  0.00     0.071 C 
ATOM      4  C   UNL     1     -14.383 -44.443  26.034  1.00  0.00    -0.029 A 
ATOM      5  C   UNL     1     -14.894 -44.032  24.810  1.00  0.00     0.055 A 
ATOM      6  C   UNL     1     -15.992 -43.161  24.798  1.00  0.00     0.161 A 
ATOM      7  C   UNL     1     -16.528 -42.702  26.028  1.00  0.00     0.161 A 
ATOM      8  C   UNL     1     -16.016 -43.151  27.254  1.00  0.00     0.062 A 
ATOM      9  C   UNL     1     -14.939 -44.018  27.246  1.00  0.00     0.024 A 
ENDROOT
BRANCH   1  10
ATOM     10  O   UNL     1     -14.489 -44.483  29.640  1.00  0.00    -0.507 OA
ATOM     11  H   UNL     1     -15.445 -44.332  29.714  1.00  0.00     0.293 HD
ENDBRANCH   1  10
BRANCH   2  12
ATOM     12  C   UNL     1     -12.213 -46.224  28.558  1.00  0.00     0.039 C 
BRANCH  12  13
ATOM     13  C   UNL     1     -10.779 -45.700  28.803  1.00  0.00    -0.003 C 
ATOM     14  C   UNL     1     -10.629 -44.170  28.754  1.00  0.00     0.025 C 
ATOM     15  C   UNL     1     -10.094 -46.298  30.044  1.00  0.00     0.025 C 
ATOM     16  C   UNL     1     -10.837 -43.472  30.099  1.00  0.00     0.117 C 
ATOM     17  C   UNL     1     -10.307 -45.515  31.339  1.00  0.00     0.117 C 
ATOM     18  N   UNL     1      -9.984 -44.095  31.115  1.00  0.00    -0.372 N 
BRANCH  18  19
ATOM     19  C   UNL     1      -9.821 -43.396  32.328  1.00  0.00     0.037 A 
ATOM     20  C   UNL     1     -10.951 -42.824  32.937  1.00  0.00     0.026 A 
ATOM     21  C   UNL     1      -8.589 -43.238  32.979  1.00  0.00     0.026 A 
ATOM     22  C   UNL     1     -10.856 -42.118  34.140  1.00  0.00     0.002 A 
ATOM     23  C   UNL     1      -8.489 -42.530  34.182  1.00  0.00     0.002 A 
ATOM     24  C   UNL     1      -9.622 -41.970  34.762  1.00  0.00     0.000 A 
ENDBRANCH  18  19
ENDBRANCH  12  13
ENDBRANCH   2  12
BRANCH   7  25
ATOM     25  O   UNL     1     -17.604 -41.856  26.154  1.00  0.00    -0.493 OA
ATOM     26  C   UNL     1     -18.600 -42.299  27.071  1.00  0.00     0.278 C 
ENDBRANCH   7  25
BRANCH   6  27
ATOM     27  O   UNL     1     -16.604 -42.726  23.651  1.00  0.00    -0.493 OA
ATOM     28  C   UNL     1     -15.994 -41.661  22.937  1.00  0.00     0.278 C 
ENDBRANCH   6  27
TORSDOF 6
ENDMDL
MODEL 3
REMARK VINA RESULT:   -10.924      0.929      2.135
REMARK INTER + INTRA:         -15.141
REMARK INTER:                 -14.675
REMARK INTRA:                  -0.467
REMARK UNBOUND:                -0.705
REMARK SMILES COc1cc2c(cc1OC)C(O)=C(CC1CCN(c3ccccc3)CC1)C2
REMARK SMILES IDX 11 1 13 2 27 3 5 4 4 5 3 6 8 7 7 8 6 9 12 10 14 12 15 13
REMARK SMILES IDX 16 14 26 15 17 16 25 17 18 18 19 19 20 20 24 21 21 22 23 23
REMARK SMILES IDX 22 24 9 25 10 26 2 27 1 28
REMARK H PARENT 12 11
ROOT
ATOM      1  C   UNL     1     -15.986 -42.947  26.609  1.00  0.00     0.122 C 
ATOM      2  C   UNL     1     -14.948 -43.432  25.910  1.00  0.00    -0.023 C 
ATOM      3  C   UNL     1     -15.283 -43.528  24.434  1.00  0.00     0.071 C 
ATOM      4  C   UNL     1     -16.668 -42.945  24.405  1.00  0.00    -0.029 A 
ATOM      5  C   UNL     1     -17.495 -42.750  23.306  1.00  0.00     0.055 A 
ATOM      6  C   UNL     1     -18.763 -42.187  23.511  1.00  0.00     0.161 A 
ATOM      7  C   UNL     1     -19.151 -41.807  24.820  1.00  0.00     0.161 A 
ATOM      8  C   UNL     1     -18.313 -42.039  25.920  1.00  0.00     0.062 A 
ATOM      9  C   UNL     1     -17.070 -42.604  25.701  1.00  0.00     0.024 A 
ENDROOT
BRANCH   1  10
ATOM     10  O   UNL     1     -16.060 -42.798  27.957  1.00  0.00    -0.507 OA
ATOM     11  H   UNL     1     -16.464 -43.599  28.330  1.00  0.00     0.293 HD
ENDBRANCH   1  10
BRANCH   2  12
ATOM     12  C   UNL     1     -13.664 -43.967  26.450  1.00  0.00     0.039 C 
BRANCH  12  13
ATOM     13  C   UNL     1     -13.701 -45.062  27.541  1.00  0.00    -0.003 C 
ATOM     14  C   UNL     1     -12.694 -46.208  27.347  1.00  0.00     0.025 C 
ATOM     15  C   UNL     1     -13.671 -44.517  28.980  1.00  0.00     0.025 C 
ATOM     16  C   UNL     1     -11.331 -45.968  27.998  1.00  0.00     0.117 C 
ATOM     17  C   UNL     1     -12.275 -44.354  29.578  1.00  0.00     0.117 C 
ATOM     18  N   UNL     1     -11.515 -45.604  29.406  1.00  0.00    -0.372 N 
BRANCH  18  19
ATOM     19  C   UNL     1     -10.372 -45.643  30.230  1.00  0.00     0.037 A 
ATOM     20  C   UNL     1     -10.206 -44.643  31.204  1.00  0.00     0.026 A 
ATOM     21  C   UNL     1      -9.381 -46.631  30.146  1.00  0.00     0.026 A 
ATOM     22  C   UNL     1      -9.095 -44.624  32.052  1.00  0.00     0.002 A 
ATOM     23  C   UNL     1      -8.265 -46.615  30.992  1.00  0.00     0.002 A 
ATOM     24  C   UNL     1      -8.123 -45.611  31.944  1.00  0.00     0.000 A 
ENDBRANCH  18  19
ENDBRANCH  12  13
ENDBRANCH   2  12
BRANCH   7  25
ATOM     25  O   UNL     1     -20.364 -41.255  25.155  1.00  0.00    -0.493 OA
ATOM     26  C   UNL     1     -20.791 -41.529  26.487  1.00  0.00     0.278 C 
ENDBRANCH   7  25
BRANCH   6  27
ATOM     27  O   UNL     1     -19.677 -41.990  22.508  1.00  0.00    -0.493 OA
ATOM     28  C   UNL     1     -19.597 -40.781  21.766  1.00  0.00     0.278 C 
ENDBRANCH   6  27
TORSDOF 6
ENDMDL
MODEL 4
REMARK VINA RESULT:   -10.465      1.746      3.027
REMARK INTER + INTRA:         -14.536
REMARK INTER:                 -13.766
REMARK INTRA:                  -0.770
REMARK UNBOUND:                -0.705
REMARK SMILES COc1cc2c(cc1OC)C(O)=C(CC1CCN(c3ccccc3)CC1)C2
REMARK SMILES IDX 11 1 13 2 27 3 5 4 4 5 3 6 8 7 7 8 6 9 12 10 14 12 15 13
REMARK SMILES IDX 16 14 26 15 17 16 25 17 18 18 19 19 20 20 24 21 21 22 23 23
REMARK SMILES IDX 22 24 9 25 10 26 2 27 1 28
REMARK H PARENT 12 11
ROOT
ATOM      1  C   UNL     1     -15.618 -43.564  28.123  1.00  0.00     0.122 C 
ATOM      2  C   UNL     1     -14.466 -44.089  27.679  1.00  0.00    -0.023 C 
ATOM      3  C   UNL     1     -14.402 -44.060  26.165  1.00  0.00     0.071 C 
ATOM      4  C   UNL     1     -15.688 -43.361  25.826  1.00  0.00    -0.029 A 
ATOM      5  C   UNL     1     -16.180 -43.026  24.571  1.00  0.00     0.055 A 
ATOM      6  C   UNL     1     -17.417 -42.372  24.485  1.00  0.00     0.161 A 
ATOM      7  C   UNL     1     -18.114 -42.047  25.676  1.00  0.00     0.161 A 
ATOM      8  C   UNL     1     -17.615 -42.420  26.933  1.00  0.00     0.062 A 
ATOM      9  C   UNL     1     -16.398 -43.072  26.997  1.00  0.00     0.024 A 
ENDROOT
BRANCH   1  10
ATOM     10  O   UNL     1     -16.039 -43.497  29.413  1.00  0.00    -0.507 OA
ATOM     11  H   UNL     1     -17.003 -43.380  29.413  1.00  0.00     0.293 HD
ENDBRANCH   1  10
BRANCH   2  12
ATOM     12  C   UNL     1     -13.408 -44.764  28.487  1.00  0.00     0.039 C 
BRANCH  12  13
ATOM     13  C   UNL     1     -11.946 -44.741  27.987  1.00  0.00    -0.003 C 
ATOM     14  C   UNL     1     -11.191 -43.426  28.246  1.00  0.00     0.025 C 
ATOM     15  C   UNL     1     -11.116 -45.965  28.412  1.00  0.00     0.025 C 
ATOM     16  C   UNL     1     -10.461 -43.371  29.589  1.00  0.00     0.117 C 
ATOM     17  C   UNL     1     -10.376 -45.813  29.739  1.00  0.00     0.117 C 
ATOM     18  N   UNL     1      -9.609 -44.555  29.736  1.00  0.00    -0.372 N 
BRANCH  18  19
ATOM     19  C   UNL     1      -8.644 -44.524  30.763  1.00  0.00     0.037 A 
ATOM     20  C   UNL     1      -8.625 -43.427  31.640  1.00  0.00     0.026 A 
ATOM     21  C   UNL     1      -7.695 -45.535  30.973  1.00  0.00     0.026 A 
ATOM     22  C   UNL     1      -7.693 -43.336  32.679  1.00  0.00     0.002 A 
ATOM     23  C   UNL     1      -6.759 -45.447  32.011  1.00  0.00     0.002 A 
ATOM     24  C   UNL     1      -6.758 -44.347  32.863  1.00  0.00     0.000 A 
ENDBRANCH  18  19
ENDBRANCH  12  13
ENDBRANCH   2  12
BRANCH   7  25
ATOM     25  O   UNL     1     -19.335 -41.417  25.730  1.00  0.00    -0.493 OA
ATOM     26  C   UNL     1     -20.069 -41.654  26.928  1.00  0.00     0.278 C 
ENDBRANCH   7  25
BRANCH   6  27
ATOM     27  O   UNL     1     -18.017 -42.034  23.300  1.00  0.00    -0.493 OA
ATOM     28  C   UNL     1     -17.271 -41.249  22.380  1.00  0.00     0.278 C 
ENDBRANCH   6  27
TORSDOF 6
ENDMDL
MODEL 5
REMARK VINA RESULT:   -10.180      3.369     10.452
REMARK INTER + INTRA:         -14.159
REMARK INTER:                 -13.407
REMARK INTRA:                  -0.752
REMARK UNBOUND:                -0.705
REMARK SMILES COc1cc2c(cc1OC)C(O)=C(CC1CCN(c3ccccc3)CC1)C2
REMARK SMILES IDX 11 1 13 2 27 3 5 4 4 5 3 6 8 7 7 8 6 9 12 10 14 12 15 13
REMARK SMILES IDX 16 14 26 15 17 16 25 17 18 18 19 19 20 20 24 21 21 22 23 23
REMARK SMILES IDX 22 24 9 25 10 26 2 27 1 28
REMARK H PARENT 12 11
ROOT
ATOM      1  C   UNL     1     -15.482 -43.344  27.641  1.00  0.00     0.122 C 
ATOM      2  C   UNL     1     -15.366 -43.229  26.309  1.00  0.00    -0.023 C 
ATOM      3  C   UNL     1     -14.197 -44.043  25.792  1.00  0.00     0.071 C 
ATOM      4  C   UNL     1     -13.711 -44.701  27.053  1.00  0.00    -0.029 A 
ATOM      5  C   UNL     1     -12.657 -45.592  27.207  1.00  0.00     0.055 A 
ATOM      6  C   UNL     1     -12.373 -46.084  28.489  1.00  0.00     0.161 A 
ATOM      7  C   UNL     1     -13.183 -45.683  29.581  1.00  0.00     0.161 A 
ATOM      8  C   UNL     1     -14.224 -44.759  29.410  1.00  0.00     0.062 A 
ATOM      9  C   UNL     1     -14.483 -44.277  28.141  1.00  0.00     0.024 A 
ENDROOT
BRANCH   1  10
ATOM     10  O   UNL     1     -16.369 -42.696  28.440  1.00  0.00    -0.507 OA
ATOM     11  H   UNL     1     -16.613 -41.861  28.009  1.00  0.00     0.293 HD
ENDBRANCH   1  10
BRANCH   2  12
ATOM     12  C   UNL     1     -16.144 -42.329  25.408  1.00  0.00     0.039 C 
BRANCH  12  13
ATOM     13  C   UNL     1     -17.076 -42.951  24.342  1.00  0.00    -0.003 C 
ATOM     14  C   UNL     1     -18.579 -42.836  24.647  1.00  0.00     0.025 C 
ATOM     15  C   UNL     1     -16.755 -42.523  22.900  1.00  0.00     0.025 C 
ATOM     16  C   UNL     1     -19.237 -41.564  24.110  1.00  0.00     0.117 C 
ATOM     17  C   UNL     1     -17.491 -41.273  22.419  1.00  0.00     0.117 C 
ATOM     18  N   UNL     1     -18.934 -41.417  22.683  1.00  0.00    -0.372 N 
BRANCH  18  19
ATOM     19  C   UNL     1     -19.697 -40.478  21.960  1.00  0.00     0.037 A 
ATOM     20  C   UNL     1     -19.305 -40.152  20.651  1.00  0.00     0.026 A 
ATOM     21  C   UNL     1     -20.841 -39.846  22.467  1.00  0.00     0.026 A 
ATOM     22  C   UNL     1     -20.019 -39.229  19.881  1.00  0.00     0.002 A 
ATOM     23  C   UNL     1     -21.558 -38.919  21.701  1.00  0.00     0.002 A 
ATOM     24  C   UNL     1     -21.146 -38.611  20.409  1.00  0.00     0.000 A 
ENDBRANCH  18  19
ENDBRANCH  12  13
ENDBRANCH   2  12
BRANCH   7  25
ATOM     25  O   UNL     1     -13.006 -46.084  30.884  1.00  0.00    -0.493 OA
ATOM     26  C   UNL     1     -12.873 -45.016  31.818  1.00  0.00     0.278 C 
ENDBRANCH   7  25
BRANCH   6  27
ATOM     27  O   UNL     1     -11.332 -46.933  28.763  1.00  0.00    -0.493 OA
ATOM     28  C   UNL     1     -10.078 -46.356  29.102  1.00  0.00     0.278 C 
ENDBRANCH   6  27
TORSDOF 6
ENDMDL
MODEL 6
REMARK VINA RESULT:    -9.998      1.322      1.693
REMARK INTER + INTRA:         -13.919
REMARK INTER:                 -13.530
REMARK INTRA:                  -0.389
REMARK UNBOUND:                -0.705
REMARK SMILES COc1cc2c(cc1OC)C(O)=C(CC1CCN(c3ccccc3)CC1)C2
REMARK SMILES IDX 11 1 13 2 27 3 5 4 4 5 3 6 8 7 7 8 6 9 12 10 14 12 15 13
REMARK SMILES IDX 16 14 26 15 17 16 25 17 18 18 19 19 20 20 24 21 21 22 23 23
REMARK SMILES IDX 22 24 9 25 10 26 2 27 1 28
REMARK H PARENT 12 11
ROOT
ATOM      1  C   UNL     1     -16.202 -42.724  24.866  1.00  0.00     0.122 C 
ATOM      2  C   UNL     1     -16.248 -42.879  26.198  1.00  0.00    -0.023 C 
ATOM      3  C   UNL     1     -17.608 -42.491  26.744  1.00  0.00     0.071 C 
ATOM      4  C   UNL     1     -18.351 -42.157  25.482  1.00  0.00    -0.029 A 
ATOM      5  C   UNL     1     -19.671 -41.747  25.344  1.00  0.00     0.055 A 
ATOM      6  C   UNL     1     -20.163 -41.482  24.058  1.00  0.00     0.161 A 
ATOM      7  C   UNL     1     -19.314 -41.667  22.939  1.00  0.00     0.161 A 
ATOM      8  C   UNL     1     -17.975 -42.053  23.100  1.00  0.00     0.062 A 
ATOM      9  C   UNL     1     -17.505 -42.300  24.376  1.00  0.00     0.024 A 
ENDROOT
BRANCH   1  10
ATOM     10  O   UNL     1     -15.122 -42.908  24.062  1.00  0.00    -0.507 OA
ATOM     11  H   UNL     1     -14.547 -42.129  24.143  1.00  0.00     0.293 HD
ENDBRANCH   1  10
BRANCH   2  12
ATOM     12  C   UNL     1     -15.119 -43.235  27.107  1.00  0.00     0.039 C 
BRANCH  12  13
ATOM     13  C   UNL     1     -13.833 -43.852  26.509  1.00  0.00    -0.003 C 
ATOM     14  C   UNL     1     -12.574 -42.979  26.636  1.00  0.00     0.025 C 
ATOM     15  C   UNL     1     -13.567 -45.301  26.952  1.00  0.00     0.025 C 
ATOM     16  C   UNL     1     -11.776 -43.204  27.921  1.00  0.00     0.117 C 
ATOM     17  C   UNL     1     -12.720 -45.444  28.215  1.00  0.00     0.117 C 
ATOM     18  N   UNL     1     -11.496 -44.634  28.083  1.00  0.00    -0.372 N 
BRANCH  18  19
ATOM     19  C   UNL     1     -10.524 -44.991  29.039  1.00  0.00     0.037 A 
ATOM     20  C   UNL     1      -9.657 -43.997  29.525  1.00  0.00     0.026 A 
ATOM     21  C   UNL     1     -10.368 -46.287  29.549  1.00  0.00     0.026 A 
ATOM     22  C   UNL     1      -8.671 -44.285  30.474  1.00  0.00     0.002 A 
ATOM     23  C   UNL     1      -9.381 -46.581  30.498  1.00  0.00     0.002 A 
ATOM     24  C   UNL     1      -8.533 -45.580  30.959  1.00  0.00     0.000 A 
ENDBRANCH  18  19
ENDBRANCH  12  13
ENDBRANCH   2  12
BRANCH   7  25
ATOM     25  O   UNL     1     -19.670 -41.436  21.631  1.00  0.00    -0.493 OA
ATOM     26  C   UNL     1     -19.286 -40.157  21.132  1.00  0.00     0.278 C 
ENDBRANCH   7  25
BRANCH   6  27
ATOM     27  O   UNL     1     -21.434 -41.032  23.809  1.00  0.00    -0.493 OA
ATOM     28  C   UNL     1     -22.480 -41.992  23.763  1.00  0.00     0.278 C 
ENDBRANCH   6  27
TORSDOF 6
ENDMDL
MODEL 7
REMARK VINA RESULT:    -9.830      2.321      4.356
REMARK INTER + INTRA:         -13.697
REMARK INTER:                 -12.999
REMARK INTRA:                  -0.697
REMARK UNBOUND:                -0.705
REMARK SMILES COc1cc2c(cc1OC)C(O)=C(CC1CCN(c3ccccc3)CC1)C2
REMARK SMILES IDX 11 1 13 2 27 3 5 4 4 5 3 6 8 7 7 8 6 9 12 10 14 12 15 13
REMARK SMILES IDX 16 14 26 15 17 16 25 17 18 18 19 19 20 20 24 21 21 22 23 23
REMARK SMILES IDX 22 24 9 25 10 26 2 27 1 28
REMARK H PARENT 12 11
ROOT
ATOM      1  C   UNL     1     -17.988 -41.529  22.792  1.00  0.00     0.122 C 
ATOM      2  C   UNL     1     -18.209 -42.153  23.958  1.00  0.00    -0.023 C 
ATOM      3  C   UNL     1     -19.572 -41.794  24.518  1.00  0.00     0.071 C 
ATOM      4  C   UNL     1     -20.117 -40.911  23.431  1.00  0.00    -0.029 A 
ATOM      5  C   UNL     1     -21.356 -40.287  23.370  1.00  0.00     0.055 A 
ATOM      6  C   UNL     1     -21.658 -39.498  22.252  1.00  0.00     0.161 A 
ATOM      7  C   UNL     1     -20.708 -39.383  21.206  1.00  0.00     0.161 A 
ATOM      8  C   UNL     1     -19.450 -39.998  21.299  1.00  0.00     0.062 A 
ATOM      9  C   UNL     1     -19.167 -40.764  22.414  1.00  0.00     0.024 A 
ENDROOT
BRANCH   1  10
ATOM     10  O   UNL     1     -16.847 -41.564  22.054  1.00  0.00    -0.507 OA
ATOM     11  H   UNL     1     -17.074 -41.348  21.134  1.00  0.00     0.293 HD
ENDBRANCH   1  10
BRANCH   2  12
ATOM     12  C   UNL     1     -17.245 -42.984  24.738  1.00  0.00     0.039 C 
BRANCH  12  13
ATOM     13  C   UNL     1     -16.033 -42.300  25.413  1.00  0.00    -0.003 C 
ATOM     14  C   UNL     1     -15.983 -42.430  26.944  1.00  0.00     0.025 C 
ATOM     15  C   UNL     1     -14.679 -42.643  24.769  1.00  0.00     0.025 C 
ATOM     16  C   UNL     1     -15.238 -43.667  27.449  1.00  0.00     0.117 C 
ATOM     17  C   UNL     1     -13.973 -43.862  25.362  1.00  0.00     0.117 C 
ATOM     18  N   UNL     1     -13.911 -43.731  26.828  1.00  0.00    -0.372 N 
BRANCH  18  19
ATOM     19  C   UNL     1     -12.982 -44.625  27.397  1.00  0.00     0.037 A 
ATOM     20  C   UNL     1     -12.879 -45.922  26.865  1.00  0.00     0.026 A 
ATOM     21  C   UNL     1     -12.138 -44.298  28.468  1.00  0.00     0.026 A 
ATOM     22  C   UNL     1     -11.977 -46.856  27.384  1.00  0.00     0.002 A 
ATOM     23  C   UNL     1     -11.236 -45.231  28.992  1.00  0.00     0.002 A 
ATOM     24  C   UNL     1     -11.156 -46.510  28.450  1.00  0.00     0.000 A 
ENDBRANCH  18  19
ENDBRANCH  12  13
ENDBRANCH   2  12
BRANCH   7  25
ATOM     25  O   UNL     1     -20.877 -38.637  20.064  1.00  0.00    -0.493 OA
ATOM     26  C   UNL     1     -21.624 -39.287  19.039  1.00  0.00     0.278 C 
ENDBRANCH   7  25
BRANCH   6  27
ATOM     27  O   UNL     1     -22.830 -38.802  22.108  1.00  0.00    -0.493 OA
ATOM     28  C   UNL     1     -23.809 -38.934  23.130  1.00  0.00     0.278 C 
ENDBRANCH   6  27
TORSDOF 6
ENDMDL
MODEL 8
REMARK VINA RESULT:    -9.787      1.740      2.792
REMARK INTER + INTRA:         -13.639
REMARK INTER:                 -12.916
REMARK INTRA:                  -0.723
REMARK UNBOUND:                -0.705
REMARK SMILES COc1cc2c(cc1OC)C(O)=C(CC1CCN(c3ccccc3)CC1)C2
REMARK SMILES IDX 11 1 13 2 27 3 5 4 4 5 3 6 8 7 7 8 6 9 12 10 14 12 15 13
REMARK SMILES IDX 16 14 26 15 17 16 25 17 18 18 19 19 20 20 24 21 21 22 23 23
REMARK SMILES IDX 22 24 9 25 10 26 2 27 1 28
REMARK H PARENT 12 11
ROOT
ATOM      1  C   UNL     1     -16.382 -41.796  23.312  1.00  0.00     0.122 C 
ATOM      2  C   UNL     1     -16.444 -42.677  24.322  1.00  0.00    -0.023 C 
ATOM      3  C   UNL     1     -17.872 -42.863  24.796  1.00  0.00     0.071 C 
ATOM      4  C   UNL     1     -18.622 -41.988  23.831  1.00  0.00    -0.029 A 
ATOM      5  C   UNL     1     -19.991 -41.766  23.757  1.00  0.00     0.055 A 
ATOM      6  C   UNL     1     -20.479 -40.898  22.770  1.00  0.00     0.161 A 
ATOM      7  C   UNL     1     -19.571 -40.298  21.862  1.00  0.00     0.161 A 
ATOM      8  C   UNL     1     -18.189 -40.512  21.972  1.00  0.00     0.062 A 
ATOM      9  C   UNL     1     -17.725 -41.362  22.957  1.00  0.00     0.024 A 
ENDROOT
BRANCH   1  10
ATOM     10  O   UNL     1     -15.259 -41.340  22.699  1.00  0.00    -0.507 OA
ATOM     11  H   UNL     1     -14.903 -40.604  23.225  1.00  0.00     0.293 HD
ENDBRANCH   1  10
BRANCH   2  12
ATOM     12  C   UNL     1     -15.300 -43.317  25.037  1.00  0.00     0.039 C 
BRANCH  12  13
ATOM     13  C   UNL     1     -14.835 -42.733  26.391  1.00  0.00    -0.003 C 
ATOM     14  C   UNL     1     -15.323 -43.499  27.632  1.00  0.00     0.025 C 
ATOM     15  C   UNL     1     -13.327 -42.437  26.463  1.00  0.00     0.025 C 
ATOM     16  C   UNL     1     -14.390 -44.621  28.088  1.00  0.00     0.117 C 
ATOM     17  C   UNL     1     -12.467 -43.591  26.977  1.00  0.00     0.117 C 
ATOM     18  N   UNL     1     -13.028 -44.099  28.241  1.00  0.00    -0.372 N 
BRANCH  18  19
ATOM     19  C   UNL     1     -12.108 -44.909  28.937  1.00  0.00     0.037 A 
ATOM     20  C   UNL     1     -12.136 -44.910  30.342  1.00  0.00     0.026 A 
ATOM     21  C   UNL     1     -11.159 -45.729  28.310  1.00  0.00     0.026 A 
ATOM     22  C   UNL     1     -11.251 -45.690  31.091  1.00  0.00     0.002 A 
ATOM     23  C   UNL     1     -10.268 -46.510  29.057  1.00  0.00     0.002 A 
ATOM     24  C   UNL     1     -10.315 -46.490  30.447  1.00  0.00     0.000 A 
ENDBRANCH  18  19
ENDBRANCH  12  13
ENDBRANCH   2  12
BRANCH   7  25
ATOM     25  O   UNL     1     -19.918 -39.426  20.858  1.00  0.00    -0.493 OA
ATOM     26  C   UNL     1     -20.089 -40.034  19.580  1.00  0.00     0.278 C 
ENDBRANCH   7  25
BRANCH   6  27
ATOM     27  O   UNL     1     -21.804 -40.573  22.633  1.00  0.00    -0.493 OA
ATOM     28  C   UNL     1     -22.749 -41.308  23.398  1.00  0.00     0.278 C 
ENDBRANCH   6  27
TORSDOF 6
ENDMDL
MODEL 9
REMARK VINA RESULT:    -9.684      3.255     10.292
REMARK INTER + INTRA:         -13.503
REMARK INTER:                 -12.844
REMARK INTRA:                  -0.660
REMARK UNBOUND:                -0.705
REMARK SMILES COc1cc2c(cc1OC)C(O)=C(CC1CCN(c3ccccc3)CC1)C2
REMARK SMILES IDX 11 1 13 2 27 3 5 4 4 5 3 6 8 7 7 8 6 9 12 10 14 12 15 13
REMARK SMILES IDX 16 14 26 15 17 16 25 17 18 18 19 19 20 20 24 21 21 22 23 23
REMARK SMILES IDX 22 24 9 25 10 26 2 27 1 28
REMARK H PARENT 12 11
ROOT
ATOM      1  C   UNL     1     -14.571 -43.907  25.831  1.00  0.00     0.122 C 
ATOM      2  C   UNL     1     -15.523 -43.085  26.299  1.00  0.00    -0.023 C 
ATOM      3  C   UNL     1     -15.674 -43.226  27.801  1.00  0.00     0.071 C 
ATOM      4  C   UNL     1     -14.593 -44.221  28.117  1.00  0.00    -0.029 A 
ATOM      5  C   UNL     1     -14.231 -44.734  29.356  1.00  0.00     0.055 A 
ATOM      6  C   UNL     1     -13.184 -45.663  29.420  1.00  0.00     0.161 A 
ATOM      7  C   UNL     1     -12.506 -46.029  28.230  1.00  0.00     0.161 A 
ATOM      8  C   UNL     1     -12.905 -45.522  26.984  1.00  0.00     0.062 A 
ATOM      9  C   UNL     1     -13.946 -44.614  26.939  1.00  0.00     0.024 A 
ENDROOT
BRANCH   1  10
ATOM     10  O   UNL     1     -14.223 -44.093  24.531  1.00  0.00    -0.507 OA
ATOM     11  H   UNL     1     -13.400 -44.608  24.507  1.00  0.00     0.293 HD
ENDBRANCH   1  10
BRANCH   2  12
ATOM     12  C   UNL     1     -16.451 -42.229  25.503  1.00  0.00     0.039 C 
BRANCH  12  13
ATOM     13  C   UNL     1     -17.317 -42.879  24.399  1.00  0.00    -0.003 C 
ATOM     14  C   UNL     1     -18.835 -42.760  24.610  1.00  0.00     0.025 C 
ATOM     15  C   UNL     1     -16.910 -42.485  22.968  1.00  0.00     0.025 C 
ATOM     16  C   UNL     1     -19.461 -41.504  24.003  1.00  0.00     0.117 C 
ATOM     17  C   UNL     1     -17.617 -41.249  22.414  1.00  0.00     0.117 C 
ATOM     18  N   UNL     1     -19.072 -41.391  22.594  1.00  0.00    -0.372 N 
BRANCH  18  19
ATOM     19  C   UNL     1     -19.792 -40.472  21.804  1.00  0.00     0.037 A 
ATOM     20  C   UNL     1     -20.959 -39.894  22.333  1.00  0.00     0.026 A 
ATOM     21  C   UNL     1     -19.409 -40.085  20.512  1.00  0.00     0.026 A 
ATOM     22  C   UNL     1     -21.718 -38.976  21.601  1.00  0.00     0.002 A 
ATOM     23  C   UNL     1     -20.167 -39.168  19.774  1.00  0.00     0.002 A 
ATOM     24  C   UNL     1     -21.321 -38.614  20.319  1.00  0.00     0.000 A 
ENDBRANCH  18  19
ENDBRANCH  12  13
ENDBRANCH   2  12
BRANCH   7  25
ATOM     25  O   UNL     1     -11.472 -46.931  28.155  1.00  0.00    -0.493 OA
ATOM     26  C   UNL     1     -10.196 -46.396  28.495  1.00  0.00     0.278 C 
ENDBRANCH   7  25
BRANCH   6  27
ATOM     27  O   UNL     1     -12.773 -46.266  30.581  1.00  0.00    -0.493 OA
ATOM     28  C   UNL     1     -12.111 -45.461  31.547  1.00  0.00     0.278 C 
ENDBRANCH   6  27
TORSDOF 6
ENDMDL
