MODEL 1
REMARK VINA RESULT:    -9.730      0.000      0.000
REMARK INTER + INTRA:         -10.015
REMARK INTER:                 -10.015
REMARK INTRA:                   0.000
REMARK UNBOUND:                 0.000
REMARK SMILES CC1=C[C@@H]2Cc3[nH]c4cc(Cl)ccc4c(=N)c3[C@H](C1)C2
REMARK SMILES IDX 7 1 6 2 17 3 15 4 14 5 13 6 12 7 10 8 11 9 9 10 8 11 18 12
REMARK SMILES IDX 19 13 2 14 1 15 3 16 4 17 5 18 20 19 16 21
REMARK H PARENT 7 20 16 22
ROOT
ATOM      1  N   UNL     1     -13.359 -44.918  27.150  1.00  0.00    -0.358 N 
ATOM      2  C   UNL     1     -13.130 -45.207  28.478  1.00  0.00     0.021 A 
ATOM      3  C   UNL     1     -13.934 -44.781  29.479  1.00  0.00     0.000 A 
ATOM      4  C   UNL     1     -15.124 -43.927  29.125  1.00  0.00     0.068 A 
ATOM      5  C   UNL     1     -15.326 -43.602  27.681  1.00  0.00     0.023 A 
ATOM      6  C   UNL     1     -16.407 -42.808  27.274  1.00  0.00     0.014 A 
ATOM      7  C   UNL     1     -16.585 -42.513  25.922  1.00  0.00     0.021 A 
ATOM      8  C   UNL     1     -15.686 -43.017  24.984  1.00  0.00     0.043 A 
ATOM      9  Cl  UNL     1     -15.909 -42.663  23.315  1.00  0.00    -0.084 Cl
ATOM     10  C   UNL     1     -14.608 -43.810  25.384  1.00  0.00     0.047 A 
ATOM     11  C   UNL     1     -14.414 -44.098  26.739  1.00  0.00     0.049 A 
ATOM     12  C   UNL     1     -13.686 -45.145  30.936  1.00  0.00     0.028 C 
ATOM     13  C   UNL     1     -12.964 -43.994  31.678  1.00  0.00     0.039 C 
ATOM     14  C   UNL     1     -11.471 -43.940  31.414  1.00  0.00    -0.076 C 
ATOM     15  C   UNL     1     -10.756 -42.721  31.920  1.00  0.00     0.039 C 
ATOM     16  C   UNL     1     -10.836 -44.926  30.753  1.00  0.00    -0.024 C 
ATOM     17  C   UNL     1     -11.538 -46.173  30.256  1.00  0.00     0.018 C 
ATOM     18  C   UNL     1     -11.888 -46.044  28.762  1.00  0.00     0.062 C 
ATOM     19  C   UNL     1     -12.829 -46.414  31.042  1.00  0.00     0.017 C 
ATOM     20  H   UNL     1     -12.642 -45.161  26.476  1.00  0.00     0.166 HD
ENDROOT
BRANCH   4  21
ATOM     21  N   UNL     1     -15.968 -43.455  29.990  1.00  0.00    -0.300 NA
ATOM     22  H   UNL     1     -16.895 -43.869  29.896  1.00  0.00     0.188 HD
ENDBRANCH   4  21
TORSDOF 1
ENDMDL
MODEL 2
REMARK VINA RESULT:    -9.505      2.018      3.097
REMARK INTER + INTRA:          -9.783
REMARK INTER:                  -9.783
REMARK INTRA:                   0.000
REMARK UNBOUND:                 0.000
REMARK SMILES CC1=C[C@@H]2Cc3[nH]c4cc(Cl)ccc4c(=N)c3[C@H](C1)C2
REMARK SMILES IDX 7 1 6 2 17 3 15 4 14 5 13 6 12 7 10 8 11 9 9 10 8 11 18 12
REMARK SMILES IDX 19 13 2 14 1 15 3 16 4 17 5 18 20 19 16 21
REMARK H PARENT 7 20 16 22
ROOT
ATOM      1  N   UNL     1     -10.772 -43.202  27.862  1.00  0.00    -0.358 N 
ATOM      2  C   UNL     1     -10.154 -43.849  28.910  1.00  0.00     0.021 A 
ATOM      3  C   UNL     1     -10.751 -44.822  29.638  1.00  0.00     0.000 A 
ATOM      4  C   UNL     1     -12.172 -45.195  29.300  1.00  0.00     0.068 A 
ATOM      5  C   UNL     1     -12.826 -44.452  28.182  1.00  0.00     0.023 A 
ATOM      6  C   UNL     1     -14.148 -44.739  27.813  1.00  0.00     0.014 A 
ATOM      7  C   UNL     1     -14.747 -44.038  26.766  1.00  0.00     0.021 A 
ATOM      8  C   UNL     1     -14.021 -43.059  26.090  1.00  0.00     0.043 A 
ATOM      9  Cl  UNL     1     -14.754 -42.201  24.791  1.00  0.00    -0.084 Cl
ATOM     10  C   UNL     1     -12.704 -42.770  26.452  1.00  0.00     0.047 A 
ATOM     11  C   UNL     1     -12.101 -43.458  27.511  1.00  0.00     0.049 A 
ATOM     12  C   UNL     1     -10.037 -45.552  30.766  1.00  0.00     0.028 C 
ATOM     13  C   UNL     1     -10.424 -44.957  32.141  1.00  0.00     0.039 C 
ATOM     14  C   UNL     1      -9.689 -43.673  32.479  1.00  0.00    -0.076 C 
ATOM     15  C   UNL     1     -10.179 -42.930  33.687  1.00  0.00     0.039 C 
ATOM     16  C   UNL     1      -8.667 -43.226  31.724  1.00  0.00    -0.024 C 
ATOM     17  C   UNL     1      -8.145 -43.976  30.515  1.00  0.00     0.018 C 
ATOM     18  C   UNL     1      -8.732 -43.393  29.216  1.00  0.00     0.062 C 
ATOM     19  C   UNL     1      -8.515 -45.458  30.598  1.00  0.00     0.017 C 
ATOM     20  H   UNL     1     -10.308 -42.399  27.455  1.00  0.00     0.166 HD
ENDROOT
BRANCH   4  21
ATOM     21  N   UNL     1     -12.854 -46.107  29.922  1.00  0.00    -0.300 NA
ATOM     22  H   UNL     1     -12.606 -47.050  29.624  1.00  0.00     0.188 HD
ENDBRANCH   4  21
TORSDOF 1
ENDMDL
MODEL 3
REMARK VINA RESULT:    -8.701      3.993      7.060
REMARK INTER + INTRA:          -8.955
REMARK INTER:                  -8.955
REMARK INTRA:                   0.000
REMARK UNBOUND:                 0.000
REMARK SMILES CC1=C[C@@H]2Cc3[nH]c4cc(Cl)ccc4c(=N)c3[C@H](C1)C2
REMARK SMILES IDX 7 1 6 2 17 3 15 4 14 5 13 6 12 7 10 8 11 9 9 10 8 11 18 12
REMARK SMILES IDX 19 13 2 14 1 15 3 16 4 17 5 18 20 19 16 21
REMARK H PARENT 7 20 16 22
ROOT
ATOM      1  N   UNL     1     -11.997 -43.700  32.443  1.00  0.00    -0.358 N 
ATOM      2  C   UNL     1     -12.266 -44.456  31.322  1.00  0.00     0.021 A 
ATOM      3  C   UNL     1     -11.301 -44.987  30.536  1.00  0.00     0.000 A 
ATOM      4  C   UNL     1      -9.861 -44.716  30.892  1.00  0.00     0.068 A 
ATOM      5  C   UNL     1      -9.603 -43.866  32.092  1.00  0.00     0.023 A 
ATOM      6  C   UNL     1      -8.290 -43.564  32.483  1.00  0.00     0.014 A 
ATOM      7  C   UNL     1      -8.063 -42.770  33.607  1.00  0.00     0.021 A 
ATOM      8  C   UNL     1      -9.146 -42.285  34.337  1.00  0.00     0.043 A 
ATOM      9  Cl  UNL     1      -8.868 -41.313  35.729  1.00  0.00    -0.084 Cl
ATOM     10  C   UNL     1     -10.455 -42.582  33.953  1.00  0.00     0.047 A 
ATOM     11  C   UNL     1     -10.693 -43.367  32.819  1.00  0.00     0.049 A 
ATOM     12  C   UNL     1     -11.619 -45.852  29.325  1.00  0.00     0.028 C 
ATOM     13  C   UNL     1     -11.548 -45.023  28.021  1.00  0.00     0.039 C 
ATOM     14  C   UNL     1     -12.783 -44.178  27.768  1.00  0.00    -0.076 C 
ATOM     15  C   UNL     1     -12.684 -43.187  26.645  1.00  0.00     0.039 C 
ATOM     16  C   UNL     1     -13.892 -44.307  28.520  1.00  0.00    -0.024 C 
ATOM     17  C   UNL     1     -14.015 -45.318  29.642  1.00  0.00     0.018 C 
ATOM     18  C   UNL     1     -13.743 -44.657  31.006  1.00  0.00     0.062 C 
ATOM     19  C   UNL     1     -13.020 -46.464  29.446  1.00  0.00     0.017 C 
ATOM     20  H   UNL     1     -12.770 -43.231  32.901  1.00  0.00     0.166 HD
ENDROOT
BRANCH   4  21
ATOM     21  N   UNL     1      -8.846 -45.165  30.220  1.00  0.00    -0.300 NA
ATOM     22  H   UNL     1      -8.034 -44.552  30.285  1.00  0.00     0.188 HD
ENDBRANCH   4  21
TORSDOF 1
ENDMDL
MODEL 4
REMARK VINA RESULT:    -8.602      4.385      8.508
REMARK INTER + INTRA:          -8.853
REMARK INTER:                  -8.853
REMARK INTRA:                   0.000
REMARK UNBOUND:                 0.000
REMARK SMILES CC1=C[C@@H]2Cc3[nH]c4cc(Cl)ccc4c(=N)c3[C@H](C1)C2
REMARK SMILES IDX 7 1 6 2 17 3 15 4 14 5 13 6 12 7 10 8 11 9 9 10 8 11 18 12
REMARK SMILES IDX 19 13 2 14 1 15 3 16 4 17 5 18 20 19 16 21
REMARK H PARENT 7 20 16 22
ROOT
ATOM      1  N   UNL     1     -17.816 -42.382  26.396  1.00  0.00    -0.358 N 
ATOM      2  C   UNL     1     -18.961 -42.400  25.629  1.00  0.00     0.021 A 
ATOM      3  C   UNL     1     -18.972 -42.741  24.319  1.00  0.00     0.000 A 
ATOM      4  C   UNL     1     -17.661 -43.093  23.662  1.00  0.00     0.068 A 
ATOM      5  C   UNL     1     -16.434 -43.032  24.511  1.00  0.00     0.023 A 
ATOM      6  C   UNL     1     -15.178 -43.339  23.970  1.00  0.00     0.014 A 
ATOM      7  C   UNL     1     -14.039 -43.279  24.774  1.00  0.00     0.021 A 
ATOM      8  C   UNL     1     -14.162 -42.916  26.114  1.00  0.00     0.043 A 
ATOM      9  Cl  UNL     1     -12.760 -42.851  27.110  1.00  0.00    -0.084 Cl
ATOM     10  C   UNL     1     -15.410 -42.609  26.658  1.00  0.00     0.047 A 
ATOM     11  C   UNL     1     -16.556 -42.654  25.856  1.00  0.00     0.049 A 
ATOM     12  C   UNL     1     -20.253 -42.793  23.500  1.00  0.00     0.028 C 
ATOM     13  C   UNL     1     -20.429 -41.501  22.666  1.00  0.00     0.039 C 
ATOM     14  C   UNL     1     -20.962 -40.327  23.465  1.00  0.00    -0.076 C 
ATOM     15  C   UNL     1     -20.941 -38.995  22.775  1.00  0.00     0.039 C 
ATOM     16  C   UNL     1     -21.412 -40.478  24.725  1.00  0.00    -0.024 C 
ATOM     17  C   UNL     1     -21.461 -41.819  25.429  1.00  0.00     0.018 C 
ATOM     18  C   UNL     1     -20.241 -41.996  26.351  1.00  0.00     0.062 C 
ATOM     19  C   UNL     1     -21.476 -42.962  24.411  1.00  0.00     0.017 C 
ATOM     20  H   UNL     1     -17.871 -41.990  27.328  1.00  0.00     0.166 HD
ENDROOT
BRANCH   4  21
ATOM     21  N   UNL     1     -17.538 -43.434  22.417  1.00  0.00    -0.300 NA
ATOM     22  H   UNL     1     -16.867 -44.191  22.285  1.00  0.00     0.188 HD
ENDBRANCH   4  21
TORSDOF 1
ENDMDL
MODEL 5
REMARK VINA RESULT:    -8.487      5.945     10.641
REMARK INTER + INTRA:          -8.736
REMARK INTER:                  -8.736
REMARK INTRA:                   0.000
REMARK UNBOUND:                 0.000
REMARK SMILES CC1=C[C@@H]2Cc3[nH]c4cc(Cl)ccc4c(=N)c3[C@H](C1)C2
REMARK SMILES IDX 7 1 6 2 17 3 15 4 14 5 13 6 12 7 10 8 11 9 9 10 8 11 18 12
REMARK SMILES IDX 19 13 2 14 1 15 3 16 4 17 5 18 20 19 16 21
REMARK H PARENT 7 20 16 22
ROOT
ATOM      1  N   UNL     1     -17.838 -40.898  21.801  1.00  0.00    -0.358 N 
ATOM      2  C   UNL     1     -19.124 -40.453  21.584  1.00  0.00     0.021 A 
ATOM      3  C   UNL     1     -20.120 -40.590  22.490  1.00  0.00     0.000 A 
ATOM      4  C   UNL     1     -19.811 -41.288  23.790  1.00  0.00     0.068 A 
ATOM      5  C   UNL     1     -18.418 -41.790  23.981  1.00  0.00     0.023 A 
ATOM      6  C   UNL     1     -18.055 -42.455  25.161  1.00  0.00     0.014 A 
ATOM      7  C   UNL     1     -16.749 -42.917  25.327  1.00  0.00     0.021 A 
ATOM      8  C   UNL     1     -15.812 -42.709  24.317  1.00  0.00     0.043 A 
ATOM      9  Cl  UNL     1     -14.199 -43.269  24.525  1.00  0.00    -0.084 Cl
ATOM     10  C   UNL     1     -16.167 -42.047  23.141  1.00  0.00     0.047 A 
ATOM     11  C   UNL     1     -17.478 -41.592  22.959  1.00  0.00     0.049 A 
ATOM     12  C   UNL     1     -21.524 -40.056  22.247  1.00  0.00     0.028 C 
ATOM     13  C   UNL     1     -22.467 -41.182  21.760  1.00  0.00     0.039 C 
ATOM     14  C   UNL     1     -22.315 -41.511  20.287  1.00  0.00    -0.076 C 
ATOM     15  C   UNL     1     -23.033 -42.738  19.808  1.00  0.00     0.039 C 
ATOM     16  C   UNL     1     -21.564 -40.750  19.468  1.00  0.00    -0.024 C 
ATOM     17  C   UNL     1     -20.851 -39.496  19.931  1.00  0.00     0.018 C 
ATOM     18  C   UNL     1     -19.370 -39.790  20.233  1.00  0.00     0.062 C 
ATOM     19  C   UNL     1     -21.507 -38.938  21.196  1.00  0.00     0.017 C 
ATOM     20  H   UNL     1     -17.187 -40.876  21.026  1.00  0.00     0.166 HD
ENDROOT
BRANCH   4  21
ATOM     21  N   UNL     1     -20.676 -41.484  24.736  1.00  0.00    -0.300 NA
ATOM     22  H   UNL     1     -21.202 -40.641  24.965  1.00  0.00     0.188 HD
ENDBRANCH   4  21
TORSDOF 1
ENDMDL
MODEL 6
REMARK VINA RESULT:    -8.196      7.598      9.675
REMARK INTER + INTRA:          -8.435
REMARK INTER:                  -8.435
REMARK INTRA:                   0.000
REMARK UNBOUND:                 0.000
REMARK SMILES CC1=C[C@@H]2Cc3[nH]c4cc(Cl)ccc4c(=N)c3[C@H](C1)C2
REMARK SMILES IDX 7 1 6 2 17 3 15 4 14 5 13 6 12 7 10 8 11 9 9 10 8 11 18 12
REMARK SMILES IDX 19 13 2 14 1 15 3 16 4 17 5 18 20 19 16 21
REMARK H PARENT 7 20 16 22
ROOT
ATOM      1  N   UNL     1     -21.656 -39.835  23.434  1.00  0.00    -0.358 N 
ATOM      2  C   UNL     1     -21.020 -40.617  24.374  1.00  0.00     0.021 A 
ATOM      3  C   UNL     1     -19.842 -41.243  24.145  1.00  0.00     0.000 A 
ATOM      4  C   UNL     1     -19.209 -41.096  22.785  1.00  0.00     0.068 A 
ATOM      5  C   UNL     1     -19.938 -40.270  21.778  1.00  0.00     0.023 A 
ATOM      6  C   UNL     1     -19.416 -40.092  20.489  1.00  0.00     0.014 A 
ATOM      7  C   UNL     1     -20.107 -39.316  19.557  1.00  0.00     0.021 A 
ATOM      8  C   UNL     1     -21.313 -38.720  19.919  1.00  0.00     0.043 A 
ATOM      9  Cl  UNL     1     -22.162 -37.755  18.775  1.00  0.00    -0.084 Cl
ATOM     10  C   UNL     1     -21.838 -38.893  21.201  1.00  0.00     0.047 A 
ATOM     11  C   UNL     1     -21.159 -39.680  22.137  1.00  0.00     0.049 A 
ATOM     12  C   UNL     1     -19.137 -42.071  25.210  1.00  0.00     0.028 C 
ATOM     13  C   UNL     1     -19.422 -43.579  25.015  1.00  0.00     0.039 C 
ATOM     14  C   UNL     1     -20.776 -44.017  25.542  1.00  0.00    -0.076 C 
ATOM     15  C   UNL     1     -21.203 -45.410  25.183  1.00  0.00     0.039 C 
ATOM     16  C   UNL     1     -21.548 -43.192  26.274  1.00  0.00    -0.024 C 
ATOM     17  C   UNL     1     -21.122 -41.791  26.663  1.00  0.00     0.018 C 
ATOM     18  C   UNL     1     -21.738 -40.749  25.712  1.00  0.00     0.062 C 
ATOM     19  C   UNL     1     -19.598 -41.658  26.614  1.00  0.00     0.017 C 
ATOM     20  H   UNL     1     -22.594 -39.510  23.637  1.00  0.00     0.166 HD
ENDROOT
BRANCH   4  21
ATOM     21  N   UNL     1     -18.085 -41.645  22.440  1.00  0.00    -0.300 NA
ATOM     22  H   UNL     1     -17.624 -42.113  23.220  1.00  0.00     0.188 HD
ENDBRANCH   4  21
TORSDOF 1
ENDMDL
MODEL 7
REMARK VINA RESULT:    -8.091      4.634      5.734
REMARK INTER + INTRA:          -8.328
REMARK INTER:                  -8.328
REMARK INTRA:                   0.000
REMARK UNBOUND:                 0.000
REMARK SMILES CC1=C[C@@H]2Cc3[nH]c4cc(Cl)ccc4c(=N)c3[C@H](C1)C2
REMARK SMILES IDX 7 1 6 2 17 3 15 4 14 5 13 6 12 7 10 8 11 9 9 10 8 11 18 12
REMARK SMILES IDX 19 13 2 14 1 15 3 16 4 17 5 18 20 19 16 21
REMARK H PARENT 7 20 16 22
ROOT
ATOM      1  N   UNL     1     -11.923 -42.399  31.420  1.00  0.00    -0.358 N 
ATOM      2  C   UNL     1     -11.255 -43.303  30.622  1.00  0.00     0.021 A 
ATOM      3  C   UNL     1     -11.535 -44.627  30.605  1.00  0.00     0.000 A 
ATOM      4  C   UNL     1     -12.614 -45.140  31.524  1.00  0.00     0.068 A 
ATOM      5  C   UNL     1     -13.296 -44.142  32.401  1.00  0.00     0.023 A 
ATOM      6  C   UNL     1     -14.306 -44.544  33.287  1.00  0.00     0.014 A 
ATOM      7  C   UNL     1     -14.936 -43.600  34.099  1.00  0.00     0.021 A 
ATOM      8  C   UNL     1     -14.558 -42.262  34.019  1.00  0.00     0.043 A 
ATOM      9  Cl  UNL     1     -15.340 -41.095  35.013  1.00  0.00    -0.084 Cl
ATOM     10  C   UNL     1     -13.554 -41.856  33.138  1.00  0.00     0.047 A 
ATOM     11  C   UNL     1     -12.907 -42.796  32.330  1.00  0.00     0.049 A 
ATOM     12  C   UNL     1     -10.812 -45.602  29.687  1.00  0.00     0.028 C 
ATOM     13  C   UNL     1      -9.686 -46.343  30.446  1.00  0.00     0.039 C 
ATOM     14  C   UNL     1      -8.419 -45.524  30.609  1.00  0.00    -0.076 C 
ATOM     15  C   UNL     1      -7.377 -46.096  31.525  1.00  0.00     0.039 C 
ATOM     16  C   UNL     1      -8.254 -44.347  29.976  1.00  0.00    -0.024 C 
ATOM     17  C   UNL     1      -9.286 -43.767  29.030  1.00  0.00     0.018 C 
ATOM     18  C   UNL     1     -10.153 -42.716  29.747  1.00  0.00     0.062 C 
ATOM     19  C   UNL     1     -10.199 -44.868  28.487  1.00  0.00     0.017 C 
ATOM     20  H   UNL     1     -11.568 -41.452  31.471  1.00  0.00     0.166 HD
ENDROOT
BRANCH   4  21
ATOM     21  N   UNL     1     -12.974 -46.383  31.604  1.00  0.00    -0.300 NA
ATOM     22  H   UNL     1     -12.334 -47.007  31.112  1.00  0.00     0.188 HD
ENDBRANCH   4  21
TORSDOF 1
ENDMDL
MODEL 8
REMARK VINA RESULT:    -8.023      1.789      2.822
REMARK INTER + INTRA:          -8.257
REMARK INTER:                  -8.257
REMARK INTRA:                   0.000
REMARK UNBOUND:                 0.000
REMARK SMILES CC1=C[C@@H]2Cc3[nH]c4cc(Cl)ccc4c(=N)c3[C@H](C1)C2
REMARK SMILES IDX 7 1 6 2 17 3 15 4 14 5 13 6 12 7 10 8 11 9 9 10 8 11 18 12
REMARK SMILES IDX 19 13 2 14 1 15 3 16 4 17 5 18 20 19 16 21
REMARK H PARENT 7 20 16 22
ROOT
ATOM      1  N   UNL     1     -13.631 -45.216  28.444  1.00  0.00    -0.358 N 
ATOM      2  C   UNL     1     -12.804 -44.974  29.520  1.00  0.00     0.021 A 
ATOM      3  C   UNL     1     -11.921 -43.949  29.561  1.00  0.00     0.000 A 
ATOM      4  C   UNL     1     -11.822 -43.044  28.360  1.00  0.00     0.068 A 
ATOM      5  C   UNL     1     -12.706 -43.352  27.198  1.00  0.00     0.023 A 
ATOM      6  C   UNL     1     -12.667 -42.559  26.042  1.00  0.00     0.014 A 
ATOM      7  C   UNL     1     -13.500 -42.857  24.963  1.00  0.00     0.021 A 
ATOM      8  C   UNL     1     -14.371 -43.942  25.047  1.00  0.00     0.043 A 
ATOM      9  Cl  UNL     1     -15.406 -44.305  23.721  1.00  0.00    -0.084 Cl
ATOM     10  C   UNL     1     -14.415 -44.734  26.195  1.00  0.00     0.047 A 
ATOM     11  C   UNL     1     -13.574 -44.451  27.276  1.00  0.00     0.049 A 
ATOM     12  C   UNL     1     -11.044 -43.676  30.775  1.00  0.00     0.028 C 
ATOM     13  C   UNL     1      -9.624 -44.254  30.572  1.00  0.00     0.039 C 
ATOM     14  C   UNL     1      -9.533 -45.749  30.816  1.00  0.00    -0.076 C 
ATOM     15  C   UNL     1      -8.243 -46.405  30.419  1.00  0.00     0.039 C 
ATOM     16  C   UNL     1     -10.560 -46.441  31.345  1.00  0.00    -0.024 C 
ATOM     17  C   UNL     1     -11.860 -45.790  31.772  1.00  0.00     0.018 C 
ATOM     18  C   UNL     1     -12.935 -45.952  30.681  1.00  0.00     0.062 C 
ATOM     19  C   UNL     1     -11.654 -44.297  32.038  1.00  0.00     0.017 C 
ATOM     20  H   UNL     1     -14.167 -46.076  28.436  1.00  0.00     0.166 HD
ENDROOT
BRANCH   4  21
ATOM     21  N   UNL     1     -11.016 -42.031  28.275  1.00  0.00    -0.300 NA
ATOM     22  H   UNL     1     -10.887 -41.559  29.170  1.00  0.00     0.188 HD
ENDBRANCH   4  21
TORSDOF 1
ENDMDL
MODEL 9
REMARK VINA RESULT:    -7.855      4.460      6.324
REMARK INTER + INTRA:          -8.084
REMARK INTER:                  -8.084
REMARK INTRA:                   0.000
REMARK UNBOUND:                 0.000
REMARK SMILES CC1=C[C@@H]2Cc3[nH]c4cc(Cl)ccc4c(=N)c3[C@H](C1)C2
REMARK SMILES IDX 7 1 6 2 17 3 15 4 14 5 13 6 12 7 10 8 11 9 9 10 8 11 18 12
REMARK SMILES IDX 19 13 2 14 1 15 3 16 4 17 5 18 20 19 16 21
REMARK H PARENT 7 20 16 22
ROOT
ATOM      1  N   UNL     1     -13.019 -43.999  31.873  1.00  0.00    -0.358 N 
ATOM      2  C   UNL     1     -11.907 -44.557  31.279  1.00  0.00     0.021 A 
ATOM      3  C   UNL     1     -10.641 -44.279  31.667  1.00  0.00     0.000 A 
ATOM      4  C   UNL     1     -10.438 -43.290  32.786  1.00  0.00     0.068 A 
ATOM      5  C   UNL     1     -11.661 -42.677  33.386  1.00  0.00     0.023 A 
ATOM      6  C   UNL     1     -11.553 -41.744  34.427  1.00  0.00     0.014 A 
ATOM      7  C   UNL     1     -12.704 -41.180  34.979  1.00  0.00     0.021 A 
ATOM      8  C   UNL     1     -13.954 -41.554  34.492  1.00  0.00     0.043 A 
ATOM      9  Cl  UNL     1     -15.375 -40.867  35.178  1.00  0.00    -0.084 Cl
ATOM     10  C   UNL     1     -14.068 -42.483  33.456  1.00  0.00     0.047 A 
ATOM     11  C   UNL     1     -12.919 -43.043  32.887  1.00  0.00     0.049 A 
ATOM     12  C   UNL     1      -9.427 -44.936  31.025  1.00  0.00     0.028 C 
ATOM     13  C   UNL     1      -8.792 -44.006  29.964  1.00  0.00     0.039 C 
ATOM     14  C   UNL     1      -9.523 -44.007  28.635  1.00  0.00    -0.076 C 
ATOM     15  C   UNL     1      -9.094 -42.964  27.645  1.00  0.00     0.039 C 
ATOM     16  C   UNL     1     -10.507 -44.887  28.372  1.00  0.00    -0.024 C 
ATOM     17  C   UNL     1     -10.937 -45.961  29.352  1.00  0.00     0.018 C 
ATOM     18  C   UNL     1     -12.189 -45.519  30.131  1.00  0.00     0.062 C 
ATOM     19  C   UNL     1      -9.817 -46.258  30.351  1.00  0.00     0.017 C 
ATOM     20  H   UNL     1     -13.922 -44.157  31.441  1.00  0.00     0.166 HD
ENDROOT
BRANCH   4  21
ATOM     21  N   UNL     1      -9.278 -42.937  33.248  1.00  0.00    -0.300 NA
ATOM     22  H   UNL     1      -8.664 -43.735  33.410  1.00  0.00     0.188 HD
ENDBRANCH   4  21
TORSDOF 1
ENDMDL
