MODEL 1
REMARK VINA RESULT:    -9.306      0.000      0.000
REMARK INTER + INTRA:         -14.313
REMARK INTER:                 -12.842
REMARK INTRA:                  -1.471
REMARK UNBOUND:                -1.471
REMARK SMILES COc1ccc([C@H]2CC(c3cc(F)cc(F)c3)=NN2c2ccc(S(N)(=O)=O)cc2)c(OC)c1
REMARK SMILES IDX 20 1 21 2 22 3 23 4 28 5 29 6 19 7 7 8 8 9 9 10 18 11 6 12
REMARK SMILES IDX 3 13 4 14 33 15 5 16 30 17 2 18 1 19 31 20 32 21 10 22 11 23
REMARK SMILES IDX 17 24 12 25 15 26 14 27 13 28 16 29 24 30 26 31 27 32 25 33
REMARK H PARENT 25 34 25 35
ROOT
ATOM      1  C   UNL     1     -20.095 -40.989  23.731  1.00  0.00     0.060 A 
ATOM      2  C   UNL     1     -21.416 -40.533  23.867  1.00  0.00     0.029 A 
ATOM      3  C   UNL     1     -22.065 -39.834  22.841  1.00  0.00     0.024 A 
ATOM      4  C   UNL     1     -21.395 -39.583  21.647  1.00  0.00     0.082 A 
ATOM      5  C   UNL     1     -20.080 -40.003  21.477  1.00  0.00     0.024 A 
ATOM      6  C   UNL     1     -19.448 -40.703  22.512  1.00  0.00     0.029 A 
ENDROOT
BRANCH   1   7
ATOM      7  N   UNL     1     -19.432 -41.696  24.734  1.00  0.00    -0.257 N 
ATOM      8  C   UNL     1     -19.947 -41.994  26.077  1.00  0.00     0.148 C 
ATOM      9  C   UNL     1     -18.684 -42.347  26.867  1.00  0.00     0.091 C 
ATOM     10  C   UNL     1     -17.669 -42.375  25.759  1.00  0.00     0.071 C 
ATOM     11  N   UNL     1     -18.098 -41.970  24.602  1.00  0.00    -0.176 NA
BRANCH   8  12
ATOM     12  C   UNL     1     -20.988 -43.106  26.094  1.00  0.00     0.019 A 
ATOM     13  C   UNL     1     -22.870 -45.227  26.024  1.00  0.00     0.122 A 
ATOM     14  C   UNL     1     -21.677 -45.312  25.309  1.00  0.00     0.047 A 
ATOM     15  C   UNL     1     -23.131 -44.080  26.769  1.00  0.00     0.093 A 
ATOM     16  C   UNL     1     -20.750 -44.265  25.335  1.00  0.00     0.013 A 
ATOM     17  C   UNL     1     -22.190 -43.040  26.816  1.00  0.00     0.127 A 
BRANCH  13  18
ATOM     18  O   UNL     1     -23.691 -46.313  25.899  1.00  0.00    -0.497 OA
ATOM     19  C   UNL     1     -23.695 -46.976  24.641  1.00  0.00     0.278 C 
ENDBRANCH  13  18
BRANCH  17  20
ATOM     20  O   UNL     1     -22.514 -41.901  27.508  1.00  0.00    -0.496 OA
ATOM     21  C   UNL     1     -23.598 -41.216  26.877  1.00  0.00     0.278 C 
ENDBRANCH  17  20
ENDBRANCH   8  12
BRANCH  10  22
ATOM     22  C   UNL     1     -16.272 -42.809  25.988  1.00  0.00     0.004 A 
ATOM     23  C   UNL     1     -15.947 -43.430  27.201  1.00  0.00     0.049 A 
ATOM     24  C   UNL     1     -15.278 -42.611  25.027  1.00  0.00     0.049 A 
ATOM     25  C   UNL     1     -14.639 -43.841  27.436  1.00  0.00     0.126 A 
ATOM     26  C   UNL     1     -13.977 -43.034  25.290  1.00  0.00     0.126 A 
ATOM     27  C   UNL     1     -13.644 -43.649  26.489  1.00  0.00     0.078 A 
ATOM     28  F   UNL     1     -14.334 -44.432  28.598  1.00  0.00    -0.207 F 
ATOM     29  F   UNL     1     -13.028 -42.842  24.364  1.00  0.00    -0.207 F 
ENDBRANCH  10  22
ENDBRANCH   1   7
BRANCH   4  30
ATOM     30  S   UNL     1     -22.219 -38.702  20.351  1.00  0.00     0.238 S 
ATOM     31  O   UNL     1     -21.232 -37.960  19.601  1.00  0.00    -0.207 OA
ATOM     32  O   UNL     1     -23.172 -39.586  19.721  1.00  0.00    -0.207 OA
BRANCH  30  33
ATOM     33  N   UNL     1     -23.138 -37.597  21.231  1.00  0.00    -0.225 NA
ATOM     34  H   UNL     1     -24.107 -37.652  20.911  1.00  0.00     0.137 HD
ATOM     35  H   UNL     1     -23.063 -37.729  22.239  1.00  0.00     0.137 HD
ENDBRANCH  30  33
ENDBRANCH   4  30
TORSDOF 7
ENDMDL
MODEL 2
REMARK VINA RESULT:    -9.260      0.428      1.498
REMARK INTER + INTRA:         -14.249
REMARK INTER:                 -12.821
REMARK INTRA:                  -1.428
REMARK UNBOUND:                -1.471
REMARK SMILES COc1ccc([C@H]2CC(c3cc(F)cc(F)c3)=NN2c2ccc(S(N)(=O)=O)cc2)c(OC)c1
REMARK SMILES IDX 20 1 21 2 22 3 23 4 28 5 29 6 19 7 7 8 8 9 9 10 18 11 6 12
REMARK SMILES IDX 3 13 4 14 33 15 5 16 30 17 2 18 1 19 31 20 32 21 10 22 11 23
REMARK SMILES IDX 17 24 12 25 15 26 14 27 13 28 16 29 24 30 26 31 27 32 25 33
REMARK H PARENT 25 34 25 35
ROOT
ATOM      1  C   UNL     1     -20.051 -41.026  23.771  1.00  0.00     0.060 A 
ATOM      2  C   UNL     1     -21.356 -40.527  23.909  1.00  0.00     0.029 A 
ATOM      3  C   UNL     1     -21.994 -39.829  22.875  1.00  0.00     0.024 A 
ATOM      4  C   UNL     1     -21.328 -39.624  21.670  1.00  0.00     0.082 A 
ATOM      5  C   UNL     1     -20.028 -40.088  21.497  1.00  0.00     0.024 A 
ATOM      6  C   UNL     1     -19.408 -40.785  22.540  1.00  0.00     0.029 A 
ENDROOT
BRANCH   1   7
ATOM      7  N   UNL     1     -19.400 -41.732  24.782  1.00  0.00    -0.257 N 
ATOM      8  C   UNL     1     -19.928 -42.022  26.122  1.00  0.00     0.148 C 
ATOM      9  C   UNL     1     -18.673 -42.378  26.924  1.00  0.00     0.091 C 
ATOM     10  C   UNL     1     -17.650 -42.417  25.824  1.00  0.00     0.071 C 
ATOM     11  N   UNL     1     -18.067 -42.014  24.662  1.00  0.00    -0.176 NA
BRANCH   8  12
ATOM     12  C   UNL     1     -20.975 -43.127  26.136  1.00  0.00     0.019 A 
ATOM     13  C   UNL     1     -22.866 -45.240  26.063  1.00  0.00     0.122 A 
ATOM     14  C   UNL     1     -21.647 -45.355  25.398  1.00  0.00     0.047 A 
ATOM     15  C   UNL     1     -23.148 -44.069  26.761  1.00  0.00     0.093 A 
ATOM     16  C   UNL     1     -20.717 -44.312  25.425  1.00  0.00     0.013 A 
ATOM     17  C   UNL     1     -22.204 -43.031  26.809  1.00  0.00     0.127 A 
BRANCH  13  18
ATOM     18  O   UNL     1     -23.689 -46.326  25.943  1.00  0.00    -0.497 OA
ATOM     19  C   UNL     1     -24.757 -46.430  26.877  1.00  0.00     0.278 C 
ENDBRANCH  13  18
BRANCH  17  20
ATOM     20  O   UNL     1     -22.547 -41.869  27.451  1.00  0.00    -0.496 OA
ATOM     21  C   UNL     1     -23.826 -41.407  27.013  1.00  0.00     0.278 C 
ENDBRANCH  17  20
ENDBRANCH   8  12
BRANCH  10  22
ATOM     22  C   UNL     1     -16.257 -42.858  26.067  1.00  0.00     0.004 A 
ATOM     23  C   UNL     1     -15.290 -42.615  25.083  1.00  0.00     0.049 A 
ATOM     24  C   UNL     1     -15.891 -43.507  27.248  1.00  0.00     0.049 A 
ATOM     25  C   UNL     1     -13.977 -43.024  25.292  1.00  0.00     0.126 A 
ATOM     26  C   UNL     1     -14.568 -43.904  27.430  1.00  0.00     0.126 A 
ATOM     27  C   UNL     1     -13.603 -43.670  26.462  1.00  0.00     0.078 A 
ATOM     28  F   UNL     1     -13.056 -42.792  24.347  1.00  0.00    -0.207 F 
ATOM     29  F   UNL     1     -14.224 -44.526  28.565  1.00  0.00    -0.207 F 
ENDBRANCH  10  22
ENDBRANCH   1   7
BRANCH   4  30
ATOM     30  S   UNL     1     -22.137 -38.744  20.363  1.00  0.00     0.238 S 
ATOM     31  O   UNL     1     -21.143 -37.998  19.628  1.00  0.00    -0.207 OA
ATOM     32  O   UNL     1     -23.078 -39.631  19.719  1.00  0.00    -0.207 OA
BRANCH  30  33
ATOM     33  N   UNL     1     -23.073 -37.644  21.231  1.00  0.00    -0.225 NA
ATOM     34  H   UNL     1     -23.853 -38.147  21.660  1.00  0.00     0.137 HD
ATOM     35  H   UNL     1     -22.536 -37.120  21.920  1.00  0.00     0.137 HD
ENDBRANCH  30  33
ENDBRANCH   4  30
TORSDOF 7
ENDMDL
MODEL 3
REMARK VINA RESULT:    -8.740      3.075      5.940
REMARK INTER + INTRA:         -13.532
REMARK INTER:                 -12.212
REMARK INTRA:                  -1.320
REMARK UNBOUND:                -1.471
REMARK SMILES COc1ccc([C@H]2CC(c3cc(F)cc(F)c3)=NN2c2ccc(S(N)(=O)=O)cc2)c(OC)c1
REMARK SMILES IDX 20 1 21 2 22 3 23 4 28 5 29 6 19 7 7 8 8 9 9 10 18 11 6 12
REMARK SMILES IDX 3 13 4 14 33 15 5 16 30 17 2 18 1 19 31 20 32 21 10 22 11 23
REMARK SMILES IDX 17 24 12 25 15 26 14 27 13 28 16 29 24 30 26 31 27 32 25 33
REMARK H PARENT 25 34 25 35
ROOT
ATOM      1  C   UNL     1     -22.609 -40.387  25.894  1.00  0.00     0.060 A 
ATOM      2  C   UNL     1     -23.701 -39.956  25.123  1.00  0.00     0.029 A 
ATOM      3  C   UNL     1     -24.824 -39.352  25.703  1.00  0.00     0.024 A 
ATOM      4  C   UNL     1     -24.868 -39.163  27.082  1.00  0.00     0.082 A 
ATOM      5  C   UNL     1     -23.815 -39.590  27.885  1.00  0.00     0.024 A 
ATOM      6  C   UNL     1     -22.701 -40.189  27.286  1.00  0.00     0.029 A 
ENDROOT
BRANCH   1   7
ATOM      7  N   UNL     1     -21.477 -40.980  25.337  1.00  0.00    -0.257 N 
ATOM      8  C   UNL     1     -21.410 -41.704  24.060  1.00  0.00     0.148 C 
ATOM      9  C   UNL     1     -20.114 -42.510  24.180  1.00  0.00     0.091 C 
ATOM     10  C   UNL     1     -19.558 -41.941  25.456  1.00  0.00     0.071 C 
ATOM     11  N   UNL     1     -20.349 -41.134  26.095  1.00  0.00    -0.176 NA
BRANCH   8  12
ATOM     12  C   UNL     1     -21.430 -40.790  22.843  1.00  0.00     0.019 A 
ATOM     13  C   UNL     1     -21.392 -39.005  20.638  1.00  0.00     0.122 A 
ATOM     14  C   UNL     1     -20.454 -38.889  21.662  1.00  0.00     0.047 A 
ATOM     15  C   UNL     1     -22.356 -40.007  20.715  1.00  0.00     0.093 A 
ATOM     16  C   UNL     1     -20.475 -39.762  22.754  1.00  0.00     0.013 A 
ATOM     17  C   UNL     1     -22.363 -40.899  21.798  1.00  0.00     0.127 A 
BRANCH  13  18
ATOM     18  O   UNL     1     -21.267 -38.080  19.639  1.00  0.00    -0.497 OA
ATOM     19  C   UNL     1     -22.175 -38.183  18.549  1.00  0.00     0.278 C 
ENDBRANCH  13  18
BRANCH  17  20
ATOM     20  O   UNL     1     -23.367 -41.828  21.869  1.00  0.00    -0.496 OA
ATOM     21  C   UNL     1     -23.106 -42.926  20.991  1.00  0.00     0.278 C 
ENDBRANCH  17  20
ENDBRANCH   8  12
BRANCH  10  22
ATOM     22  C   UNL     1     -18.213 -42.308  25.954  1.00  0.00     0.004 A 
ATOM     23  C   UNL     1     -17.214 -42.633  25.028  1.00  0.00     0.049 A 
ATOM     24  C   UNL     1     -17.922 -42.335  27.320  1.00  0.00     0.049 A 
ATOM     25  C   UNL     1     -15.945 -42.982  25.477  1.00  0.00     0.126 A 
ATOM     26  C   UNL     1     -16.642 -42.688  27.741  1.00  0.00     0.126 A 
ATOM     27  C   UNL     1     -15.645 -43.014  26.832  1.00  0.00     0.078 A 
ATOM     28  F   UNL     1     -14.994 -43.295  24.587  1.00  0.00    -0.207 F 
ATOM     29  F   UNL     1     -16.369 -42.713  29.052  1.00  0.00    -0.207 F 
ENDBRANCH  10  22
ENDBRANCH   1   7
BRANCH   4  30
ATOM     30  S   UNL     1     -26.287 -38.398  27.814  1.00  0.00     0.238 S 
ATOM     31  O   UNL     1     -27.335 -38.330  26.823  1.00  0.00    -0.207 OA
ATOM     32  O   UNL     1     -26.494 -38.962  29.128  1.00  0.00    -0.207 OA
BRANCH  30  33
ATOM     33  N   UNL     1     -25.722 -36.832  28.078  1.00  0.00    -0.225 NA
ATOM     34  H   UNL     1     -25.500 -36.409  27.174  1.00  0.00     0.137 HD
ATOM     35  H   UNL     1     -26.372 -36.259  28.615  1.00  0.00     0.137 HD
ENDBRANCH  30  33
ENDBRANCH   4  30
TORSDOF 7
ENDMDL
MODEL 4
REMARK VINA RESULT:    -8.655      3.060      5.732
REMARK INTER + INTRA:         -13.414
REMARK INTER:                 -12.031
REMARK INTRA:                  -1.383
REMARK UNBOUND:                -1.471
REMARK SMILES COc1ccc([C@H]2CC(c3cc(F)cc(F)c3)=NN2c2ccc(S(N)(=O)=O)cc2)c(OC)c1
REMARK SMILES IDX 20 1 21 2 22 3 23 4 28 5 29 6 19 7 7 8 8 9 9 10 18 11 6 12
REMARK SMILES IDX 3 13 4 14 33 15 5 16 30 17 2 18 1 19 31 20 32 21 10 22 11 23
REMARK SMILES IDX 17 24 12 25 15 26 14 27 13 28 16 29 24 30 26 31 27 32 25 33
REMARK H PARENT 25 34 25 35
ROOT
ATOM      1  C   UNL     1     -22.339 -40.539  25.505  1.00  0.00     0.060 A 
ATOM      2  C   UNL     1     -23.448 -40.136  24.745  1.00  0.00     0.029 A 
ATOM      3  C   UNL     1     -24.582 -39.564  25.336  1.00  0.00     0.024 A 
ATOM      4  C   UNL     1     -24.619 -39.380  26.717  1.00  0.00     0.082 A 
ATOM      5  C   UNL     1     -23.548 -39.781  27.508  1.00  0.00     0.024 A 
ATOM      6  C   UNL     1     -22.424 -40.348  26.899  1.00  0.00     0.029 A 
ENDROOT
BRANCH   1   7
ATOM      7  N   UNL     1     -21.196 -41.101  24.936  1.00  0.00    -0.257 N 
ATOM      8  C   UNL     1     -21.112 -41.780  23.636  1.00  0.00     0.148 C 
ATOM      9  C   UNL     1     -19.808 -42.575  23.738  1.00  0.00     0.091 C 
ATOM     10  C   UNL     1     -19.268 -42.044  25.037  1.00  0.00     0.071 C 
ATOM     11  N   UNL     1     -20.072 -41.268  25.698  1.00  0.00    -0.176 NA
BRANCH   8  12
ATOM     12  C   UNL     1     -21.134 -40.824  22.451  1.00  0.00     0.019 A 
ATOM     13  C   UNL     1     -21.105 -38.961  20.312  1.00  0.00     0.122 A 
ATOM     14  C   UNL     1     -20.213 -38.835  21.375  1.00  0.00     0.047 A 
ATOM     15  C   UNL     1     -22.018 -40.013  20.316  1.00  0.00     0.093 A 
ATOM     16  C   UNL     1     -20.231 -39.747  22.435  1.00  0.00     0.013 A 
ATOM     17  C   UNL     1     -22.019 -40.943  21.367  1.00  0.00     0.127 A 
BRANCH  13  18
ATOM     18  O   UNL     1     -20.991 -37.996  19.351  1.00  0.00    -0.497 OA
ATOM     19  C   UNL     1     -22.128 -37.771  18.525  1.00  0.00     0.278 C 
ENDBRANCH  13  18
BRANCH  17  20
ATOM     20  O   UNL     1     -22.976 -41.924  21.366  1.00  0.00    -0.496 OA
ATOM     21  C   UNL     1     -24.259 -41.380  21.048  1.00  0.00     0.278 C 
ENDBRANCH  17  20
ENDBRANCH   8  12
BRANCH  10  22
ATOM     22  C   UNL     1     -17.922 -42.413  25.533  1.00  0.00     0.004 A 
ATOM     23  C   UNL     1     -17.688 -42.420  26.913  1.00  0.00     0.049 A 
ATOM     24  C   UNL     1     -16.887 -42.749  24.656  1.00  0.00     0.049 A 
ATOM     25  C   UNL     1     -16.430 -42.761  27.398  1.00  0.00     0.126 A 
ATOM     26  C   UNL     1     -15.637 -43.087  25.171  1.00  0.00     0.126 A 
ATOM     27  C   UNL     1     -15.395 -43.096  26.537  1.00  0.00     0.078 A 
ATOM     28  F   UNL     1     -16.211 -42.764  28.719  1.00  0.00    -0.207 F 
ATOM     29  F   UNL     1     -14.649 -43.409  24.326  1.00  0.00    -0.207 F 
ENDBRANCH  10  22
ENDBRANCH   1   7
BRANCH   4  30
ATOM     30  S   UNL     1     -26.052 -38.655  27.463  1.00  0.00     0.238 S 
ATOM     31  O   UNL     1     -26.550 -39.558  28.473  1.00  0.00    -0.207 OA
ATOM     32  O   UNL     1     -25.781 -37.261  27.730  1.00  0.00    -0.207 OA
BRANCH  30  33
ATOM     33  N   UNL     1     -27.140 -38.667  26.176  1.00  0.00    -0.225 NA
ATOM     34  H   UNL     1     -26.835 -39.367  25.497  1.00  0.00     0.137 HD
ATOM     35  H   UNL     1     -28.104 -38.820  26.471  1.00  0.00     0.137 HD
ENDBRANCH  30  33
ENDBRANCH   4  30
TORSDOF 7
ENDMDL
MODEL 5
REMARK VINA RESULT:    -8.642      4.575      7.729
REMARK INTER + INTRA:         -13.397
REMARK INTER:                 -12.011
REMARK INTRA:                  -1.386
REMARK UNBOUND:                -1.471
REMARK SMILES COc1ccc([C@H]2CC(c3cc(F)cc(F)c3)=NN2c2ccc(S(N)(=O)=O)cc2)c(OC)c1
REMARK SMILES IDX 20 1 21 2 22 3 23 4 28 5 29 6 19 7 7 8 8 9 9 10 18 11 6 12
REMARK SMILES IDX 3 13 4 14 33 15 5 16 30 17 2 18 1 19 31 20 32 21 10 22 11 23
REMARK SMILES IDX 17 24 12 25 15 26 14 27 13 28 16 29 24 30 26 31 27 32 25 33
REMARK H PARENT 25 34 25 35
ROOT
ATOM      1  C   UNL     1     -18.932 -42.153  24.229  1.00  0.00     0.060 A 
ATOM      2  C   UNL     1     -17.769 -42.526  23.536  1.00  0.00     0.029 A 
ATOM      3  C   UNL     1     -16.578 -42.838  24.205  1.00  0.00     0.024 A 
ATOM      4  C   UNL     1     -16.536 -42.787  25.596  1.00  0.00     0.082 A 
ATOM      5  C   UNL     1     -17.661 -42.406  26.320  1.00  0.00     0.024 A 
ATOM      6  C   UNL     1     -18.842 -42.101  25.634  1.00  0.00     0.029 A 
ENDROOT
BRANCH   1   7
ATOM      7  N   UNL     1     -20.131 -41.848  23.585  1.00  0.00    -0.257 N 
ATOM      8  C   UNL     1     -21.429 -42.499  23.805  1.00  0.00     0.148 C 
ATOM      9  C   UNL     1     -22.230 -42.119  22.557  1.00  0.00     0.091 C 
ATOM     10  C   UNL     1     -21.288 -41.135  21.920  1.00  0.00     0.071 C 
ATOM     11  N   UNL     1     -20.122 -41.038  22.483  1.00  0.00    -0.176 NA
BRANCH   8  12
ATOM     12  C   UNL     1     -22.110 -42.072  25.099  1.00  0.00     0.019 A 
ATOM     13  C   UNL     1     -23.343 -41.156  27.484  1.00  0.00     0.122 A 
ATOM     14  C   UNL     1     -23.007 -40.262  26.470  1.00  0.00     0.047 A 
ATOM     15  C   UNL     1     -23.059 -42.508  27.314  1.00  0.00     0.093 A 
ATOM     16  C   UNL     1     -22.391 -40.709  25.297  1.00  0.00     0.013 A 
ATOM     17  C   UNL     1     -22.464 -42.961  26.127  1.00  0.00     0.127 A 
BRANCH  13  18
ATOM     18  O   UNL     1     -23.926 -40.585  28.581  1.00  0.00    -0.497 OA
ATOM     19  C   UNL     1     -24.359 -39.236  28.451  1.00  0.00     0.278 C 
ENDBRANCH  13  18
BRANCH  17  20
ATOM     20  O   UNL     1     -22.140 -44.290  26.027  1.00  0.00    -0.496 OA
ATOM     21  C   UNL     1     -21.395 -44.717  27.169  1.00  0.00     0.278 C 
ENDBRANCH  17  20
ENDBRANCH   8  12
BRANCH  10  22
ATOM     22  C   UNL     1     -21.665 -40.358  20.718  1.00  0.00     0.004 A 
ATOM     23  C   UNL     1     -21.229 -39.031  20.605  1.00  0.00     0.049 A 
ATOM     24  C   UNL     1     -22.441 -40.917  19.700  1.00  0.00     0.049 A 
ATOM     25  C   UNL     1     -21.575 -38.284  19.484  1.00  0.00     0.126 A 
ATOM     26  C   UNL     1     -22.772 -40.145  18.588  1.00  0.00     0.126 A 
ATOM     27  C   UNL     1     -22.347 -38.830  18.468  1.00  0.00     0.078 A 
ATOM     28  F   UNL     1     -21.158 -37.016  19.383  1.00  0.00    -0.207 F 
ATOM     29  F   UNL     1     -23.517 -40.686  17.616  1.00  0.00    -0.207 F 
ENDBRANCH  10  22
ENDBRANCH   1   7
BRANCH   4  30
ATOM     30  S   UNL     1     -15.031 -43.184  26.439  1.00  0.00     0.238 S 
ATOM     31  O   UNL     1     -14.563 -44.466  25.965  1.00  0.00    -0.207 OA
ATOM     32  O   UNL     1     -14.189 -42.010  26.467  1.00  0.00    -0.207 OA
BRANCH  30  33
ATOM     33  N   UNL     1     -15.578 -43.387  28.020  1.00  0.00    -0.225 NA
ATOM     34  H   UNL     1     -14.822 -43.136  28.661  1.00  0.00     0.137 HD
ATOM     35  H   UNL     1     -16.431 -42.865  28.217  1.00  0.00     0.137 HD
ENDBRANCH  30  33
ENDBRANCH   4  30
TORSDOF 7
ENDMDL
MODEL 6
REMARK VINA RESULT:    -8.502      4.565      7.567
REMARK INTER + INTRA:         -13.203
REMARK INTER:                 -11.780
REMARK INTRA:                  -1.424
REMARK UNBOUND:                -1.471
REMARK SMILES COc1ccc([C@H]2CC(c3cc(F)cc(F)c3)=NN2c2ccc(S(N)(=O)=O)cc2)c(OC)c1
REMARK SMILES IDX 20 1 21 2 22 3 23 4 28 5 29 6 19 7 7 8 8 9 9 10 18 11 6 12
REMARK SMILES IDX 3 13 4 14 33 15 5 16 30 17 2 18 1 19 31 20 32 21 10 22 11 23
REMARK SMILES IDX 17 24 12 25 15 26 14 27 13 28 16 29 24 30 26 31 27 32 25 33
REMARK H PARENT 25 34 25 35
ROOT
ATOM      1  C   UNL     1     -18.766 -42.307  24.243  1.00  0.00     0.060 A 
ATOM      2  C   UNL     1     -18.380 -42.305  25.593  1.00  0.00     0.029 A 
ATOM      3  C   UNL     1     -17.054 -42.531  25.983  1.00  0.00     0.024 A 
ATOM      4  C   UNL     1     -16.081 -42.759  25.014  1.00  0.00     0.082 A 
ATOM      5  C   UNL     1     -16.423 -42.786  23.666  1.00  0.00     0.024 A 
ATOM      6  C   UNL     1     -17.753 -42.556  23.295  1.00  0.00     0.029 A 
ENDROOT
BRANCH   1   7
ATOM      7  N   UNL     1     -20.078 -42.075  23.830  1.00  0.00    -0.257 N 
ATOM      8  C   UNL     1     -21.168 -43.059  23.796  1.00  0.00     0.148 C 
ATOM      9  C   UNL     1     -22.192 -42.417  22.855  1.00  0.00     0.091 C 
ATOM     10  C   UNL     1     -21.573 -41.060  22.668  1.00  0.00     0.071 C 
ATOM     11  N   UNL     1     -20.389 -40.913  23.179  1.00  0.00    -0.176 NA
BRANCH   8  12
ATOM     12  C   UNL     1     -21.743 -43.377  25.170  1.00  0.00     0.019 A 
ATOM     13  C   UNL     1     -22.818 -43.843  27.753  1.00  0.00     0.122 A 
ATOM     14  C   UNL     1     -22.900 -42.582  27.167  1.00  0.00     0.047 A 
ATOM     15  C   UNL     1     -22.193 -44.873  27.055  1.00  0.00     0.093 A 
ATOM     16  C   UNL     1     -22.363 -42.346  25.897  1.00  0.00     0.013 A 
ATOM     17  C   UNL     1     -21.677 -44.645  25.771  1.00  0.00     0.127 A 
BRANCH  13  18
ATOM     18  O   UNL     1     -23.369 -43.932  29.001  1.00  0.00    -0.497 OA
ATOM     19  C   UNL     1     -24.252 -45.021  29.239  1.00  0.00     0.278 C 
ENDBRANCH  13  18
BRANCH  17  20
ATOM     20  O   UNL     1     -21.012 -45.667  25.145  1.00  0.00    -0.496 OA
ATOM     21  C   UNL     1     -21.934 -46.628  24.625  1.00  0.00     0.278 C 
ENDBRANCH  17  20
ENDBRANCH   8  12
BRANCH  10  22
ATOM     22  C   UNL     1     -22.264 -39.982  21.924  1.00  0.00     0.004 A 
ATOM     23  C   UNL     1     -21.510 -39.139  21.098  1.00  0.00     0.049 A 
ATOM     24  C   UNL     1     -23.644 -39.789  22.029  1.00  0.00     0.049 A 
ATOM     25  C   UNL     1     -22.140 -38.119  20.393  1.00  0.00     0.126 A 
ATOM     26  C   UNL     1     -24.248 -38.760  21.311  1.00  0.00     0.126 A 
ATOM     27  C   UNL     1     -23.510 -37.918  20.491  1.00  0.00     0.078 A 
ATOM     28  F   UNL     1     -21.413 -37.314  19.607  1.00  0.00    -0.207 F 
ATOM     29  F   UNL     1     -25.571 -38.580  21.415  1.00  0.00    -0.207 F 
ENDBRANCH  10  22
ENDBRANCH   1   7
BRANCH   4  30
ATOM     30  S   UNL     1     -14.404 -43.041  25.509  1.00  0.00     0.238 S 
ATOM     31  O   UNL     1     -13.555 -42.918  24.347  1.00  0.00    -0.207 OA
ATOM     32  O   UNL     1     -14.154 -42.319  26.735  1.00  0.00    -0.207 OA
BRANCH  30  33
ATOM     33  N   UNL     1     -14.454 -44.668  25.943  1.00  0.00    -0.225 NA
ATOM     34  H   UNL     1     -15.351 -45.057  25.647  1.00  0.00     0.137 HD
ATOM     35  H   UNL     1     -13.668 -45.204  25.574  1.00  0.00     0.137 HD
ENDBRANCH  30  33
ENDBRANCH   4  30
TORSDOF 7
ENDMDL
MODEL 7
REMARK VINA RESULT:    -8.061      4.492      8.231
REMARK INTER + INTRA:         -12.594
REMARK INTER:                 -11.100
REMARK INTRA:                  -1.494
REMARK UNBOUND:                -1.471
REMARK SMILES COc1ccc([C@H]2CC(c3cc(F)cc(F)c3)=NN2c2ccc(S(N)(=O)=O)cc2)c(OC)c1
REMARK SMILES IDX 20 1 21 2 22 3 23 4 28 5 29 6 19 7 7 8 8 9 9 10 18 11 6 12
REMARK SMILES IDX 3 13 4 14 33 15 5 16 30 17 2 18 1 19 31 20 32 21 10 22 11 23
REMARK SMILES IDX 17 24 12 25 15 26 14 27 13 28 16 29 24 30 26 31 27 32 25 33
REMARK H PARENT 25 34 25 35
ROOT
ATOM      1  C   UNL     1     -22.293 -44.061  25.058  1.00  0.00     0.060 A 
ATOM      2  C   UNL     1     -23.301 -44.376  24.133  1.00  0.00     0.029 A 
ATOM      3  C   UNL     1     -23.481 -45.679  23.651  1.00  0.00     0.024 A 
ATOM      4  C   UNL     1     -22.646 -46.700  24.099  1.00  0.00     0.082 A 
ATOM      5  C   UNL     1     -21.624 -46.428  25.002  1.00  0.00     0.024 A 
ATOM      6  C   UNL     1     -21.462 -45.120  25.474  1.00  0.00     0.029 A 
ENDROOT
BRANCH   1   7
ATOM      7  N   UNL     1     -22.101 -42.773  25.558  1.00  0.00    -0.257 N 
ATOM      8  C   UNL     1     -20.813 -42.096  25.755  1.00  0.00     0.148 C 
ATOM      9  C   UNL     1     -21.155 -40.964  26.727  1.00  0.00     0.091 C 
ATOM     10  C   UNL     1     -22.653 -41.081  26.762  1.00  0.00     0.071 C 
ATOM     11  N   UNL     1     -23.145 -42.112  26.146  1.00  0.00    -0.176 NA
BRANCH   8  12
ATOM     12  C   UNL     1     -20.186 -41.598  24.460  1.00  0.00     0.019 A 
ATOM     13  C   UNL     1     -19.130 -40.617  22.017  1.00  0.00     0.122 A 
ATOM     14  C   UNL     1     -20.326 -40.115  22.526  1.00  0.00     0.047 A 
ATOM     15  C   UNL     1     -18.461 -41.614  22.721  1.00  0.00     0.093 A 
ATOM     16  C   UNL     1     -20.853 -40.602  23.726  1.00  0.00     0.013 A 
ATOM     17  C   UNL     1     -18.977 -42.086  23.938  1.00  0.00     0.127 A 
BRANCH  13  18
ATOM     18  O   UNL     1     -18.736 -40.064  20.830  1.00  0.00    -0.497 OA
ATOM     19  C   UNL     1     -19.756 -39.511  20.007  1.00  0.00     0.278 C 
ENDBRANCH  13  18
BRANCH  17  20
ATOM     20  O   UNL     1     -18.323 -43.114  24.566  1.00  0.00    -0.496 OA
ATOM     21  C   UNL     1     -17.102 -42.656  25.152  1.00  0.00     0.278 C 
ENDBRANCH  17  20
ENDBRANCH   8  12
BRANCH  10  22
ATOM     22  C   UNL     1     -23.497 -40.098  27.480  1.00  0.00     0.004 A 
ATOM     23  C   UNL     1     -23.548 -38.780  27.010  1.00  0.00     0.049 A 
ATOM     24  C   UNL     1     -24.238 -40.457  28.608  1.00  0.00     0.049 A 
ATOM     25  C   UNL     1     -24.333 -37.841  27.672  1.00  0.00     0.126 A 
ATOM     26  C   UNL     1     -25.017 -39.496  29.250  1.00  0.00     0.126 A 
ATOM     27  C   UNL     1     -25.072 -38.187  28.794  1.00  0.00     0.078 A 
ATOM     28  F   UNL     1     -24.376 -36.581  27.220  1.00  0.00    -0.207 F 
ATOM     29  F   UNL     1     -25.725 -39.846  30.332  1.00  0.00    -0.207 F 
ENDBRANCH  10  22
ENDBRANCH   1   7
BRANCH   4  30
ATOM     30  S   UNL     1     -22.877 -48.347  23.491  1.00  0.00     0.238 S 
ATOM     31  O   UNL     1     -21.970 -48.560  22.387  1.00  0.00    -0.207 OA
ATOM     32  O   UNL     1     -22.960 -49.250  24.615  1.00  0.00    -0.207 OA
BRANCH  30  33
ATOM     33  N   UNL     1     -24.439 -48.256  22.866  1.00  0.00    -0.225 NA
ATOM     34  H   UNL     1     -24.716 -47.273  22.822  1.00  0.00     0.137 HD
ATOM     35  H   UNL     1     -24.535 -48.718  21.963  1.00  0.00     0.137 HD
ENDBRANCH  30  33
ENDBRANCH   4  30
TORSDOF 7
ENDMDL
MODEL 8
REMARK VINA RESULT:    -7.962      7.851     11.604
REMARK INTER + INTRA:         -12.458
REMARK INTER:                 -12.046
REMARK INTRA:                  -0.411
REMARK UNBOUND:                -1.471
REMARK SMILES COc1ccc([C@H]2CC(c3cc(F)cc(F)c3)=NN2c2ccc(S(N)(=O)=O)cc2)c(OC)c1
REMARK SMILES IDX 20 1 21 2 22 3 23 4 28 5 29 6 19 7 7 8 8 9 9 10 18 11 6 12
REMARK SMILES IDX 3 13 4 14 33 15 5 16 30 17 2 18 1 19 31 20 32 21 10 22 11 23
REMARK SMILES IDX 17 24 12 25 15 26 14 27 13 28 16 29 24 30 26 31 27 32 25 33
REMARK H PARENT 25 34 25 35
ROOT
ATOM      1  C   UNL     1     -11.584 -44.381  30.042  1.00  0.00     0.060 A 
ATOM      2  C   UNL     1     -11.147 -45.591  30.605  1.00  0.00     0.029 A 
ATOM      3  C   UNL     1      -9.841 -45.755  31.084  1.00  0.00     0.024 A 
ATOM      4  C   UNL     1      -8.943 -44.694  31.011  1.00  0.00     0.082 A 
ATOM      5  C   UNL     1      -9.330 -43.483  30.446  1.00  0.00     0.024 A 
ATOM      6  C   UNL     1     -10.639 -43.337  29.975  1.00  0.00     0.029 A 
ENDROOT
BRANCH   1   7
ATOM      7  N   UNL     1     -12.882 -44.192  29.568  1.00  0.00    -0.257 N 
ATOM      8  C   UNL     1     -14.126 -44.516  30.279  1.00  0.00     0.148 C 
ATOM      9  C   UNL     1     -15.171 -44.553  29.161  1.00  0.00     0.091 C 
ATOM     10  C   UNL     1     -14.353 -44.041  28.008  1.00  0.00     0.071 C 
ATOM     11  N   UNL     1     -13.085 -43.893  28.249  1.00  0.00    -0.176 NA
BRANCH   8  12
ATOM     12  C   UNL     1     -14.470 -43.523  31.381  1.00  0.00     0.019 A 
ATOM     13  C   UNL     1     -15.194 -41.616  33.353  1.00  0.00     0.122 A 
ATOM     14  C   UNL     1     -15.981 -41.798  32.218  1.00  0.00     0.047 A 
ATOM     15  C   UNL     1     -14.040 -42.381  33.504  1.00  0.00     0.093 A 
ATOM     16  C   UNL     1     -15.623 -42.731  31.240  1.00  0.00     0.013 A 
ATOM     17  C   UNL     1     -13.693 -43.335  32.536  1.00  0.00     0.127 A 
BRANCH  13  18
ATOM     18  O   UNL     1     -15.650 -40.664  34.221  1.00  0.00    -0.497 OA
ATOM     19  C   UNL     1     -14.971 -40.549  35.467  1.00  0.00     0.278 C 
ENDBRANCH  13  18
BRANCH  17  20
ATOM     20  O   UNL     1     -12.515 -44.019  32.689  1.00  0.00    -0.496 OA
ATOM     21  C   UNL     1     -11.535 -43.203  33.333  1.00  0.00     0.278 C 
ENDBRANCH  17  20
ENDBRANCH   8  12
BRANCH  10  22
ATOM     22  C   UNL     1     -14.956 -43.758  26.686  1.00  0.00     0.004 A 
ATOM     23  C   UNL     1     -14.393 -44.344  25.546  1.00  0.00     0.049 A 
ATOM     24  C   UNL     1     -16.067 -42.922  26.554  1.00  0.00     0.049 A 
ATOM     25  C   UNL     1     -14.943 -44.088  24.295  1.00  0.00     0.126 A 
ATOM     26  C   UNL     1     -16.598 -42.684  25.288  1.00  0.00     0.126 A 
ATOM     27  C   UNL     1     -16.047 -43.259  24.152  1.00  0.00     0.078 A 
ATOM     28  F   UNL     1     -14.399 -44.650  23.208  1.00  0.00    -0.207 F 
ATOM     29  F   UNL     1     -17.664 -41.882  25.167  1.00  0.00    -0.207 F 
ENDBRANCH  10  22
ENDBRANCH   1   7
BRANCH   4  30
ATOM     30  S   UNL     1      -7.294 -44.902  31.619  1.00  0.00     0.238 S 
ATOM     31  O   UNL     1      -7.076 -43.957  32.690  1.00  0.00    -0.207 OA
ATOM     32  O   UNL     1      -7.025 -46.314  31.762  1.00  0.00    -0.207 OA
BRANCH  30  33
ATOM     33  N   UNL     1      -6.383 -44.399  30.294  1.00  0.00    -0.225 NA
ATOM     34  H   UNL     1      -5.579 -43.867  30.634  1.00  0.00     0.137 HD
ATOM     35  H   UNL     1      -6.099 -45.170  29.690  1.00  0.00     0.137 HD
ENDBRANCH  30  33
ENDBRANCH   4  30
TORSDOF 7
ENDMDL
MODEL 9
REMARK VINA RESULT:    -7.363      3.404      5.163
REMARK INTER + INTRA:         -11.631
REMARK INTER:                 -10.162
REMARK INTRA:                  -1.469
REMARK UNBOUND:                -1.471
REMARK SMILES COc1ccc([C@H]2CC(c3cc(F)cc(F)c3)=NN2c2ccc(S(N)(=O)=O)cc2)c(OC)c1
REMARK SMILES IDX 20 1 21 2 22 3 23 4 28 5 29 6 19 7 7 8 8 9 9 10 18 11 6 12
REMARK SMILES IDX 3 13 4 14 33 15 5 16 30 17 2 18 1 19 31 20 32 21 10 22 11 23
REMARK SMILES IDX 17 24 12 25 15 26 14 27 13 28 16 29 24 30 26 31 27 32 25 33
REMARK H PARENT 25 34 25 35
ROOT
ATOM      1  C   UNL     1     -21.795 -43.584  22.729  1.00  0.00     0.060 A 
ATOM      2  C   UNL     1     -22.705 -44.442  23.368  1.00  0.00     0.029 A 
ATOM      3  C   UNL     1     -23.554 -45.290  22.646  1.00  0.00     0.024 A 
ATOM      4  C   UNL     1     -23.501 -45.296  21.254  1.00  0.00     0.082 A 
ATOM      5  C   UNL     1     -22.626 -44.450  20.581  1.00  0.00     0.024 A 
ATOM      6  C   UNL     1     -21.783 -43.612  21.320  1.00  0.00     0.029 A 
ENDROOT
BRANCH   1   7
ATOM      7  N   UNL     1     -20.933 -42.739  23.427  1.00  0.00    -0.257 N 
ATOM      8  C   UNL     1     -20.836 -41.281  23.284  1.00  0.00     0.148 C 
ATOM      9  C   UNL     1     -19.472 -40.957  23.900  1.00  0.00     0.091 C 
ATOM     10  C   UNL     1     -19.109 -42.298  24.473  1.00  0.00     0.071 C 
ATOM     11  N   UNL     1     -19.908 -43.272  24.161  1.00  0.00    -0.176 NA
BRANCH   8  12
ATOM     12  C   UNL     1     -21.981 -40.529  23.949  1.00  0.00     0.019 A 
ATOM     13  C   UNL     1     -24.094 -39.196  25.293  1.00  0.00     0.122 A 
ATOM     14  C   UNL     1     -23.149 -39.929  26.008  1.00  0.00     0.047 A 
ATOM     15  C   UNL     1     -23.992 -39.131  23.906  1.00  0.00     0.093 A 
ATOM     16  C   UNL     1     -22.111 -40.594  25.347  1.00  0.00     0.013 A 
ATOM     17  C   UNL     1     -22.937 -39.777  23.245  1.00  0.00     0.127 A 
BRANCH  13  18
ATOM     18  O   UNL     1     -25.062 -38.609  26.060  1.00  0.00    -0.497 OA
ATOM     19  C   UNL     1     -24.630 -37.656  27.024  1.00  0.00     0.278 C 
ENDBRANCH  13  18
BRANCH  17  20
ATOM     20  O   UNL     1     -22.910 -39.744  21.875  1.00  0.00    -0.496 OA
ATOM     21  C   UNL     1     -24.218 -39.952  21.337  1.00  0.00     0.278 C 
ENDBRANCH  17  20
ENDBRANCH   8  12
BRANCH  10  22
ATOM     22  C   UNL     1     -17.902 -42.489  25.311  1.00  0.00     0.004 A 
ATOM     23  C   UNL     1     -18.017 -42.364  26.701  1.00  0.00     0.049 A 
ATOM     24  C   UNL     1     -16.660 -42.789  24.745  1.00  0.00     0.049 A 
ATOM     25  C   UNL     1     -16.895 -42.537  27.504  1.00  0.00     0.126 A 
ATOM     26  C   UNL     1     -15.554 -42.958  25.575  1.00  0.00     0.126 A 
ATOM     27  C   UNL     1     -15.656 -42.834  26.953  1.00  0.00     0.078 A 
ATOM     28  F   UNL     1     -17.009 -42.413  28.832  1.00  0.00    -0.207 F 
ATOM     29  F   UNL     1     -14.366 -43.246  25.027  1.00  0.00    -0.207 F 
ENDBRANCH  10  22
ENDBRANCH   1   7
BRANCH   4  30
ATOM     30  S   UNL     1     -24.573 -46.371  20.344  1.00  0.00     0.238 S 
ATOM     31  O   UNL     1     -24.624 -45.915  18.974  1.00  0.00    -0.207 OA
ATOM     32  O   UNL     1     -24.272 -47.738  20.698  1.00  0.00    -0.207 OA
BRANCH  30  33
ATOM     33  N   UNL     1     -26.064 -46.036  21.055  1.00  0.00    -0.225 NA
ATOM     34  H   UNL     1     -26.610 -45.461  20.411  1.00  0.00     0.137 HD
ATOM     35  H   UNL     1     -26.569 -46.876  21.335  1.00  0.00     0.137 HD
ENDBRANCH  30  33
ENDBRANCH   4  30
TORSDOF 7
ENDMDL
