MODEL 1
REMARK VINA RESULT:   -11.207      0.000      0.000
REMARK INTER + INTRA:         -14.975
REMARK INTER:                 -14.483
REMARK INTRA:                  -0.491
REMARK UNBOUND:                -0.491
REMARK SMILES O=C(C[NH2+]Cc1cc(F)cc(F)c1)Nc1ccc2nc3n(c(=O)c2c1)CCC3
REMARK SMILES IDX 3 1 4 2 5 5 6 6 7 7 13 8 8 9 11 10 10 11 9 12 12 13 2 14
REMARK SMILES IDX 14 15 1 16 15 18 16 19 25 20 17 21 24 22 18 23 22 24 19 25
REMARK SMILES IDX 21 26 20 27 26 28 28 29 27 30 23 31
REMARK H PARENT 4 3 4 4 14 17
ROOT
ATOM      1  C   UNL     1     -11.276 -45.123  28.494  1.00  0.00     0.362 C 
ENDROOT
BRANCH   1   2
ATOM      2  N   UNL     1     -11.301 -46.358  29.367  1.00  0.00    -0.335 N 
ATOM      3  H   UNL     1     -12.036 -46.988  29.020  1.00  0.00     0.347 HD
ATOM      4  H   UNL     1     -10.431 -46.875  29.155  1.00  0.00     0.347 HD
BRANCH   2   5
ATOM      5  C   UNL     1     -11.432 -46.145  30.828  1.00  0.00     0.297 C 
BRANCH   5   6
ATOM      6  C   UNL     1     -10.290 -45.362  31.408  1.00  0.00     0.012 A 
ATOM      7  C   UNL     1     -10.522 -44.199  32.155  1.00  0.00     0.049 A 
ATOM      8  C   UNL     1      -8.965 -45.794  31.239  1.00  0.00     0.049 A 
ATOM      9  C   UNL     1      -9.452 -43.497  32.713  1.00  0.00     0.126 A 
ATOM     10  C   UNL     1      -7.914 -45.073  31.806  1.00  0.00     0.126 A 
ATOM     11  C   UNL     1      -8.145 -43.926  32.548  1.00  0.00     0.078 A 
ATOM     12  F   UNL     1      -9.703 -42.395  33.431  1.00  0.00    -0.207 F 
ATOM     13  F   UNL     1      -6.660 -45.510  31.635  1.00  0.00    -0.207 F 
ENDBRANCH   5   6
ENDBRANCH   2   5
ENDBRANCH   1   2
BRANCH   1  14
ATOM     14  C   UNL     1     -12.554 -45.077  27.655  1.00  0.00     0.279 C 
ATOM     15  N   UNL     1     -12.952 -43.809  27.288  1.00  0.00    -0.321 N 
ATOM     16  O   UNL     1     -13.097 -46.147  27.387  1.00  0.00    -0.268 OA
ATOM     17  H   UNL     1     -12.393 -43.016  27.587  1.00  0.00     0.170 HD
BRANCH  15  18
ATOM     18  C   UNL     1     -14.086 -43.466  26.514  1.00  0.00     0.042 A 
ATOM     19  C   UNL     1     -14.113 -43.463  25.117  1.00  0.00     0.028 A 
ATOM     20  C   UNL     1     -15.243 -43.108  27.211  1.00  0.00     0.042 A 
ATOM     21  C   UNL     1     -15.282 -43.107  24.426  1.00  0.00     0.031 A 
ATOM     22  C   UNL     1     -16.406 -42.755  26.512  1.00  0.00     0.068 A 
ATOM     23  C   UNL     1     -16.440 -42.749  25.114  1.00  0.00     0.078 A 
ATOM     24  C   UNL     1     -17.633 -42.375  27.244  1.00  0.00     0.261 A 
ATOM     25  N   UNL     1     -17.584 -42.391  24.378  1.00  0.00    -0.234 NA
ATOM     26  N   UNL     1     -18.706 -42.096  26.439  1.00  0.00    -0.296 N 
ATOM     27  C   UNL     1     -18.636 -42.093  25.061  1.00  0.00     0.112 A 
ATOM     28  C   UNL     1     -19.999 -41.659  26.900  1.00  0.00     0.128 C 
ATOM     29  C   UNL     1     -19.955 -41.664  24.495  1.00  0.00     0.077 C 
ATOM     30  C   UNL     1     -20.892 -41.855  25.686  1.00  0.00     0.030 C 
ATOM     31  O   UNL     1     -17.639 -42.321  28.469  1.00  0.00    -0.269 OA
ENDBRANCH  15  18
ENDBRANCH   1  14
TORSDOF 5
ENDMDL
MODEL 2
REMARK VINA RESULT:   -11.158      1.251      1.495
REMARK INTER + INTRA:         -14.911
REMARK INTER:                 -14.768
REMARK INTRA:                  -0.143
REMARK UNBOUND:                -0.491
REMARK SMILES O=C(C[NH2+]Cc1cc(F)cc(F)c1)Nc1ccc2nc3n(c(=O)c2c1)CCC3
REMARK SMILES IDX 3 1 4 2 5 5 6 6 7 7 13 8 8 9 11 10 10 11 9 12 12 13 2 14
REMARK SMILES IDX 14 15 1 16 15 18 16 19 25 20 17 21 24 22 18 23 22 24 19 25
REMARK SMILES IDX 21 26 20 27 26 28 28 29 27 30 23 31
REMARK H PARENT 4 3 4 4 14 17
ROOT
ATOM      1  C   UNL     1     -12.703 -44.962  28.953  1.00  0.00     0.362 C 
ENDROOT
BRANCH   1   2
ATOM      2  N   UNL     1     -13.407 -45.933  29.873  1.00  0.00    -0.335 N 
ATOM      3  H   UNL     1     -14.422 -45.795  29.780  1.00  0.00     0.347 HD
ATOM      4  H   UNL     1     -13.260 -46.872  29.464  1.00  0.00     0.347 HD
BRANCH   2   5
ATOM      5  C   UNL     1     -13.000 -45.922  31.299  1.00  0.00     0.297 C 
BRANCH   5   6
ATOM      6  C   UNL     1     -11.554 -45.566  31.490  1.00  0.00     0.012 A 
ATOM      7  C   UNL     1     -11.184 -44.323  32.023  1.00  0.00     0.049 A 
ATOM      8  C   UNL     1     -10.541 -46.481  31.166  1.00  0.00     0.049 A 
ATOM      9  C   UNL     1      -9.837 -44.016  32.223  1.00  0.00     0.126 A 
ATOM     10  C   UNL     1      -9.201 -46.149  31.374  1.00  0.00     0.126 A 
ATOM     11  C   UNL     1      -8.838 -44.922  31.905  1.00  0.00     0.078 A 
ATOM     12  F   UNL     1      -9.513 -42.827  32.743  1.00  0.00    -0.207 F 
ATOM     13  F   UNL     1      -8.255 -47.043  31.062  1.00  0.00    -0.207 F 
ENDBRANCH   5   6
ENDBRANCH   2   5
ENDBRANCH   1   2
BRANCH   1  14
ATOM     14  C   UNL     1     -13.484 -44.859  27.641  1.00  0.00     0.279 C 
ATOM     15  N   UNL     1     -14.188 -43.684  27.485  1.00  0.00    -0.321 N 
ATOM     16  O   UNL     1     -13.414 -45.808  26.863  1.00  0.00    -0.268 OA
ATOM     17  H   UNL     1     -14.145 -42.987  28.222  1.00  0.00     0.170 HD
BRANCH  15  18
ATOM     18  C   UNL     1     -14.990 -43.316  26.380  1.00  0.00     0.042 A 
ATOM     19  C   UNL     1     -14.567 -43.366  25.049  1.00  0.00     0.028 A 
ATOM     20  C   UNL     1     -16.287 -42.874  26.658  1.00  0.00     0.042 A 
ATOM     21  C   UNL     1     -15.429 -42.981  24.010  1.00  0.00     0.031 A 
ATOM     22  C   UNL     1     -17.140 -42.492  25.612  1.00  0.00     0.068 A 
ATOM     23  C   UNL     1     -16.723 -42.539  24.279  1.00  0.00     0.078 A 
ATOM     24  C   UNL     1     -18.512 -42.023  25.901  1.00  0.00     0.261 A 
ATOM     25  N   UNL     1     -17.546 -42.154  23.205  1.00  0.00    -0.234 NA
ATOM     26  N   UNL     1     -19.251 -41.723  24.786  1.00  0.00    -0.296 N 
ATOM     27  C   UNL     1     -18.742 -41.778  23.505  1.00  0.00     0.112 A 
ATOM     28  C   UNL     1     -20.595 -41.206  24.796  1.00  0.00     0.128 C 
ATOM     29  C   UNL     1     -19.782 -41.307  22.535  1.00  0.00     0.077 C 
ATOM     30  C   UNL     1     -21.061 -41.404  23.363  1.00  0.00     0.030 C 
ATOM     31  O   UNL     1     -18.908 -41.921  27.057  1.00  0.00    -0.269 OA
ENDBRANCH  15  18
ENDBRANCH   1  14
TORSDOF 5
ENDMDL
MODEL 3
REMARK VINA RESULT:   -11.129      1.193      2.074
REMARK INTER + INTRA:         -14.873
REMARK INTER:                 -14.676
REMARK INTRA:                  -0.197
REMARK UNBOUND:                -0.491
REMARK SMILES O=C(C[NH2+]Cc1cc(F)cc(F)c1)Nc1ccc2nc3n(c(=O)c2c1)CCC3
REMARK SMILES IDX 3 1 4 2 5 5 6 6 7 7 13 8 8 9 11 10 10 11 9 12 12 13 2 14
REMARK SMILES IDX 14 15 1 16 15 18 16 19 25 20 17 21 24 22 18 23 22 24 19 25
REMARK SMILES IDX 21 26 20 27 26 28 28 29 27 30 23 31
REMARK H PARENT 4 3 4 4 14 17
ROOT
ATOM      1  C   UNL     1     -12.610 -45.091  28.710  1.00  0.00     0.362 C 
ENDROOT
BRANCH   1   2
ATOM      2  N   UNL     1     -13.224 -46.180  29.560  1.00  0.00    -0.335 N 
ATOM      3  H   UNL     1     -14.231 -46.226  29.355  1.00  0.00     0.347 HD
ATOM      4  H   UNL     1     -12.867 -47.074  29.181  1.00  0.00     0.347 HD
BRANCH   2   5
ATOM      5  C   UNL     1     -12.984 -46.107  31.021  1.00  0.00     0.297 C 
BRANCH   5   6
ATOM      6  C   UNL     1     -11.596 -45.648  31.362  1.00  0.00     0.012 A 
ATOM      7  C   UNL     1     -10.483 -46.451  31.076  1.00  0.00     0.049 A 
ATOM      8  C   UNL     1     -11.380 -44.392  31.949  1.00  0.00     0.049 A 
ATOM      9  C   UNL     1      -9.196 -45.999  31.372  1.00  0.00     0.126 A 
ATOM     10  C   UNL     1     -10.083 -43.964  32.236  1.00  0.00     0.126 A 
ATOM     11  C   UNL     1      -8.984 -44.757  31.949  1.00  0.00     0.078 A 
ATOM     12  F   UNL     1      -8.150 -46.781  31.079  1.00  0.00    -0.207 F 
ATOM     13  F   UNL     1      -9.904 -42.759  32.789  1.00  0.00    -0.207 F 
ENDBRANCH   5   6
ENDBRANCH   2   5
ENDBRANCH   1   2
BRANCH   1  14
ATOM     14  C   UNL     1     -13.436 -44.926  27.433  1.00  0.00     0.279 C 
ATOM     15  N   UNL     1     -14.120 -43.733  27.345  1.00  0.00    -0.321 N 
ATOM     16  O   UNL     1     -13.414 -45.847  26.619  1.00  0.00    -0.268 OA
ATOM     17  H   UNL     1     -14.037 -43.064  28.105  1.00  0.00     0.170 HD
BRANCH  15  18
ATOM     18  C   UNL     1     -14.955 -43.310  26.284  1.00  0.00     0.042 A 
ATOM     19  C   UNL     1     -14.562 -43.263  24.945  1.00  0.00     0.028 A 
ATOM     20  C   UNL     1     -16.254 -42.915  26.619  1.00  0.00     0.042 A 
ATOM     21  C   UNL     1     -15.455 -42.827  23.952  1.00  0.00     0.031 A 
ATOM     22  C   UNL     1     -17.138 -42.482  25.621  1.00  0.00     0.068 A 
ATOM     23  C   UNL     1     -16.751 -42.432  24.278  1.00  0.00     0.078 A 
ATOM     24  C   UNL     1     -18.512 -42.063  25.970  1.00  0.00     0.261 A 
ATOM     25  N   UNL     1     -17.606 -41.995  23.251  1.00  0.00    -0.234 NA
ATOM     26  N   UNL     1     -19.283 -41.706  24.894  1.00  0.00    -0.296 N 
ATOM     27  C   UNL     1     -18.802 -41.665  23.601  1.00  0.00     0.112 A 
ATOM     28  C   UNL     1     -20.636 -41.218  24.967  1.00  0.00     0.128 C 
ATOM     29  C   UNL     1     -19.873 -41.153  22.686  1.00  0.00     0.077 C 
ATOM     30  C   UNL     1     -21.131 -41.332  23.534  1.00  0.00     0.030 C 
ATOM     31  O   UNL     1     -18.884 -42.046  27.138  1.00  0.00    -0.269 OA
ENDBRANCH  15  18
ENDBRANCH   1  14
TORSDOF 5
ENDMDL
MODEL 4
REMARK VINA RESULT:   -11.012      3.879      9.810
REMARK INTER + INTRA:         -14.723
REMARK INTER:                 -14.524
REMARK INTRA:                  -0.198
REMARK UNBOUND:                -0.491
REMARK SMILES O=C(C[NH2+]Cc1cc(F)cc(F)c1)Nc1ccc2nc3n(c(=O)c2c1)CCC3
REMARK SMILES IDX 3 1 4 2 5 5 6 6 7 7 13 8 8 9 11 10 10 11 9 12 12 13 2 14
REMARK SMILES IDX 14 15 1 16 15 18 16 19 25 20 17 21 24 22 18 23 22 24 19 25
REMARK SMILES IDX 21 26 20 27 26 28 28 29 27 30 23 31
REMARK H PARENT 4 3 4 4 14 17
ROOT
ATOM      1  C   UNL     1     -15.617 -42.201  23.840  1.00  0.00     0.362 C 
ENDROOT
BRANCH   1   2
ATOM      2  N   UNL     1     -16.907 -42.852  23.393  1.00  0.00    -0.335 N 
ATOM      3  H   UNL     1     -16.722 -43.391  22.537  1.00  0.00     0.347 HD
ATOM      4  H   UNL     1     -17.114 -43.586  24.092  1.00  0.00     0.347 HD
BRANCH   2   5
ATOM      5  C   UNL     1     -18.081 -41.964  23.216  1.00  0.00     0.297 C 
BRANCH   5   6
ATOM      6  C   UNL     1     -18.891 -41.811  24.471  1.00  0.00     0.012 A 
ATOM      7  C   UNL     1     -18.379 -42.219  25.711  1.00  0.00     0.049 A 
ATOM      8  C   UNL     1     -20.168 -41.230  24.435  1.00  0.00     0.049 A 
ATOM      9  C   UNL     1     -19.131 -42.044  26.874  1.00  0.00     0.126 A 
ATOM     10  C   UNL     1     -20.900 -41.068  25.612  1.00  0.00     0.126 A 
ATOM     11  C   UNL     1     -20.391 -41.467  26.837  1.00  0.00     0.078 A 
ATOM     12  F   UNL     1     -18.613 -42.432  28.046  1.00  0.00    -0.207 F 
ATOM     13  F   UNL     1     -22.112 -40.505  25.550  1.00  0.00    -0.207 F 
ENDBRANCH   5   6
ENDBRANCH   2   5
ENDBRANCH   1   2
BRANCH   1  14
ATOM     14  C   UNL     1     -14.735 -43.251  24.518  1.00  0.00     0.279 C 
ATOM     15  N   UNL     1     -14.320 -42.916  25.788  1.00  0.00    -0.321 N 
ATOM     16  O   UNL     1     -14.484 -44.276  23.886  1.00  0.00    -0.268 OA
ATOM     17  H   UNL     1     -14.614 -42.026  26.180  1.00  0.00     0.170 HD
BRANCH  15  18
ATOM     18  C   UNL     1     -13.505 -43.690  26.647  1.00  0.00     0.042 A 
ATOM     19  C   UNL     1     -13.709 -45.046  26.914  1.00  0.00     0.028 A 
ATOM     20  C   UNL     1     -12.432 -43.037  27.260  1.00  0.00     0.042 A 
ATOM     21  C   UNL     1     -12.851 -45.741  27.782  1.00  0.00     0.031 A 
ATOM     22  C   UNL     1     -11.580 -43.740  28.124  1.00  0.00     0.068 A 
ATOM     23  C   UNL     1     -11.779 -45.097  28.396  1.00  0.00     0.078 A 
ATOM     24  C   UNL     1     -10.444 -43.054  28.776  1.00  0.00     0.261 A 
ATOM     25  N   UNL     1     -10.953 -45.832  29.265  1.00  0.00    -0.234 NA
ATOM     26  N   UNL     1      -9.669 -43.868  29.560  1.00  0.00    -0.296 N 
ATOM     27  C   UNL     1      -9.961 -45.197  29.788  1.00  0.00     0.112 A 
ATOM     28  C   UNL     1      -8.534 -43.438  30.336  1.00  0.00     0.128 C 
ATOM     29  C   UNL     1      -8.967 -45.767  30.754  1.00  0.00     0.077 C 
ATOM     30  C   UNL     1      -7.837 -44.740  30.695  1.00  0.00     0.030 C 
ATOM     31  O   UNL     1     -10.256 -41.855  28.604  1.00  0.00    -0.269 OA
ENDBRANCH  15  18
ENDBRANCH   1  14
TORSDOF 5
ENDMDL
MODEL 5
REMARK VINA RESULT:   -10.873      2.336      3.308
REMARK INTER + INTRA:         -14.543
REMARK INTER:                 -14.160
REMARK INTRA:                  -0.383
REMARK UNBOUND:                -0.491
REMARK SMILES O=C(C[NH2+]Cc1cc(F)cc(F)c1)Nc1ccc2nc3n(c(=O)c2c1)CCC3
REMARK SMILES IDX 3 1 4 2 5 5 6 6 7 7 13 8 8 9 11 10 10 11 9 12 12 13 2 14
REMARK SMILES IDX 14 15 1 16 15 18 16 19 25 20 17 21 24 22 18 23 22 24 19 25
REMARK SMILES IDX 21 26 20 27 26 28 28 29 27 30 23 31
REMARK H PARENT 4 3 4 4 14 17
ROOT
ATOM      1  C   UNL     1     -13.331 -43.765  26.531  1.00  0.00     0.362 C 
ENDROOT
BRANCH   1   2
ATOM      2  N   UNL     1     -13.861 -45.056  27.113  1.00  0.00    -0.335 N 
ATOM      3  H   UNL     1     -14.312 -44.847  28.014  1.00  0.00     0.347 HD
ATOM      4  H   UNL     1     -14.656 -45.336  26.513  1.00  0.00     0.347 HD
BRANCH   2   5
ATOM      5  C   UNL     1     -12.900 -46.176  27.250  1.00  0.00     0.297 C 
BRANCH   5   6
ATOM      6  C   UNL     1     -12.174 -46.165  28.564  1.00  0.00     0.012 A 
ATOM      7  C   UNL     1     -12.856 -45.891  29.759  1.00  0.00     0.049 A 
ATOM      8  C   UNL     1     -10.803 -46.456  28.630  1.00  0.00     0.049 A 
ATOM      9  C   UNL     1     -12.174 -45.912  30.977  1.00  0.00     0.126 A 
ATOM     10  C   UNL     1     -10.145 -46.470  29.860  1.00  0.00     0.126 A 
ATOM     11  C   UNL     1     -10.821 -46.203  31.041  1.00  0.00     0.078 A 
ATOM     12  F   UNL     1     -12.851 -45.658  32.103  1.00  0.00    -0.207 F 
ATOM     13  F   UNL     1      -8.839 -46.757  29.896  1.00  0.00    -0.207 F 
ENDBRANCH   5   6
ENDBRANCH   2   5
ENDBRANCH   1   2
BRANCH   1  14
ATOM     14  C   UNL     1     -14.509 -42.872  26.139  1.00  0.00     0.279 C 
ATOM     15  N   UNL     1     -15.457 -43.487  25.351  1.00  0.00    -0.321 N 
ATOM     16  O   UNL     1     -14.506 -41.714  26.553  1.00  0.00    -0.268 OA
ATOM     17  H   UNL     1     -15.320 -44.459  25.090  1.00  0.00     0.170 HD
BRANCH  15  18
ATOM     18  C   UNL     1     -16.645 -42.910  24.845  1.00  0.00     0.042 A 
ATOM     19  C   UNL     1     -16.897 -42.690  23.488  1.00  0.00     0.028 A 
ATOM     20  C   UNL     1     -17.617 -42.540  25.779  1.00  0.00     0.042 A 
ATOM     21  C   UNL     1     -18.104 -42.109  23.070  1.00  0.00     0.031 A 
ATOM     22  C   UNL     1     -18.821 -41.961  25.350  1.00  0.00     0.068 A 
ATOM     23  C   UNL     1     -19.079 -41.737  23.995  1.00  0.00     0.078 A 
ATOM     24  C   UNL     1     -19.852 -41.566  26.334  1.00  0.00     0.261 A 
ATOM     25  N   UNL     1     -20.268 -41.150  23.528  1.00  0.00    -0.234 NA
ATOM     26  N   UNL     1     -20.995 -41.053  25.777  1.00  0.00    -0.296 N 
ATOM     27  C   UNL     1     -21.148 -40.848  24.421  1.00  0.00     0.112 A 
ATOM     28  C   UNL     1     -22.127 -40.556  26.516  1.00  0.00     0.128 C 
ATOM     29  C   UNL     1     -22.473 -40.198  24.162  1.00  0.00     0.077 C 
ATOM     30  C   UNL     1     -23.222 -40.466  25.466  1.00  0.00     0.030 C 
ATOM     31  O   UNL     1     -19.653 -41.700  27.537  1.00  0.00    -0.269 OA
ENDBRANCH  15  18
ENDBRANCH   1  14
TORSDOF 5
ENDMDL
MODEL 6
REMARK VINA RESULT:   -10.762      2.834      4.297
REMARK INTER + INTRA:         -14.399
REMARK INTER:                 -14.137
REMARK INTRA:                  -0.262
REMARK UNBOUND:                -0.491
REMARK SMILES O=C(C[NH2+]Cc1cc(F)cc(F)c1)Nc1ccc2nc3n(c(=O)c2c1)CCC3
REMARK SMILES IDX 3 1 4 2 5 5 6 6 7 7 13 8 8 9 11 10 10 11 9 12 12 13 2 14
REMARK SMILES IDX 14 15 1 16 15 18 16 19 25 20 17 21 24 22 18 23 22 24 19 25
REMARK SMILES IDX 21 26 20 27 26 28 28 29 27 30 23 31
REMARK H PARENT 4 3 4 4 14 17
ROOT
ATOM      1  C   UNL     1     -14.597 -44.251  27.293  1.00  0.00     0.362 C 
ENDROOT
BRANCH   1   2
ATOM      2  N   UNL     1     -13.199 -44.701  26.935  1.00  0.00    -0.335 N 
ATOM      3  H   UNL     1     -13.052 -44.541  25.930  1.00  0.00     0.347 HD
ATOM      4  H   UNL     1     -12.557 -44.018  27.376  1.00  0.00     0.347 HD
BRANCH   2   5
ATOM      5  C   UNL     1     -12.819 -46.083  27.313  1.00  0.00     0.297 C 
BRANCH   5   6
ATOM      6  C   UNL     1     -12.140 -46.156  28.650  1.00  0.00     0.012 A 
ATOM      7  C   UNL     1     -10.766 -46.420  28.745  1.00  0.00     0.049 A 
ATOM      8  C   UNL     1     -12.860 -45.933  29.833  1.00  0.00     0.049 A 
ATOM      9  C   UNL     1     -10.142 -46.457  29.993  1.00  0.00     0.126 A 
ATOM     10  C   UNL     1     -12.212 -45.976  31.069  1.00  0.00     0.126 A 
ATOM     11  C   UNL     1     -10.853 -46.233  31.161  1.00  0.00     0.078 A 
ATOM     12  F   UNL     1      -8.828 -46.700  30.053  1.00  0.00    -0.207 F 
ATOM     13  F   UNL     1     -12.921 -45.753  32.182  1.00  0.00    -0.207 F 
ENDBRANCH   5   6
ENDBRANCH   2   5
ENDBRANCH   1   2
BRANCH   1  14
ATOM     14  C   UNL     1     -15.014 -43.116  26.357  1.00  0.00     0.279 C 
ATOM     15  N   UNL     1     -15.762 -43.516  25.271  1.00  0.00    -0.321 N 
ATOM     16  O   UNL     1     -14.656 -41.977  26.651  1.00  0.00    -0.268 OA
ATOM     17  H   UNL     1     -15.981 -44.502  25.164  1.00  0.00     0.170 HD
BRANCH  15  18
ATOM     18  C   UNL     1     -16.284 -42.689  24.249  1.00  0.00     0.042 A 
ATOM     19  C   UNL     1     -15.502 -41.935  23.370  1.00  0.00     0.028 A 
ATOM     20  C   UNL     1     -17.676 -42.633  24.128  1.00  0.00     0.042 A 
ATOM     21  C   UNL     1     -16.102 -41.137  22.383  1.00  0.00     0.031 A 
ATOM     22  C   UNL     1     -18.266 -41.834  23.138  1.00  0.00     0.068 A 
ATOM     23  C   UNL     1     -17.489 -41.077  22.256  1.00  0.00     0.078 A 
ATOM     24  C   UNL     1     -19.737 -41.771  23.007  1.00  0.00     0.261 A 
ATOM     25  N   UNL     1     -18.044 -40.256  21.258  1.00  0.00    -0.234 NA
ATOM     26  N   UNL     1     -20.177 -40.987  21.972  1.00  0.00    -0.296 N 
ATOM     27  C   UNL     1     -19.330 -40.255  21.165  1.00  0.00     0.112 A 
ATOM     28  C   UNL     1     -21.558 -40.725  21.658  1.00  0.00     0.128 C 
ATOM     29  C   UNL     1     -20.138 -39.447  20.197  1.00  0.00     0.077 C 
ATOM     30  C   UNL     1     -21.498 -40.140  20.257  1.00  0.00     0.030 C 
ATOM     31  O   UNL     1     -20.462 -42.381  23.785  1.00  0.00    -0.269 OA
ENDBRANCH  15  18
ENDBRANCH   1  14
TORSDOF 5
ENDMDL
MODEL 7
REMARK VINA RESULT:   -10.710      1.181      1.613
REMARK INTER + INTRA:         -14.332
REMARK INTER:                 -13.793
REMARK INTRA:                  -0.538
REMARK UNBOUND:                -0.491
REMARK SMILES O=C(C[NH2+]Cc1cc(F)cc(F)c1)Nc1ccc2nc3n(c(=O)c2c1)CCC3
REMARK SMILES IDX 3 1 4 2 5 5 6 6 7 7 13 8 8 9 11 10 10 11 9 12 12 13 2 14
REMARK SMILES IDX 14 15 1 16 15 18 16 19 25 20 17 21 24 22 18 23 22 24 19 25
REMARK SMILES IDX 21 26 20 27 26 28 28 29 27 30 23 31
REMARK H PARENT 4 3 4 4 14 17
ROOT
ATOM      1  C   UNL     1     -11.360 -45.215  28.453  1.00  0.00     0.362 C 
ENDROOT
BRANCH   1   2
ATOM      2  N   UNL     1     -11.618 -46.200  29.570  1.00  0.00    -0.335 N 
ATOM      3  H   UNL     1     -11.854 -47.111  29.155  1.00  0.00     0.347 HD
ATOM      4  H   UNL     1     -10.700 -46.376  30.014  1.00  0.00     0.347 HD
BRANCH   2   5
ATOM      5  C   UNL     1     -12.619 -45.811  30.593  1.00  0.00     0.297 C 
BRANCH   5   6
ATOM      6  C   UNL     1     -12.128 -44.723  31.504  1.00  0.00     0.012 A 
ATOM      7  C   UNL     1     -13.026 -43.830  32.106  1.00  0.00     0.049 A 
ATOM      8  C   UNL     1     -10.762 -44.594  31.796  1.00  0.00     0.049 A 
ATOM      9  C   UNL     1     -12.559 -42.841  32.973  1.00  0.00     0.126 A 
ATOM     10  C   UNL     1     -10.320 -43.596  32.666  1.00  0.00     0.126 A 
ATOM     11  C   UNL     1     -11.209 -42.717  33.263  1.00  0.00     0.078 A 
ATOM     12  F   UNL     1     -13.439 -42.009  33.542  1.00  0.00    -0.207 F 
ATOM     13  F   UNL     1      -9.013 -43.499  32.933  1.00  0.00    -0.207 F 
ENDBRANCH   5   6
ENDBRANCH   2   5
ENDBRANCH   1   2
BRANCH   1  14
ATOM     14  C   UNL     1     -12.592 -45.148  27.549  1.00  0.00     0.279 C 
ATOM     15  N   UNL     1     -13.051 -43.872  27.300  1.00  0.00    -0.321 N 
ATOM     16  O   UNL     1     -13.050 -46.210  27.134  1.00  0.00    -0.268 OA
ATOM     17  H   UNL     1     -12.561 -43.087  27.717  1.00  0.00     0.170 HD
BRANCH  15  18
ATOM     18  C   UNL     1     -14.161 -43.510  26.503  1.00  0.00     0.042 A 
ATOM     19  C   UNL     1     -14.158 -43.505  25.105  1.00  0.00     0.028 A 
ATOM     20  C   UNL     1     -15.328 -43.134  27.175  1.00  0.00     0.042 A 
ATOM     21  C   UNL     1     -15.306 -43.129  24.389  1.00  0.00     0.031 A 
ATOM     22  C   UNL     1     -16.469 -42.761  26.450  1.00  0.00     0.068 A 
ATOM     23  C   UNL     1     -16.473 -42.753  25.052  1.00  0.00     0.078 A 
ATOM     24  C   UNL     1     -17.705 -42.362  27.156  1.00  0.00     0.261 A 
ATOM     25  N   UNL     1     -17.594 -42.376  24.291  1.00  0.00    -0.234 NA
ATOM     26  N   UNL     1     -18.756 -42.065  26.328  1.00  0.00    -0.296 N 
ATOM     27  C   UNL     1     -18.656 -42.062  24.951  1.00  0.00     0.112 A 
ATOM     28  C   UNL     1     -20.051 -41.608  26.761  1.00  0.00     0.128 C 
ATOM     29  C   UNL     1     -19.955 -41.611  24.357  1.00  0.00     0.077 C 
ATOM     30  C   UNL     1     -20.921 -41.788  25.528  1.00  0.00     0.030 C 
ATOM     31  O   UNL     1     -17.737 -42.309  28.381  1.00  0.00    -0.269 OA
ENDBRANCH  15  18
ENDBRANCH   1  14
TORSDOF 5
ENDMDL
MODEL 8
REMARK VINA RESULT:   -10.493      2.491      4.138
REMARK INTER + INTRA:         -14.051
REMARK INTER:                 -13.863
REMARK INTRA:                  -0.189
REMARK UNBOUND:                -0.491
REMARK SMILES O=C(C[NH2+]Cc1cc(F)cc(F)c1)Nc1ccc2nc3n(c(=O)c2c1)CCC3
REMARK SMILES IDX 3 1 4 2 5 5 6 6 7 7 13 8 8 9 11 10 10 11 9 12 12 13 2 14
REMARK SMILES IDX 14 15 1 16 15 18 16 19 25 20 17 21 24 22 18 23 22 24 19 25
REMARK SMILES IDX 21 26 20 27 26 28 28 29 27 30 23 31
REMARK H PARENT 4 3 4 4 14 17
ROOT
ATOM      1  C   UNL     1     -13.438 -43.715  26.517  1.00  0.00     0.362 C 
ENDROOT
BRANCH   1   2
ATOM      2  N   UNL     1     -13.880 -45.030  27.118  1.00  0.00    -0.335 N 
ATOM      3  H   UNL     1     -14.305 -44.844  28.036  1.00  0.00     0.347 HD
ATOM      4  H   UNL     1     -14.684 -45.349  26.549  1.00  0.00     0.347 HD
BRANCH   2   5
ATOM      5  C   UNL     1     -12.860 -46.102  27.214  1.00  0.00     0.297 C 
BRANCH   5   6
ATOM      6  C   UNL     1     -12.203 -46.162  28.562  1.00  0.00     0.012 A 
ATOM      7  C   UNL     1     -10.819 -46.362  28.679  1.00  0.00     0.049 A 
ATOM      8  C   UNL     1     -12.954 -45.990  29.735  1.00  0.00     0.049 A 
ATOM      9  C   UNL     1     -10.217 -46.386  29.938  1.00  0.00     0.126 A 
ATOM     10  C   UNL     1     -12.327 -46.019  30.982  1.00  0.00     0.126 A 
ATOM     11  C   UNL     1     -10.959 -46.213  31.096  1.00  0.00     0.078 A 
ATOM     12  F   UNL     1      -8.894 -46.569  30.020  1.00  0.00    -0.207 F 
ATOM     13  F   UNL     1     -13.065 -45.846  32.084  1.00  0.00    -0.207 F 
ENDBRANCH   5   6
ENDBRANCH   2   5
ENDBRANCH   1   2
BRANCH   1  14
ATOM     14  C   UNL     1     -14.672 -42.922  26.085  1.00  0.00     0.279 C 
ATOM     15  N   UNL     1     -15.836 -43.274  26.734  1.00  0.00    -0.321 N 
ATOM     16  O   UNL     1     -14.519 -42.060  25.221  1.00  0.00    -0.268 OA
ATOM     17  H   UNL     1     -15.802 -44.012  27.432  1.00  0.00     0.170 HD
BRANCH  15  18
ATOM     18  C   UNL     1     -17.119 -42.712  26.541  1.00  0.00     0.042 A 
ATOM     19  C   UNL     1     -17.998 -42.384  27.576  1.00  0.00     0.028 A 
ATOM     20  C   UNL     1     -17.516 -42.479  25.221  1.00  0.00     0.042 A 
ATOM     21  C   UNL     1     -19.258 -41.830  27.296  1.00  0.00     0.031 A 
ATOM     22  C   UNL     1     -18.776 -41.924  24.952  1.00  0.00     0.068 A 
ATOM     23  C   UNL     1     -19.661 -41.594  25.983  1.00  0.00     0.078 A 
ATOM     24  C   UNL     1     -19.201 -41.676  23.558  1.00  0.00     0.261 A 
ATOM     25  N   UNL     1     -20.935 -41.046  25.752  1.00  0.00    -0.234 NA
ATOM     26  N   UNL     1     -20.436 -41.091  23.441  1.00  0.00    -0.296 N 
ATOM     27  C   UNL     1     -21.250 -40.824  24.522  1.00  0.00     0.112 A 
ATOM     28  C   UNL     1     -21.096 -40.788  22.197  1.00  0.00     0.128 C 
ATOM     29  C   UNL     1     -22.554 -40.268  24.038  1.00  0.00     0.077 C 
ATOM     30  C   UNL     1     -22.212 -39.844  22.611  1.00  0.00     0.030 C 
ATOM     31  O   UNL     1     -18.479 -41.990  22.618  1.00  0.00    -0.269 OA
ENDBRANCH  15  18
ENDBRANCH   1  14
TORSDOF 5
ENDMDL
MODEL 9
REMARK VINA RESULT:   -10.439      1.964      3.038
REMARK INTER + INTRA:         -13.981
REMARK INTER:                 -14.073
REMARK INTRA:                   0.091
REMARK UNBOUND:                -0.491
REMARK SMILES O=C(C[NH2+]Cc1cc(F)cc(F)c1)Nc1ccc2nc3n(c(=O)c2c1)CCC3
REMARK SMILES IDX 3 1 4 2 5 5 6 6 7 7 13 8 8 9 11 10 10 11 9 12 12 13 2 14
REMARK SMILES IDX 14 15 1 16 15 18 16 19 25 20 17 21 24 22 18 23 22 24 19 25
REMARK SMILES IDX 21 26 20 27 26 28 28 29 27 30 23 31
REMARK H PARENT 4 3 4 4 14 17
ROOT
ATOM      1  C   UNL     1     -13.314 -44.422  27.690  1.00  0.00     0.362 C 
ENDROOT
BRANCH   1   2
ATOM      2  N   UNL     1     -13.663 -44.366  29.160  1.00  0.00    -0.335 N 
ATOM      3  H   UNL     1     -13.263 -43.506  29.559  1.00  0.00     0.347 HD
ATOM      4  H   UNL     1     -14.682 -44.193  29.206  1.00  0.00     0.347 HD
BRANCH   2   5
ATOM      5  C   UNL     1     -13.304 -45.546  29.982  1.00  0.00     0.297 C 
BRANCH   5   6
ATOM      6  C   UNL     1     -11.940 -45.434  30.599  1.00  0.00     0.012 A 
ATOM      7  C   UNL     1     -11.682 -44.491  31.605  1.00  0.00     0.049 A 
ATOM      8  C   UNL     1     -10.900 -46.289  30.204  1.00  0.00     0.049 A 
ATOM      9  C   UNL     1     -10.417 -44.417  32.191  1.00  0.00     0.126 A 
ATOM     10  C   UNL     1      -9.644 -46.193  30.805  1.00  0.00     0.126 A 
ATOM     11  C   UNL     1      -9.392 -45.264  31.802  1.00  0.00     0.078 A 
ATOM     12  F   UNL     1     -10.201 -43.515  33.156  1.00  0.00    -0.207 F 
ATOM     13  F   UNL     1      -8.672 -47.026  30.414  1.00  0.00    -0.207 F 
ENDBRANCH   5   6
ENDBRANCH   2   5
ENDBRANCH   1   2
BRANCH   1  14
ATOM     14  C   UNL     1     -14.526 -43.975  26.870  1.00  0.00     0.279 C 
ATOM     15  N   UNL     1     -15.499 -43.324  27.596  1.00  0.00    -0.321 N 
ATOM     16  O   UNL     1     -14.521 -44.227  25.667  1.00  0.00    -0.268 OA
ATOM     17  H   UNL     1     -15.357 -43.188  28.593  1.00  0.00     0.170 HD
BRANCH  15  18
ATOM     18  C   UNL     1     -16.718 -42.801  27.104  1.00  0.00     0.042 A 
ATOM     19  C   UNL     1     -17.800 -42.436  27.909  1.00  0.00     0.028 A 
ATOM     20  C   UNL     1     -16.828 -42.649  25.719  1.00  0.00     0.042 A 
ATOM     21  C   UNL     1     -18.976 -41.925  27.338  1.00  0.00     0.031 A 
ATOM     22  C   UNL     1     -18.007 -42.136  25.158  1.00  0.00     0.068 A 
ATOM     23  C   UNL     1     -19.094 -41.770  25.958  1.00  0.00     0.078 A 
ATOM     24  C   UNL     1     -18.129 -41.974  23.694  1.00  0.00     0.261 A 
ATOM     25  N   UNL     1     -20.295 -41.263  25.432  1.00  0.00    -0.234 NA
ATOM     26  N   UNL     1     -19.316 -41.423  23.285  1.00  0.00    -0.296 N 
ATOM     27  C   UNL     1     -20.344 -41.115  24.152  1.00  0.00     0.112 A 
ATOM     28  C   UNL     1     -19.700 -41.202  21.914  1.00  0.00     0.128 C 
ATOM     29  C   UNL     1     -21.521 -40.614  23.372  1.00  0.00     0.077 C 
ATOM     30  C   UNL     1     -20.888 -40.261  22.027  1.00  0.00     0.030 C 
ATOM     31  O   UNL     1     -17.221 -42.323  22.948  1.00  0.00    -0.269 OA
ENDBRANCH  15  18
ENDBRANCH   1  14
TORSDOF 5
ENDMDL
