MODEL 1
REMARK VINA RESULT:   -10.802      0.000      0.000
REMARK INTER + INTRA:         -15.808
REMARK INTER:                 -15.223
REMARK INTRA:                  -0.585
REMARK UNBOUND:                -0.585
REMARK SMILES O=C(C[NH2+]CCCc1ccccc1)Nc1ccc2nc3n(c(=O)c2c1)CCC3
REMARK SMILES IDX 4 1 3 4 2 5 14 6 1 7 15 9 16 10 25 11 17 12 24 13 18 14
REMARK SMILES IDX 22 15 19 16 21 17 20 18 26 19 28 20 27 21 23 22 5 23 6 24
REMARK SMILES IDX 7 25 8 26 9 27 13 28 10 29 12 30 11 31
REMARK H PARENT 4 2 4 3 14 8
ROOT
ATOM      1  N   UNL     1     -12.137 -45.873  28.704  1.00  0.00    -0.338 N 
ATOM      2  H   UNL     1     -11.355 -46.521  28.914  1.00  0.00     0.346 HD
ATOM      3  H   UNL     1     -12.744 -46.385  28.053  1.00  0.00     0.346 HD
ENDROOT
BRANCH   1   4
ATOM      4  C   UNL     1     -11.477 -44.678  28.057  1.00  0.00     0.362 C 
BRANCH   4   5
ATOM      5  C   UNL     1     -12.527 -43.790  27.384  1.00  0.00     0.279 C 
ATOM      6  N   UNL     1     -13.555 -44.475  26.773  1.00  0.00    -0.321 N 
ATOM      7  O   UNL     1     -12.365 -42.571  27.444  1.00  0.00    -0.268 OA
ATOM      8  H   UNL     1     -13.529 -45.490  26.767  1.00  0.00     0.170 HD
BRANCH   6   9
ATOM      9  C   UNL     1     -14.665 -43.911  26.101  1.00  0.00     0.042 A 
ATOM     10  C   UNL     1     -14.626 -43.905  24.700  1.00  0.00     0.028 A 
ATOM     11  C   UNL     1     -15.782 -43.377  26.744  1.00  0.00     0.042 A 
ATOM     12  C   UNL     1     -15.683 -43.369  23.954  1.00  0.00     0.031 A 
ATOM     13  C   UNL     1     -16.838 -42.845  25.988  1.00  0.00     0.068 A 
ATOM     14  C   UNL     1     -16.800 -42.832  24.589  1.00  0.00     0.078 A 
ATOM     15  C   UNL     1     -18.031 -42.277  26.659  1.00  0.00     0.261 A 
ATOM     16  N   UNL     1     -17.834 -42.298  23.798  1.00  0.00    -0.234 NA
ATOM     17  N   UNL     1     -19.001 -41.828  25.800  1.00  0.00    -0.296 N 
ATOM     18  C   UNL     1     -18.858 -41.836  24.428  1.00  0.00     0.112 A 
ATOM     19  C   UNL     1     -20.230 -41.194  26.199  1.00  0.00     0.128 C 
ATOM     20  C   UNL     1     -20.062 -41.203  23.799  1.00  0.00     0.077 C 
ATOM     21  C   UNL     1     -21.077 -41.244  24.937  1.00  0.00     0.030 C 
ATOM     22  O   UNL     1     -18.105 -42.227  27.881  1.00  0.00    -0.269 OA
ENDBRANCH   6   9
ENDBRANCH   4   5
ENDBRANCH   1   4
BRANCH   1  23
ATOM     23  C   UNL     1     -12.825 -45.646  30.006  1.00  0.00     0.261 C 
BRANCH  23  24
ATOM     24  C   UNL     1     -11.996 -46.091  31.213  1.00  0.00     0.066 C 
BRANCH  24  25
ATOM     25  C   UNL     1     -10.509 -46.367  30.958  1.00  0.00     0.041 C 
BRANCH  25  26
ATOM     26  C   UNL     1      -9.564 -45.375  31.583  1.00  0.00    -0.048 A 
ATOM     27  C   UNL     1     -10.061 -44.199  32.165  1.00  0.00     0.004 A 
ATOM     28  C   UNL     1      -8.178 -45.586  31.568  1.00  0.00     0.004 A 
ATOM     29  C   UNL     1      -9.195 -43.281  32.761  1.00  0.00     0.000 A 
ATOM     30  C   UNL     1      -7.314 -44.667  32.166  1.00  0.00     0.000 A 
ATOM     31  C   UNL     1      -7.824 -43.520  32.769  1.00  0.00     0.000 A 
ENDBRANCH  25  26
ENDBRANCH  24  25
ENDBRANCH  23  24
ENDBRANCH   1  23
TORSDOF 7
ENDMDL
MODEL 2
REMARK VINA RESULT:   -10.740      1.617      2.555
REMARK INTER + INTRA:         -15.719
REMARK INTER:                 -15.320
REMARK INTRA:                  -0.399
REMARK UNBOUND:                -0.585
REMARK SMILES O=C(C[NH2+]CCCc1ccccc1)Nc1ccc2nc3n(c(=O)c2c1)CCC3
REMARK SMILES IDX 4 1 3 4 2 5 14 6 1 7 15 9 16 10 25 11 17 12 24 13 18 14
REMARK SMILES IDX 22 15 19 16 21 17 20 18 26 19 28 20 27 21 23 22 5 23 6 24
REMARK SMILES IDX 7 25 8 26 9 27 13 28 10 29 12 30 11 31
REMARK H PARENT 4 2 4 3 14 8
ROOT
ATOM      1  N   UNL     1     -12.871 -44.470  29.178  1.00  0.00    -0.338 N 
ATOM      2  H   UNL     1     -13.811 -44.066  29.348  1.00  0.00     0.346 HD
ATOM      3  H   UNL     1     -12.230 -43.912  29.755  1.00  0.00     0.346 HD
ENDROOT
BRANCH   1   4
ATOM      4  C   UNL     1     -12.634 -44.274  27.699  1.00  0.00     0.362 C 
BRANCH   4   5
ATOM      5  C   UNL     1     -13.968 -44.156  26.958  1.00  0.00     0.279 C 
ATOM      6  N   UNL     1     -14.802 -43.163  27.427  1.00  0.00    -0.321 N 
ATOM      7  O   UNL     1     -14.177 -44.938  26.032  1.00  0.00    -0.268 OA
ATOM      8  H   UNL     1     -14.510 -42.622  28.235  1.00  0.00     0.170 HD
BRANCH   6   9
ATOM      9  C   UNL     1     -16.076 -42.818  26.918  1.00  0.00     0.042 A 
ATOM     10  C   UNL     1     -17.073 -42.508  27.854  1.00  0.00     0.028 A 
ATOM     11  C   UNL     1     -16.389 -42.763  25.560  1.00  0.00     0.042 A 
ATOM     12  C   UNL     1     -18.363 -42.154  27.439  1.00  0.00     0.031 A 
ATOM     13  C   UNL     1     -17.683 -42.404  25.153  1.00  0.00     0.068 A 
ATOM     14  C   UNL     1     -18.683 -42.098  26.084  1.00  0.00     0.078 A 
ATOM     15  C   UNL     1     -18.028 -42.339  23.714  1.00  0.00     0.261 A 
ATOM     16  N   UNL     1     -19.994 -41.744  25.716  1.00  0.00    -0.234 NA
ATOM     17  N   UNL     1     -19.314 -41.937  23.459  1.00  0.00    -0.296 N 
ATOM     18  C   UNL     1     -20.237 -41.681  24.452  1.00  0.00     0.112 A 
ATOM     19  C   UNL     1     -19.906 -41.838  22.150  1.00  0.00     0.128 C 
ATOM     20  C   UNL     1     -21.558 -41.349  23.829  1.00  0.00     0.077 C 
ATOM     21  C   UNL     1     -21.162 -41.016  22.393  1.00  0.00     0.030 C 
ATOM     22  O   UNL     1     -17.206 -42.630  22.853  1.00  0.00    -0.269 OA
ENDBRANCH   6   9
ENDBRANCH   4   5
ENDBRANCH   1   4
BRANCH   1  23
ATOM     23  C   UNL     1     -12.946 -45.874  29.674  1.00  0.00     0.261 C 
BRANCH  23  24
ATOM     24  C   UNL     1     -12.408 -46.041  31.096  1.00  0.00     0.066 C 
BRANCH  24  25
ATOM     25  C   UNL     1     -11.649 -44.846  31.688  1.00  0.00     0.041 C 
BRANCH  25  26
ATOM     26  C   UNL     1     -10.151 -44.999  31.721  1.00  0.00    -0.048 A 
ATOM     27  C   UNL     1      -9.558 -46.207  31.322  1.00  0.00     0.004 A 
ATOM     28  C   UNL     1      -9.327 -43.961  32.177  1.00  0.00     0.004 A 
ATOM     29  C   UNL     1      -8.170 -46.353  31.334  1.00  0.00     0.000 A 
ATOM     30  C   UNL     1      -7.939 -44.110  32.186  1.00  0.00     0.000 A 
ATOM     31  C   UNL     1      -7.361 -45.302  31.757  1.00  0.00     0.000 A 
ENDBRANCH  25  26
ENDBRANCH  24  25
ENDBRANCH  23  24
ENDBRANCH   1  23
TORSDOF 7
ENDMDL
MODEL 3
REMARK VINA RESULT:   -10.684      1.000      1.370
REMARK INTER + INTRA:         -15.641
REMARK INTER:                 -15.079
REMARK INTRA:                  -0.562
REMARK UNBOUND:                -0.585
REMARK SMILES O=C(C[NH2+]CCCc1ccccc1)Nc1ccc2nc3n(c(=O)c2c1)CCC3
REMARK SMILES IDX 4 1 3 4 2 5 14 6 1 7 15 9 16 10 25 11 17 12 24 13 18 14
REMARK SMILES IDX 22 15 19 16 21 17 20 18 26 19 28 20 27 21 23 22 5 23 6 24
REMARK SMILES IDX 7 25 8 26 9 27 13 28 10 29 12 30 11 31
REMARK H PARENT 4 2 4 3 14 8
ROOT
ATOM      1  N   UNL     1     -12.231 -45.976  28.910  1.00  0.00    -0.338 N 
ATOM      2  H   UNL     1     -11.239 -46.190  29.123  1.00  0.00     0.346 HD
ATOM      3  H   UNL     1     -12.557 -46.762  28.334  1.00  0.00     0.346 HD
ENDROOT
BRANCH   1   4
ATOM      4  C   UNL     1     -12.183 -44.678  28.139  1.00  0.00     0.362 C 
BRANCH   4   5
ATOM      5  C   UNL     1     -13.341 -44.609  27.140  1.00  0.00     0.279 C 
ATOM      6  N   UNL     1     -13.877 -43.352  26.965  1.00  0.00    -0.321 N 
ATOM      7  O   UNL     1     -13.685 -45.657  26.595  1.00  0.00    -0.268 OA
ATOM      8  H   UNL     1     -13.515 -42.585  27.523  1.00  0.00     0.170 HD
BRANCH   6   9
ATOM      9  C   UNL     1     -14.931 -42.996  26.091  1.00  0.00     0.042 A 
ATOM     10  C   UNL     1     -14.629 -42.923  24.724  1.00  0.00     0.028 A 
ATOM     11  C   UNL     1     -16.235 -42.723  26.506  1.00  0.00     0.042 A 
ATOM     12  C   UNL     1     -15.612 -42.580  23.788  1.00  0.00     0.031 A 
ATOM     13  C   UNL     1     -17.214 -42.383  25.560  1.00  0.00     0.068 A 
ATOM     14  C   UNL     1     -16.916 -42.306  24.195  1.00  0.00     0.078 A 
ATOM     15  C   UNL     1     -18.604 -42.095  25.988  1.00  0.00     0.261 A 
ATOM     16  N   UNL     1     -17.868 -41.958  23.219  1.00  0.00    -0.234 NA
ATOM     17  N   UNL     1     -19.465 -41.815  24.957  1.00  0.00    -0.296 N 
ATOM     18  C   UNL     1     -19.066 -41.737  23.639  1.00  0.00     0.112 A 
ATOM     19  C   UNL     1     -20.850 -41.457  25.111  1.00  0.00     0.128 C 
ATOM     20  C   UNL     1     -20.232 -41.333  22.790  1.00  0.00     0.077 C 
ATOM     21  C   UNL     1     -21.415 -41.624  23.709  1.00  0.00     0.030 C 
ATOM     22  O   UNL     1     -18.918 -42.111  27.172  1.00  0.00    -0.269 OA
ENDBRANCH   6   9
ENDBRANCH   4   5
ENDBRANCH   1   4
BRANCH   1  23
ATOM     23  C   UNL     1     -12.926 -45.960  30.228  1.00  0.00     0.261 C 
BRANCH  23  24
ATOM     24  C   UNL     1     -11.964 -45.961  31.418  1.00  0.00     0.066 C 
BRANCH  24  25
ATOM     25  C   UNL     1     -10.539 -46.460  31.146  1.00  0.00     0.041 C 
BRANCH  25  26
ATOM     26  C   UNL     1      -9.445 -45.540  31.621  1.00  0.00    -0.048 A 
ATOM     27  C   UNL     1      -8.105 -45.953  31.569  1.00  0.00     0.004 A 
ATOM     28  C   UNL     1      -9.741 -44.276  32.152  1.00  0.00     0.004 A 
ATOM     29  C   UNL     1      -7.083 -45.102  31.992  1.00  0.00     0.000 A 
ATOM     30  C   UNL     1      -8.716 -43.426  32.572  1.00  0.00     0.000 A 
ATOM     31  C   UNL     1      -7.388 -43.836  32.484  1.00  0.00     0.000 A 
ENDBRANCH  25  26
ENDBRANCH  24  25
ENDBRANCH  23  24
ENDBRANCH   1  23
TORSDOF 7
ENDMDL
MODEL 4
REMARK VINA RESULT:   -10.455      1.305      1.726
REMARK INTER + INTRA:         -15.318
REMARK INTER:                 -15.270
REMARK INTRA:                  -0.048
REMARK UNBOUND:                -0.585
REMARK SMILES O=C(C[NH2+]CCCc1ccccc1)Nc1ccc2nc3n(c(=O)c2c1)CCC3
REMARK SMILES IDX 4 1 3 4 2 5 14 6 1 7 15 9 16 10 25 11 17 12 24 13 18 14
REMARK SMILES IDX 22 15 19 16 21 17 20 18 26 19 28 20 27 21 23 22 5 23 6 24
REMARK SMILES IDX 7 25 8 26 9 27 13 28 10 29 12 30 11 31
REMARK H PARENT 4 2 4 3 14 8
ROOT
ATOM      1  N   UNL     1     -12.515 -43.967  28.342  1.00  0.00    -0.338 N 
ATOM      2  H   UNL     1     -13.173 -43.917  29.143  1.00  0.00     0.346 HD
ATOM      3  H   UNL     1     -12.309 -42.990  28.101  1.00  0.00     0.346 HD
ENDROOT
BRANCH   1   4
ATOM      4  C   UNL     1     -13.291 -44.676  27.257  1.00  0.00     0.362 C 
BRANCH   4   5
ATOM      5  C   UNL     1     -14.587 -43.922  26.950  1.00  0.00     0.279 C 
ATOM      6  N   UNL     1     -14.886 -43.811  25.609  1.00  0.00    -0.321 N 
ATOM      7  O   UNL     1     -15.234 -43.489  27.903  1.00  0.00    -0.268 OA
ATOM      8  H   UNL     1     -14.227 -44.183  24.930  1.00  0.00     0.170 HD
BRANCH   6   9
ATOM      9  C   UNL     1     -16.024 -43.190  25.044  1.00  0.00     0.042 A 
ATOM     10  C   UNL     1     -16.022 -42.998  23.655  1.00  0.00     0.028 A 
ATOM     11  C   UNL     1     -17.134 -42.772  25.778  1.00  0.00     0.042 A 
ATOM     12  C   UNL     1     -17.108 -42.393  23.011  1.00  0.00     0.031 A 
ATOM     13  C   UNL     1     -18.220 -42.170  25.124  1.00  0.00     0.068 A 
ATOM     14  C   UNL     1     -18.220 -41.972  23.738  1.00  0.00     0.078 A 
ATOM     15  C   UNL     1     -19.406 -41.724  25.891  1.00  0.00     0.261 A 
ATOM     16  N   UNL     1     -19.284 -41.362  23.049  1.00  0.00    -0.234 NA
ATOM     17  N   UNL     1     -20.408 -41.189  25.122  1.00  0.00    -0.296 N 
ATOM     18  C   UNL     1     -20.301 -41.012  23.758  1.00  0.00     0.112 A 
ATOM     19  C   UNL     1     -21.639 -40.642  25.630  1.00  0.00     0.128 C 
ATOM     20  C   UNL     1     -21.533 -40.330  23.248  1.00  0.00     0.077 C 
ATOM     21  C   UNL     1     -22.518 -40.545  24.393  1.00  0.00     0.030 C 
ATOM     22  O   UNL     1     -19.450 -41.837  27.111  1.00  0.00    -0.269 OA
ENDBRANCH   6   9
ENDBRANCH   4   5
ENDBRANCH   1   4
BRANCH   1  23
ATOM     23  C   UNL     1     -11.300 -44.652  28.867  1.00  0.00     0.261 C 
BRANCH  23  24
ATOM     24  C   UNL     1     -11.610 -45.974  29.573  1.00  0.00     0.066 C 
BRANCH  24  25
ATOM     25  C   UNL     1     -11.267 -46.050  31.067  1.00  0.00     0.041 C 
BRANCH  25  26
ATOM     26  C   UNL     1      -9.901 -45.532  31.431  1.00  0.00    -0.048 A 
ATOM     27  C   UNL     1      -9.768 -44.313  32.112  1.00  0.00     0.004 A 
ATOM     28  C   UNL     1      -8.741 -46.234  31.071  1.00  0.00     0.004 A 
ATOM     29  C   UNL     1      -8.507 -43.832  32.468  1.00  0.00     0.000 A 
ATOM     30  C   UNL     1      -7.481 -45.752  31.430  1.00  0.00     0.000 A 
ATOM     31  C   UNL     1      -7.365 -44.556  32.135  1.00  0.00     0.000 A 
ENDBRANCH  25  26
ENDBRANCH  24  25
ENDBRANCH  23  24
ENDBRANCH   1  23
TORSDOF 7
ENDMDL
MODEL 5
REMARK VINA RESULT:   -10.410      2.043      9.751
REMARK INTER + INTRA:         -15.254
REMARK INTER:                 -14.909
REMARK INTRA:                  -0.345
REMARK UNBOUND:                -0.585
REMARK SMILES O=C(C[NH2+]CCCc1ccccc1)Nc1ccc2nc3n(c(=O)c2c1)CCC3
REMARK SMILES IDX 4 1 3 4 2 5 14 6 1 7 15 9 16 10 25 11 17 12 24 13 18 14
REMARK SMILES IDX 22 15 19 16 21 17 20 18 26 19 28 20 27 21 23 22 5 23 6 24
REMARK SMILES IDX 7 25 8 26 9 27 13 28 10 29 12 30 11 31
REMARK H PARENT 4 2 4 3 14 8
ROOT
ATOM      1  N   UNL     1     -16.310 -42.201  22.851  1.00  0.00    -0.338 N 
ATOM      2  H   UNL     1     -17.033 -42.556  23.505  1.00  0.00     0.346 HD
ATOM      3  H   UNL     1     -16.009 -43.022  22.311  1.00  0.00     0.346 HD
ENDROOT
BRANCH   1   4
ATOM      4  C   UNL     1     -15.216 -41.667  23.745  1.00  0.00     0.362 C 
BRANCH   4   5
ATOM      5  C   UNL     1     -14.530 -42.814  24.490  1.00  0.00     0.279 C 
ATOM      6  N   UNL     1     -14.070 -42.491  25.749  1.00  0.00    -0.321 N 
ATOM      7  O   UNL     1     -14.449 -43.899  23.915  1.00  0.00    -0.268 OA
ATOM      8  H   UNL     1     -14.170 -41.534  26.074  1.00  0.00     0.170 HD
BRANCH   6   9
ATOM      9  C   UNL     1     -13.423 -43.357  26.661  1.00  0.00     0.042 A 
ATOM     10  C   UNL     1     -14.016 -44.609  26.881  1.00  0.00     0.028 A 
ATOM     11  C   UNL     1     -12.245 -43.043  27.339  1.00  0.00     0.042 A 
ATOM     12  C   UNL     1     -13.442 -45.530  27.767  1.00  0.00     0.031 A 
ATOM     13  C   UNL     1     -11.676 -43.974  28.222  1.00  0.00     0.068 A 
ATOM     14  C   UNL     1     -12.266 -45.222  28.448  1.00  0.00     0.078 A 
ATOM     15  C   UNL     1     -10.423 -43.654  28.946  1.00  0.00     0.261 A 
ATOM     16  N   UNL     1     -11.732 -46.177  29.333  1.00  0.00    -0.234 NA
ATOM     17  N   UNL     1      -9.959 -44.668  29.745  1.00  0.00    -0.296 N 
ATOM     18  C   UNL     1     -10.630 -45.859  29.922  1.00  0.00     0.112 A 
ATOM     19  C   UNL     1      -8.792 -44.590  30.584  1.00  0.00     0.128 C 
ATOM     20  C   UNL     1      -9.894 -46.702  30.917  1.00  0.00     0.077 C 
ATOM     21  C   UNL     1      -8.518 -46.043  30.941  1.00  0.00     0.030 C 
ATOM     22  O   UNL     1      -9.879 -42.563  28.818  1.00  0.00    -0.269 OA
ENDBRANCH   6   9
ENDBRANCH   4   5
ENDBRANCH   1   4
BRANCH   1  23
ATOM     23  C   UNL     1     -17.014 -41.220  21.977  1.00  0.00     0.261 C 
BRANCH  23  24
ATOM     24  C   UNL     1     -18.404 -40.841  22.492  1.00  0.00     0.066 C 
BRANCH  24  25
ATOM     25  C   UNL     1     -19.231 -41.968  23.125  1.00  0.00     0.041 C 
BRANCH  25  26
ATOM     26  C   UNL     1     -19.371 -41.886  24.623  1.00  0.00    -0.048 A 
ATOM     27  C   UNL     1     -18.363 -42.399  25.454  1.00  0.00     0.004 A 
ATOM     28  C   UNL     1     -20.515 -41.331  25.214  1.00  0.00     0.004 A 
ATOM     29  C   UNL     1     -18.476 -42.313  26.842  1.00  0.00     0.000 A 
ATOM     30  C   UNL     1     -20.624 -41.245  26.603  1.00  0.00     0.000 A 
ATOM     31  C   UNL     1     -19.602 -41.728  27.415  1.00  0.00     0.000 A 
ENDBRANCH  25  26
ENDBRANCH  24  25
ENDBRANCH  23  24
ENDBRANCH   1  23
TORSDOF 7
ENDMDL
MODEL 6
REMARK VINA RESULT:   -10.252      1.223      1.642
REMARK INTER + INTRA:         -15.033
REMARK INTER:                 -14.702
REMARK INTRA:                  -0.331
REMARK UNBOUND:                -0.585
REMARK SMILES O=C(C[NH2+]CCCc1ccccc1)Nc1ccc2nc3n(c(=O)c2c1)CCC3
REMARK SMILES IDX 4 1 3 4 2 5 14 6 1 7 15 9 16 10 25 11 17 12 24 13 18 14
REMARK SMILES IDX 22 15 19 16 21 17 20 18 26 19 28 20 27 21 23 22 5 23 6 24
REMARK SMILES IDX 7 25 8 26 9 27 13 28 10 29 12 30 11 31
REMARK H PARENT 4 2 4 3 14 8
ROOT
ATOM      1  N   UNL     1     -11.042 -43.460  28.707  1.00  0.00    -0.338 N 
ATOM      2  H   UNL     1     -11.694 -42.797  28.247  1.00  0.00     0.346 HD
ATOM      3  H   UNL     1     -10.268 -43.581  28.042  1.00  0.00     0.346 HD
ENDROOT
BRANCH   1   4
ATOM      4  C   UNL     1     -11.850 -44.724  28.887  1.00  0.00     0.362 C 
BRANCH   4   5
ATOM      5  C   UNL     1     -13.208 -44.590  28.195  1.00  0.00     0.279 C 
ATOM      6  N   UNL     1     -13.267 -43.613  27.224  1.00  0.00    -0.321 N 
ATOM      7  O   UNL     1     -14.109 -45.346  28.556  1.00  0.00    -0.268 OA
ATOM      8  H   UNL     1     -12.448 -43.032  27.067  1.00  0.00     0.170 HD
BRANCH   6   9
ATOM      9  C   UNL     1     -14.381 -43.289  26.415  1.00  0.00     0.042 A 
ATOM     10  C   UNL     1     -14.198 -43.349  25.026  1.00  0.00     0.028 A 
ATOM     11  C   UNL     1     -15.633 -42.928  26.913  1.00  0.00     0.042 A 
ATOM     12  C   UNL     1     -15.248 -43.047  24.150  1.00  0.00     0.031 A 
ATOM     13  C   UNL     1     -16.680 -42.629  26.027  1.00  0.00     0.068 A 
ATOM     14  C   UNL     1     -16.501 -42.683  24.640  1.00  0.00     0.078 A 
ATOM     15  C   UNL     1     -18.015 -42.247  26.543  1.00  0.00     0.261 A 
ATOM     16  N   UNL     1     -17.522 -42.382  23.721  1.00  0.00    -0.234 NA
ATOM     17  N   UNL     1     -18.953 -42.021  25.568  1.00  0.00    -0.296 N 
ATOM     18  C   UNL     1     -18.670 -42.075  24.220  1.00  0.00     0.112 A 
ATOM     19  C   UNL     1     -20.307 -41.594  25.807  1.00  0.00     0.128 C 
ATOM     20  C   UNL     1     -19.892 -41.697  23.440  1.00  0.00     0.077 C 
ATOM     21  C   UNL     1     -20.998 -41.857  24.478  1.00  0.00     0.030 C 
ATOM     22  O   UNL     1     -18.224 -42.147  27.747  1.00  0.00    -0.269 OA
ENDBRANCH   6   9
ENDBRANCH   4   5
ENDBRANCH   1   4
BRANCH   1  23
ATOM     23  C   UNL     1     -10.578 -42.768  29.942  1.00  0.00     0.261 C 
BRANCH  23  24
ATOM     24  C   UNL     1     -11.513 -42.970  31.135  1.00  0.00     0.066 C 
BRANCH  24  25
ATOM     25  C   UNL     1     -11.073 -43.997  32.187  1.00  0.00     0.041 C 
BRANCH  25  26
ATOM     26  C   UNL     1      -9.659 -44.494  32.034  1.00  0.00    -0.048 A 
ATOM     27  C   UNL     1      -8.582 -43.683  32.422  1.00  0.00     0.004 A 
ATOM     28  C   UNL     1      -9.390 -45.751  31.475  1.00  0.00     0.004 A 
ATOM     29  C   UNL     1      -7.269 -44.141  32.300  1.00  0.00     0.000 A 
ATOM     30  C   UNL     1      -8.076 -46.207  31.355  1.00  0.00     0.000 A 
ATOM     31  C   UNL     1      -7.018 -45.405  31.775  1.00  0.00     0.000 A 
ENDBRANCH  25  26
ENDBRANCH  24  25
ENDBRANCH  23  24
ENDBRANCH   1  23
TORSDOF 7
ENDMDL
MODEL 7
REMARK VINA RESULT:   -10.147      3.328      5.410
REMARK INTER + INTRA:         -14.884
REMARK INTER:                 -14.711
REMARK INTRA:                  -0.172
REMARK UNBOUND:                -0.585
REMARK SMILES O=C(C[NH2+]CCCc1ccccc1)Nc1ccc2nc3n(c(=O)c2c1)CCC3
REMARK SMILES IDX 4 1 3 4 2 5 14 6 1 7 15 9 16 10 25 11 17 12 24 13 18 14
REMARK SMILES IDX 22 15 19 16 21 17 20 18 26 19 28 20 27 21 23 22 5 23 6 24
REMARK SMILES IDX 7 25 8 26 9 27 13 28 10 29 12 30 11 31
REMARK H PARENT 4 2 4 3 14 8
ROOT
ATOM      1  N   UNL     1     -14.778 -43.170  25.591  1.00  0.00    -0.338 N 
ATOM      2  H   UNL     1     -15.546 -42.540  25.890  1.00  0.00     0.346 HD
ATOM      3  H   UNL     1     -13.925 -42.598  25.644  1.00  0.00     0.346 HD
ENDROOT
BRANCH   1   4
ATOM      4  C   UNL     1     -15.129 -43.552  24.173  1.00  0.00     0.362 C 
BRANCH   4   5
ATOM      5  C   UNL     1     -16.084 -42.522  23.565  1.00  0.00     0.279 C 
ATOM      6  N   UNL     1     -17.408 -42.691  23.909  1.00  0.00    -0.321 N 
ATOM      7  O   UNL     1     -15.600 -41.655  22.838  1.00  0.00    -0.268 OA
ATOM      8  H   UNL     1     -17.664 -43.487  24.486  1.00  0.00     0.170 HD
BRANCH   6   9
ATOM      9  C   UNL     1     -18.495 -41.877  23.513  1.00  0.00     0.042 A 
ATOM     10  C   UNL     1     -19.509 -41.665  24.459  1.00  0.00     0.028 A 
ATOM     11  C   UNL     1     -18.610 -41.278  22.259  1.00  0.00     0.042 A 
ATOM     12  C   UNL     1     -20.621 -40.871  24.153  1.00  0.00     0.031 A 
ATOM     13  C   UNL     1     -19.727 -40.481  21.963  1.00  0.00     0.068 A 
ATOM     14  C   UNL     1     -20.744 -40.270  22.901  1.00  0.00     0.078 A 
ATOM     15  C   UNL     1     -19.860 -39.837  20.635  1.00  0.00     0.261 A 
ATOM     16  N   UNL     1     -21.883 -39.488  22.638  1.00  0.00    -0.234 NA
ATOM     17  N   UNL     1     -20.979 -39.056  20.496  1.00  0.00    -0.296 N 
ATOM     18  C   UNL     1     -21.941 -38.932  21.477  1.00  0.00     0.112 A 
ATOM     19  C   UNL     1     -21.360 -38.364  19.293  1.00  0.00     0.128 C 
ATOM     20  C   UNL     1     -23.062 -38.078  20.969  1.00  0.00     0.077 C 
ATOM     21  C   UNL     1     -22.420 -37.384  19.772  1.00  0.00     0.030 C 
ATOM     22  O   UNL     1     -19.021 -40.013  19.759  1.00  0.00    -0.269 OA
ENDBRANCH   6   9
ENDBRANCH   4   5
ENDBRANCH   1   4
BRANCH   1  23
ATOM     23  C   UNL     1     -14.746 -44.264  26.602  1.00  0.00     0.261 C 
BRANCH  23  24
ATOM     24  C   UNL     1     -13.417 -44.355  27.353  1.00  0.00     0.066 C 
BRANCH  24  25
ATOM     25  C   UNL     1     -12.776 -45.746  27.448  1.00  0.00     0.041 C 
BRANCH  25  26
ATOM     26  C   UNL     1     -11.935 -45.973  28.677  1.00  0.00    -0.048 A 
ATOM     27  C   UNL     1     -10.584 -46.329  28.550  1.00  0.00     0.004 A 
ATOM     28  C   UNL     1     -12.487 -45.869  29.962  1.00  0.00     0.004 A 
ATOM     29  C   UNL     1      -9.792 -46.526  29.682  1.00  0.00     0.000 A 
ATOM     30  C   UNL     1     -11.693 -46.066  31.093  1.00  0.00     0.000 A 
ATOM     31  C   UNL     1     -10.345 -46.386  30.952  1.00  0.00     0.000 A 
ENDBRANCH  25  26
ENDBRANCH  24  25
ENDBRANCH  23  24
ENDBRANCH   1  23
TORSDOF 7
ENDMDL
MODEL 8
REMARK VINA RESULT:   -10.135      2.049      2.849
REMARK INTER + INTRA:         -14.867
REMARK INTER:                 -14.164
REMARK INTRA:                  -0.704
REMARK UNBOUND:                -0.585
REMARK SMILES O=C(C[NH2+]CCCc1ccccc1)Nc1ccc2nc3n(c(=O)c2c1)CCC3
REMARK SMILES IDX 4 1 3 4 2 5 14 6 1 7 15 9 16 10 25 11 17 12 24 13 18 14
REMARK SMILES IDX 22 15 19 16 21 17 20 18 26 19 28 20 27 21 23 22 5 23 6 24
REMARK SMILES IDX 7 25 8 26 9 27 13 28 10 29 12 30 11 31
REMARK H PARENT 4 2 4 3 14 8
ROOT
ATOM      1  N   UNL     1     -13.560 -44.738  31.048  1.00  0.00    -0.338 N 
ATOM      2  H   UNL     1     -14.221 -45.233  31.677  1.00  0.00     0.346 HD
ATOM      3  H   UNL     1     -14.130 -44.038  30.557  1.00  0.00     0.346 HD
ENDROOT
BRANCH   1   4
ATOM      4  C   UNL     1     -13.042 -45.812  30.121  1.00  0.00     0.362 C 
BRANCH   4   5
ATOM      5  C   UNL     1     -13.388 -45.474  28.669  1.00  0.00     0.279 C 
ATOM      6  N   UNL     1     -14.109 -44.311  28.504  1.00  0.00    -0.321 N 
ATOM      7  O   UNL     1     -13.005 -46.252  27.796  1.00  0.00    -0.268 OA
ATOM      8  H   UNL     1     -14.394 -43.793  29.329  1.00  0.00     0.170 HD
BRANCH   6   9
ATOM      9  C   UNL     1     -14.540 -43.749  27.279  1.00  0.00     0.042 A 
ATOM     10  C   UNL     1     -13.569 -43.568  26.284  1.00  0.00     0.028 A 
ATOM     11  C   UNL     1     -15.857 -43.378  27.009  1.00  0.00     0.042 A 
ATOM     12  C   UNL     1     -13.908 -43.020  25.041  1.00  0.00     0.031 A 
ATOM     13  C   UNL     1     -16.188 -42.832  25.758  1.00  0.00     0.068 A 
ATOM     14  C   UNL     1     -15.222 -42.646  24.764  1.00  0.00     0.078 A 
ATOM     15  C   UNL     1     -17.584 -42.436  25.457  1.00  0.00     0.261 A 
ATOM     16  N   UNL     1     -15.513 -42.093  23.503  1.00  0.00    -0.234 NA
ATOM     17  N   UNL     1     -17.772 -41.955  24.186  1.00  0.00    -0.296 N 
ATOM     18  C   UNL     1     -16.745 -41.785  23.283  1.00  0.00     0.112 A 
ATOM     19  C   UNL     1     -19.020 -41.463  23.665  1.00  0.00     0.128 C 
ATOM     20  C   UNL     1     -17.282 -41.165  22.029  1.00  0.00     0.077 C 
ATOM     21  C   UNL     1     -18.782 -41.417  22.164  1.00  0.00     0.030 C 
ATOM     22  O   UNL     1     -18.468 -42.542  26.300  1.00  0.00    -0.269 OA
ENDBRANCH   6   9
ENDBRANCH   4   5
ENDBRANCH   1   4
BRANCH   1  23
ATOM     23  C   UNL     1     -12.571 -44.082  31.948  1.00  0.00     0.261 C 
BRANCH  23  24
ATOM     24  C   UNL     1     -11.153 -44.636  31.794  1.00  0.00     0.066 C 
BRANCH  24  25
ATOM     25  C   UNL     1     -10.034 -43.608  31.585  1.00  0.00     0.041 C 
BRANCH  25  26
ATOM     26  C   UNL     1      -9.853 -43.149  30.162  1.00  0.00    -0.048 A 
ATOM     27  C   UNL     1     -10.966 -42.763  29.400  1.00  0.00     0.004 A 
ATOM     28  C   UNL     1      -8.586 -43.129  29.563  1.00  0.00     0.004 A 
ATOM     29  C   UNL     1     -10.807 -42.320  28.086  1.00  0.00     0.000 A 
ATOM     30  C   UNL     1      -8.430 -42.684  28.249  1.00  0.00     0.000 A 
ATOM     31  C   UNL     1      -9.539 -42.273  27.514  1.00  0.00     0.000 A 
ENDBRANCH  25  26
ENDBRANCH  24  25
ENDBRANCH  23  24
ENDBRANCH   1  23
TORSDOF 7
ENDMDL
MODEL 9
REMARK VINA RESULT:   -10.035      1.712     10.346
REMARK INTER + INTRA:         -14.726
REMARK INTER:                 -14.596
REMARK INTRA:                  -0.130
REMARK UNBOUND:                -0.585
REMARK SMILES O=C(C[NH2+]CCCc1ccccc1)Nc1ccc2nc3n(c(=O)c2c1)CCC3
REMARK SMILES IDX 4 1 3 4 2 5 14 6 1 7 15 9 16 10 25 11 17 12 24 13 18 14
REMARK SMILES IDX 22 15 19 16 21 17 20 18 26 19 28 20 27 21 23 22 5 23 6 24
REMARK SMILES IDX 7 25 8 26 9 27 13 28 10 29 12 30 11 31
REMARK H PARENT 4 2 4 3 14 8
ROOT
ATOM      1  N   UNL     1     -17.172 -43.117  25.199  1.00  0.00    -0.338 N 
ATOM      2  H   UNL     1     -17.088 -44.100  25.519  1.00  0.00     0.346 HD
ATOM      3  H   UNL     1     -17.839 -43.144  24.418  1.00  0.00     0.346 HD
ENDROOT
BRANCH   1   4
ATOM      4  C   UNL     1     -15.778 -42.742  24.753  1.00  0.00     0.362 C 
BRANCH   4   5
ATOM      5  C   UNL     1     -14.782 -42.937  25.899  1.00  0.00     0.279 C 
ATOM      6  N   UNL     1     -14.275 -44.214  26.011  1.00  0.00    -0.321 N 
ATOM      7  O   UNL     1     -14.528 -41.961  26.604  1.00  0.00    -0.268 OA
ATOM      8  H   UNL     1     -14.616 -44.931  25.378  1.00  0.00     0.170 HD
BRANCH   6   9
ATOM      9  C   UNL     1     -13.326 -44.667  26.957  1.00  0.00     0.042 A 
ATOM     10  C   UNL     1     -13.072 -46.045  26.994  1.00  0.00     0.028 A 
ATOM     11  C   UNL     1     -12.636 -43.832  27.836  1.00  0.00     0.042 A 
ATOM     12  C   UNL     1     -12.146 -46.581  27.898  1.00  0.00     0.031 A 
ATOM     13  C   UNL     1     -11.708 -44.378  28.737  1.00  0.00     0.068 A 
ATOM     14  C   UNL     1     -11.454 -45.754  28.780  1.00  0.00     0.078 A 
ATOM     15  C   UNL     1     -10.966 -43.502  29.674  1.00  0.00     0.261 A 
ATOM     16  N   UNL     1     -10.539 -46.339  29.675  1.00  0.00    -0.234 NA
ATOM     17  N   UNL     1     -10.064 -44.163  30.469  1.00  0.00    -0.296 N 
ATOM     18  C   UNL     1      -9.904 -45.532  30.454  1.00  0.00     0.112 A 
ATOM     19  C   UNL     1      -9.256 -43.548  31.489  1.00  0.00     0.128 C 
ATOM     20  C   UNL     1      -8.905 -45.928  31.498  1.00  0.00     0.077 C 
ATOM     21  C   UNL     1      -8.203 -44.604  31.789  1.00  0.00     0.030 C 
ATOM     22  O   UNL     1     -11.171 -42.295  29.708  1.00  0.00    -0.269 OA
ENDBRANCH   6   9
ENDBRANCH   4   5
ENDBRANCH   1   4
BRANCH   1  23
ATOM     23  C   UNL     1     -17.739 -42.369  26.357  1.00  0.00     0.261 C 
BRANCH  23  24
ATOM     24  C   UNL     1     -19.137 -41.810  26.088  1.00  0.00     0.066 C 
BRANCH  24  25
ATOM     25  C   UNL     1     -19.842 -42.306  24.818  1.00  0.00     0.041 C 
BRANCH  25  26
ATOM     26  C   UNL     1     -19.935 -41.292  23.708  1.00  0.00    -0.048 A 
ATOM     27  C   UNL     1     -21.069 -40.473  23.596  1.00  0.00     0.004 A 
ATOM     28  C   UNL     1     -18.916 -41.169  22.753  1.00  0.00     0.004 A 
ATOM     29  C   UNL     1     -21.158 -39.520  22.581  1.00  0.00     0.000 A 
ATOM     30  C   UNL     1     -19.007 -40.213  21.739  1.00  0.00     0.000 A 
ATOM     31  C   UNL     1     -20.123 -39.384  21.659  1.00  0.00     0.000 A 
ENDBRANCH  25  26
ENDBRANCH  24  25
ENDBRANCH  23  24
ENDBRANCH   1  23
TORSDOF 7
ENDMDL
