MODEL 1
REMARK VINA RESULT:   -11.574      0.000      0.000
REMARK INTER + INTRA:         -16.226
REMARK INTER:                 -15.633
REMARK INTRA:                  -0.593
REMARK UNBOUND:                -0.593
REMARK SMILES COc1cc2c(cc1OC)C(=O)[C@H](C[C@H]1CC[N@@H+](Cc3ccccc3)CC1)C2
REMARK SMILES IDX 14 1 15 2 17 3 18 4 16 5 26 6 27 7 19 9 20 10 21 11 25 12
REMARK SMILES IDX 22 13 24 14 23 15 13 16 11 17 28 18 6 19 5 20 7 21 4 22 8 23
REMARK SMILES IDX 3 24 12 25 9 26 10 27 2 28 1 29
REMARK H PARENT 18 8
ROOT
ATOM      1  C   UNL     1     -14.519 -44.417  27.522  1.00  0.00     0.016 C 
ENDROOT
BRANCH   1   2
ATOM      2  C   UNL     1     -13.024 -44.763  27.249  1.00  0.00     0.001 C 
ATOM      3  C   UNL     1     -12.190 -46.489  28.971  1.00  0.00     0.262 C 
ATOM      4  N   UNL     1     -11.314 -45.423  29.571  1.00  0.00    -0.331 N 
ATOM      5  C   UNL     1     -12.517 -46.184  27.517  1.00  0.00     0.065 C 
ATOM      6  C   UNL     1     -11.842 -44.021  29.381  1.00  0.00     0.262 C 
ATOM      7  C   UNL     1     -12.071 -43.751  27.902  1.00  0.00     0.065 C 
ATOM      8  H   UNL     1     -10.402 -45.463  29.103  1.00  0.00     0.348 HD
BRANCH   4   9
ATOM      9  C   UNL     1     -11.054 -45.724  31.037  1.00  0.00     0.299 C 
BRANCH   9  10
ATOM     10  C   UNL     1      -9.734 -45.191  31.524  1.00  0.00     0.006 A 
ATOM     11  C   UNL     1      -8.549 -45.914  31.308  1.00  0.00     0.009 A 
ATOM     12  C   UNL     1      -9.665 -43.955  32.183  1.00  0.00     0.009 A 
ATOM     13  C   UNL     1      -7.323 -45.404  31.736  1.00  0.00     0.001 A 
ATOM     14  C   UNL     1      -8.436 -43.450  32.610  1.00  0.00     0.001 A 
ATOM     15  C   UNL     1      -7.267 -44.173  32.384  1.00  0.00     0.000 A 
ENDBRANCH   9  10
ENDBRANCH   4   9
ENDBRANCH   1   2
BRANCH   1  16
ATOM     16  C   UNL     1     -15.138 -43.139  26.941  1.00  0.00     0.066 C 
ATOM     17  C   UNL     1     -15.522 -43.298  25.475  1.00  0.00     0.166 C 
ATOM     18  C   UNL     1     -16.490 -42.781  27.621  1.00  0.00     0.048 C 
ATOM     19  C   UNL     1     -16.866 -42.784  25.256  1.00  0.00     0.025 A 
ATOM     20  C   UNL     1     -17.407 -42.450  26.488  1.00  0.00    -0.033 A 
ATOM     21  C   UNL     1     -17.541 -42.620  24.060  1.00  0.00     0.062 A 
ATOM     22  C   UNL     1     -18.688 -41.925  26.559  1.00  0.00     0.055 A 
ATOM     23  C   UNL     1     -18.832 -42.087  24.116  1.00  0.00     0.161 A 
ATOM     24  C   UNL     1     -19.408 -41.735  25.369  1.00  0.00     0.161 A 
ATOM     25  O   UNL     1     -14.815 -43.753  24.591  1.00  0.00    -0.294 OA
BRANCH  23  26
ATOM     26  O   UNL     1     -19.621 -41.861  23.015  1.00  0.00    -0.493 OA
ATOM     27  C   UNL     1     -19.175 -40.909  22.059  1.00  0.00     0.278 C 
ENDBRANCH  23  26
BRANCH  24  28
ATOM     28  O   UNL     1     -20.679 -41.220  25.313  1.00  0.00    -0.493 OA
ATOM     29  C   UNL     1     -21.342 -40.943  26.537  1.00  0.00     0.278 C 
ENDBRANCH  24  28
ENDBRANCH   1  16
TORSDOF 6
ENDMDL
MODEL 2
REMARK VINA RESULT:   -11.106      1.582      2.712
REMARK INTER + INTRA:         -15.595
REMARK INTER:                 -14.977
REMARK INTRA:                  -0.618
REMARK UNBOUND:                -0.593
REMARK SMILES COc1cc2c(cc1OC)C(=O)[C@H](C[C@H]1CC[N@@H+](Cc3ccccc3)CC1)C2
REMARK SMILES IDX 14 1 15 2 17 3 18 4 16 5 26 6 27 7 19 9 20 10 21 11 25 12
REMARK SMILES IDX 22 13 24 14 23 15 13 16 11 17 28 18 6 19 5 20 7 21 4 22 8 23
REMARK SMILES IDX 3 24 12 25 9 26 10 27 2 28 1 29
REMARK H PARENT 18 8
ROOT
ATOM      1  C   UNL     1     -12.964 -43.261  26.924  1.00  0.00     0.016 C 
ENDROOT
BRANCH   1   2
ATOM      2  C   UNL     1     -11.972 -44.198  27.679  1.00  0.00     0.001 C 
ATOM      3  C   UNL     1     -12.820 -44.632  30.074  1.00  0.00     0.262 C 
ATOM      4  N   UNL     1     -11.667 -43.818  30.597  1.00  0.00    -0.331 N 
ATOM      5  C   UNL     1     -12.514 -45.205  28.698  1.00  0.00     0.065 C 
ATOM      6  C   UNL     1     -11.173 -42.769  29.631  1.00  0.00     0.262 C 
ATOM      7  C   UNL     1     -10.807 -43.417  28.305  1.00  0.00     0.065 C 
ATOM      8  H   UNL     1     -10.883 -44.458  30.768  1.00  0.00     0.348 HD
BRANCH   4   9
ATOM      9  C   UNL     1     -12.024 -43.211  31.942  1.00  0.00     0.299 C 
BRANCH   9  10
ATOM     10  C   UNL     1     -10.822 -42.937  32.804  1.00  0.00     0.006 A 
ATOM     11  C   UNL     1      -9.556 -43.425  32.439  1.00  0.00     0.009 A 
ATOM     12  C   UNL     1     -10.943 -42.173  33.974  1.00  0.00     0.009 A 
ATOM     13  C   UNL     1      -8.438 -43.146  33.225  1.00  0.00     0.001 A 
ATOM     14  C   UNL     1      -9.822 -41.897  34.758  1.00  0.00     0.001 A 
ATOM     15  C   UNL     1      -8.572 -42.382  34.382  1.00  0.00     0.000 A 
ENDBRANCH   9  10
ENDBRANCH   4   9
ENDBRANCH   1   2
BRANCH   1  16
ATOM     16  C   UNL     1     -14.265 -43.821  26.336  1.00  0.00     0.066 C 
ATOM     17  C   UNL     1     -15.502 -43.237  27.008  1.00  0.00     0.166 C 
ATOM     18  C   UNL     1     -14.455 -43.423  24.844  1.00  0.00     0.048 C 
ATOM     19  C   UNL     1     -16.466 -42.823  26.000  1.00  0.00     0.025 A 
ATOM     20  C   UNL     1     -15.876 -42.968  24.754  1.00  0.00    -0.033 A 
ATOM     21  C   UNL     1     -17.759 -42.367  26.180  1.00  0.00     0.062 A 
ATOM     22  C   UNL     1     -16.591 -42.646  23.611  1.00  0.00     0.055 A 
ATOM     23  C   UNL     1     -18.494 -42.044  25.037  1.00  0.00     0.161 A 
ATOM     24  C   UNL     1     -17.911 -42.186  23.746  1.00  0.00     0.161 A 
ATOM     25  O   UNL     1     -15.693 -43.148  28.210  1.00  0.00    -0.294 OA
BRANCH  23  26
ATOM     26  O   UNL     1     -19.788 -41.585  25.057  1.00  0.00    -0.493 OA
ATOM     27  C   UNL     1     -20.426 -41.446  26.319  1.00  0.00     0.278 C 
ENDBRANCH  23  26
BRANCH  24  28
ATOM     28  O   UNL     1     -18.718 -41.841  22.690  1.00  0.00    -0.493 OA
ATOM     29  C   UNL     1     -18.393 -40.670  21.956  1.00  0.00     0.278 C 
ENDBRANCH  24  28
ENDBRANCH   1  16
TORSDOF 6
ENDMDL
MODEL 3
REMARK VINA RESULT:   -10.798      1.042      2.165
REMARK INTER + INTRA:         -15.180
REMARK INTER:                 -14.452
REMARK INTRA:                  -0.728
REMARK UNBOUND:                -0.593
REMARK SMILES COc1cc2c(cc1OC)C(=O)[C@H](C[C@H]1CC[N@@H+](Cc3ccccc3)CC1)C2
REMARK SMILES IDX 14 1 15 2 17 3 18 4 16 5 26 6 27 7 19 9 20 10 21 11 25 12
REMARK SMILES IDX 22 13 24 14 23 15 13 16 11 17 28 18 6 19 5 20 7 21 4 22 8 23
REMARK SMILES IDX 3 24 12 25 9 26 10 27 2 28 1 29
REMARK H PARENT 18 8
ROOT
ATOM      1  C   UNL     1     -13.913 -42.987  27.064  1.00  0.00     0.016 C 
ENDROOT
BRANCH   1   2
ATOM      2  C   UNL     1     -12.653 -43.904  27.012  1.00  0.00     0.001 C 
ATOM      3  C   UNL     1     -12.619 -45.472  29.057  1.00  0.00     0.262 C 
ATOM      4  N   UNL     1     -11.429 -44.715  29.580  1.00  0.00    -0.331 N 
ATOM      5  C   UNL     1     -12.741 -45.337  27.547  1.00  0.00     0.065 C 
ATOM      6  C   UNL     1     -11.371 -43.277  29.122  1.00  0.00     0.262 C 
ATOM      7  C   UNL     1     -11.415 -43.215  27.604  1.00  0.00     0.065 C 
ATOM      8  H   UNL     1     -10.582 -45.173  29.225  1.00  0.00     0.348 HD
BRANCH   4   9
ATOM      9  C   UNL     1     -11.367 -44.818  31.094  1.00  0.00     0.299 C 
BRANCH   9  10
ATOM     10  C   UNL     1     -10.001 -44.525  31.651  1.00  0.00     0.006 A 
ATOM     11  C   UNL     1      -8.913 -45.361  31.350  1.00  0.00     0.009 A 
ATOM     12  C   UNL     1      -9.789 -43.400  32.462  1.00  0.00     0.009 A 
ATOM     13  C   UNL     1      -7.641 -45.071  31.845  1.00  0.00     0.001 A 
ATOM     14  C   UNL     1      -8.516 -43.114  32.955  1.00  0.00     0.001 A 
ATOM     15  C   UNL     1      -7.444 -43.948  32.646  1.00  0.00     0.000 A 
ENDBRANCH   9  10
ENDBRANCH   4   9
ENDBRANCH   1   2
BRANCH   1  16
ATOM     16  C   UNL     1     -15.288 -43.533  26.657  1.00  0.00     0.066 C 
ATOM     17  C   UNL     1     -16.430 -42.777  27.325  1.00  0.00     0.166 C 
ATOM     18  C   UNL     1     -15.573 -43.333  25.141  1.00  0.00     0.048 C 
ATOM     19  C   UNL     1     -17.446 -42.442  26.338  1.00  0.00     0.025 A 
ATOM     20  C   UNL     1     -16.968 -42.798  25.087  1.00  0.00    -0.033 A 
ATOM     21  C   UNL     1     -18.692 -41.878  26.542  1.00  0.00     0.062 A 
ATOM     22  C   UNL     1     -17.752 -42.590  23.963  1.00  0.00     0.055 A 
ATOM     23  C   UNL     1     -19.497 -41.667  25.420  1.00  0.00     0.161 A 
ATOM     24  C   UNL     1     -19.028 -42.026  24.125  1.00  0.00     0.161 A 
ATOM     25  O   UNL     1     -16.520 -42.510  28.511  1.00  0.00    -0.294 OA
BRANCH  23  26
ATOM     26  O   UNL     1     -20.757 -41.122  25.466  1.00  0.00    -0.493 OA
ATOM     27  C   UNL     1     -21.380 -40.991  26.736  1.00  0.00     0.278 C 
ENDBRANCH  23  26
BRANCH  24  28
ATOM     28  O   UNL     1     -19.896 -41.776  23.090  1.00  0.00    -0.493 OA
ATOM     29  C   UNL     1     -19.432 -40.984  22.007  1.00  0.00     0.278 C 
ENDBRANCH  24  28
ENDBRANCH   1  16
TORSDOF 6
ENDMDL
MODEL 4
REMARK VINA RESULT:   -10.569      1.483      2.288
REMARK INTER + INTRA:         -14.869
REMARK INTER:                 -14.436
REMARK INTRA:                  -0.433
REMARK UNBOUND:                -0.593
REMARK SMILES COc1cc2c(cc1OC)C(=O)[C@H](C[C@H]1CC[N@@H+](Cc3ccccc3)CC1)C2
REMARK SMILES IDX 14 1 15 2 17 3 18 4 16 5 26 6 27 7 19 9 20 10 21 11 25 12
REMARK SMILES IDX 22 13 24 14 23 15 13 16 11 17 28 18 6 19 5 20 7 21 4 22 8 23
REMARK SMILES IDX 3 24 12 25 9 26 10 27 2 28 1 29
REMARK H PARENT 18 8
ROOT
ATOM      1  C   UNL     1     -14.549 -44.363  27.256  1.00  0.00     0.016 C 
ENDROOT
BRANCH   1   2
ATOM      2  C   UNL     1     -13.052 -44.722  27.007  1.00  0.00     0.001 C 
ATOM      3  C   UNL     1     -12.180 -46.232  28.904  1.00  0.00     0.262 C 
ATOM      4  N   UNL     1     -11.311 -45.095  29.369  1.00  0.00    -0.331 N 
ATOM      5  C   UNL     1     -12.526 -46.097  27.429  1.00  0.00     0.065 C 
ATOM      6  C   UNL     1     -11.858 -43.730  29.027  1.00  0.00     0.262 C 
ATOM      7  C   UNL     1     -12.105 -43.632  27.530  1.00  0.00     0.065 C 
ATOM      8  H   UNL     1     -10.403 -45.178  28.897  1.00  0.00     0.348 HD
BRANCH   4   9
ATOM      9  C   UNL     1     -11.032 -45.225  30.856  1.00  0.00     0.299 C 
BRANCH   9  10
ATOM     10  C   UNL     1     -11.943 -44.378  31.704  1.00  0.00     0.006 A 
ATOM     11  C   UNL     1     -13.297 -44.718  31.856  1.00  0.00     0.009 A 
ATOM     12  C   UNL     1     -11.447 -43.247  32.370  1.00  0.00     0.009 A 
ATOM     13  C   UNL     1     -14.132 -43.947  32.665  1.00  0.00     0.001 A 
ATOM     14  C   UNL     1     -12.286 -42.479  33.177  1.00  0.00     0.001 A 
ATOM     15  C   UNL     1     -13.627 -42.830  33.325  1.00  0.00     0.000 A 
ENDBRANCH   9  10
ENDBRANCH   4   9
ENDBRANCH   1   2
BRANCH   1  16
ATOM     16  C   UNL     1     -15.148 -43.081  26.664  1.00  0.00     0.066 C 
ATOM     17  C   UNL     1     -15.418 -43.205  25.169  1.00  0.00     0.166 C 
ATOM     18  C   UNL     1     -16.554 -42.766  27.250  1.00  0.00     0.048 C 
ATOM     19  C   UNL     1     -16.752 -42.709  24.864  1.00  0.00     0.025 A 
ATOM     20  C   UNL     1     -17.390 -42.420  26.059  1.00  0.00    -0.033 A 
ATOM     21  C   UNL     1     -17.339 -42.525  23.625  1.00  0.00     0.062 A 
ATOM     22  C   UNL     1     -18.683 -41.920  26.048  1.00  0.00     0.055 A 
ATOM     23  C   UNL     1     -18.640 -42.016  23.598  1.00  0.00     0.161 A 
ATOM     24  C   UNL     1     -19.315 -41.710  24.812  1.00  0.00     0.161 A 
ATOM     25  O   UNL     1     -14.638 -43.623  24.330  1.00  0.00    -0.294 OA
BRANCH  23  26
ATOM     26  O   UNL     1     -19.349 -41.774  22.446  1.00  0.00    -0.493 OA
ATOM     27  C   UNL     1     -19.047 -40.595  21.713  1.00  0.00     0.278 C 
ENDBRANCH  23  26
BRANCH  24  28
ATOM     28  O   UNL     1     -20.589 -41.216  24.674  1.00  0.00    -0.493 OA
ATOM     29  C   UNL     1     -21.296 -40.854  25.851  1.00  0.00     0.278 C 
ENDBRANCH  24  28
ENDBRANCH   1  16
TORSDOF 6
ENDMDL
MODEL 5
REMARK VINA RESULT:   -10.170      1.905      3.244
REMARK INTER + INTRA:         -14.331
REMARK INTER:                 -13.554
REMARK INTRA:                  -0.777
REMARK UNBOUND:                -0.593
REMARK SMILES COc1cc2c(cc1OC)C(=O)[C@H](C[C@H]1CC[N@@H+](Cc3ccccc3)CC1)C2
REMARK SMILES IDX 14 1 15 2 17 3 18 4 16 5 26 6 27 7 19 9 20 10 21 11 25 12
REMARK SMILES IDX 22 13 24 14 23 15 13 16 11 17 28 18 6 19 5 20 7 21 4 22 8 23
REMARK SMILES IDX 3 24 12 25 9 26 10 27 2 28 1 29
REMARK H PARENT 18 8
ROOT
ATOM      1  C   UNL     1     -15.326 -42.281  26.479  1.00  0.00     0.016 C 
ENDROOT
BRANCH   1   2
ATOM      2  C   UNL     1     -14.041 -42.939  25.890  1.00  0.00     0.001 C 
ATOM      3  C   UNL     1     -14.044 -45.470  26.374  1.00  0.00     0.262 C 
ATOM      4  N   UNL     1     -12.897 -45.259  27.324  1.00  0.00    -0.331 N 
ATOM      5  C   UNL     1     -14.111 -44.364  25.332  1.00  0.00     0.065 C 
ATOM      6  C   UNL     1     -12.861 -43.881  27.941  1.00  0.00     0.262 C 
ATOM      7  C   UNL     1     -12.846 -42.825  26.847  1.00  0.00     0.065 C 
ATOM      8  H   UNL     1     -12.025 -45.371  26.794  1.00  0.00     0.348 HD
BRANCH   4   9
ATOM      9  C   UNL     1     -12.892 -46.344  28.386  1.00  0.00     0.299 C 
BRANCH   9  10
ATOM     10  C   UNL     1     -11.663 -46.316  29.254  1.00  0.00     0.006 A 
ATOM     11  C   UNL     1     -10.390 -46.513  28.694  1.00  0.00     0.009 A 
ATOM     12  C   UNL     1     -11.769 -46.071  30.631  1.00  0.00     0.009 A 
ATOM     13  C   UNL     1      -9.250 -46.459  29.496  1.00  0.00     0.001 A 
ATOM     14  C   UNL     1     -10.626 -46.018  31.429  1.00  0.00     0.001 A 
ATOM     15  C   UNL     1      -9.368 -46.210  30.861  1.00  0.00     0.000 A 
ENDBRANCH   9  10
ENDBRANCH   4   9
ENDBRANCH   1   2
BRANCH   1  16
ATOM     16  C   UNL     1     -16.712 -42.841  26.133  1.00  0.00     0.066 C 
ATOM     17  C   UNL     1     -17.795 -42.323  27.073  1.00  0.00     0.166 C 
ATOM     18  C   UNL     1     -17.205 -42.368  24.736  1.00  0.00     0.048 C 
ATOM     19  C   UNL     1     -18.948 -41.880  26.303  1.00  0.00     0.025 A 
ATOM     20  C   UNL     1     -18.620 -41.943  24.958  1.00  0.00    -0.033 A 
ATOM     21  C   UNL     1     -20.184 -41.465  26.765  1.00  0.00     0.062 A 
ATOM     22  C   UNL     1     -19.556 -41.579  24.002  1.00  0.00     0.055 A 
ATOM     23  C   UNL     1     -21.139 -41.100  25.813  1.00  0.00     0.161 A 
ATOM     24  C   UNL     1     -20.827 -41.159  24.426  1.00  0.00     0.161 A 
ATOM     25  O   UNL     1     -17.741 -42.303  28.291  1.00  0.00    -0.294 OA
BRANCH  23  26
ATOM     26  O   UNL     1     -22.408 -40.674  26.120  1.00  0.00    -0.493 OA
ATOM     27  C   UNL     1     -23.286 -41.595  26.752  1.00  0.00     0.278 C 
ENDBRANCH  23  26
BRANCH  24  28
ATOM     28  O   UNL     1     -21.835 -40.778  23.575  1.00  0.00    -0.493 OA
ATOM     29  C   UNL     1     -21.546 -39.787  22.599  1.00  0.00     0.278 C 
ENDBRANCH  24  28
ENDBRANCH   1  16
TORSDOF 6
ENDMDL
MODEL 6
REMARK VINA RESULT:    -9.961      2.486      4.592
REMARK INTER + INTRA:         -14.049
REMARK INTER:                 -13.725
REMARK INTRA:                  -0.324
REMARK UNBOUND:                -0.593
REMARK SMILES COc1cc2c(cc1OC)C(=O)[C@H](C[C@H]1CC[N@@H+](Cc3ccccc3)CC1)C2
REMARK SMILES IDX 14 1 15 2 17 3 18 4 16 5 26 6 27 7 19 9 20 10 21 11 25 12
REMARK SMILES IDX 22 13 24 14 23 15 13 16 11 17 28 18 6 19 5 20 7 21 4 22 8 23
REMARK SMILES IDX 3 24 12 25 9 26 10 27 2 28 1 29
REMARK H PARENT 18 8
ROOT
ATOM      1  C   UNL     1     -16.984 -42.800  25.497  1.00  0.00     0.016 C 
ENDROOT
BRANCH   1   2
ATOM      2  C   UNL     1     -15.450 -42.639  25.274  1.00  0.00     0.001 C 
ATOM      3  C   UNL     1     -14.373 -44.943  24.858  1.00  0.00     0.262 C 
ATOM      4  N   UNL     1     -13.685 -44.829  26.191  1.00  0.00    -0.331 N 
ATOM      5  C   UNL     1     -14.727 -43.574  24.299  1.00  0.00     0.065 C 
ATOM      6  C   UNL     1     -14.427 -43.972  27.189  1.00  0.00     0.262 C 
ATOM      7  C   UNL     1     -14.678 -42.593  26.601  1.00  0.00     0.065 C 
ATOM      8  H   UNL     1     -12.773 -44.385  26.038  1.00  0.00     0.348 HD
BRANCH   4   9
ATOM      9  C   UNL     1     -13.398 -46.212  26.751  1.00  0.00     0.299 C 
BRANCH   9  10
ATOM     10  C   UNL     1     -12.542 -46.181  27.988  1.00  0.00     0.006 A 
ATOM     11  C   UNL     1     -13.123 -45.993  29.253  1.00  0.00     0.009 A 
ATOM     12  C   UNL     1     -11.153 -46.361  27.898  1.00  0.00     0.009 A 
ATOM     13  C   UNL     1     -12.330 -45.993  30.401  1.00  0.00     0.001 A 
ATOM     14  C   UNL     1     -10.365 -46.360  29.049  1.00  0.00     0.001 A 
ATOM     15  C   UNL     1     -10.953 -46.177  30.298  1.00  0.00     0.000 A 
ENDBRANCH   9  10
ENDBRANCH   4   9
ENDBRANCH   1   2
BRANCH   1  16
ATOM     16  C   UNL     1     -17.947 -42.792  24.302  1.00  0.00     0.066 C 
ATOM     17  C   UNL     1     -19.336 -42.293  24.682  1.00  0.00     0.166 C 
ATOM     18  C   UNL     1     -17.504 -41.790  23.198  1.00  0.00     0.048 C 
ATOM     19  C   UNL     1     -19.796 -41.317  23.707  1.00  0.00     0.025 A 
ATOM     20  C   UNL     1     -18.754 -41.058  22.831  1.00  0.00    -0.033 A 
ATOM     21  C   UNL     1     -21.039 -40.720  23.606  1.00  0.00     0.062 A 
ATOM     22  C   UNL     1     -18.934 -40.159  21.791  1.00  0.00     0.055 A 
ATOM     23  C   UNL     1     -21.238 -39.815  22.560  1.00  0.00     0.161 A 
ATOM     24  C   UNL     1     -20.184 -39.534  21.646  1.00  0.00     0.161 A 
ATOM     25  O   UNL     1     -19.998 -42.666  25.637  1.00  0.00    -0.294 OA
BRANCH  23  26
ATOM     26  O   UNL     1     -22.417 -39.150  22.330  1.00  0.00    -0.493 OA
ATOM     27  C   UNL     1     -23.632 -39.837  22.595  1.00  0.00     0.278 C 
ENDBRANCH  23  26
BRANCH  24  28
ATOM     28  O   UNL     1     -20.482 -38.631  20.656  1.00  0.00    -0.493 OA
ATOM     29  C   UNL     1     -20.712 -39.129  19.346  1.00  0.00     0.278 C 
ENDBRANCH  24  28
ENDBRANCH   1  16
TORSDOF 6
ENDMDL
MODEL 7
REMARK VINA RESULT:    -9.912      2.728      4.679
REMARK INTER + INTRA:         -13.982
REMARK INTER:                 -13.252
REMARK INTRA:                  -0.730
REMARK UNBOUND:                -0.593
REMARK SMILES COc1cc2c(cc1OC)C(=O)[C@H](C[C@H]1CC[N@@H+](Cc3ccccc3)CC1)C2
REMARK SMILES IDX 14 1 15 2 17 3 18 4 16 5 26 6 27 7 19 9 20 10 21 11 25 12
REMARK SMILES IDX 22 13 24 14 23 15 13 16 11 17 28 18 6 19 5 20 7 21 4 22 8 23
REMARK SMILES IDX 3 24 12 25 9 26 10 27 2 28 1 29
REMARK H PARENT 18 8
ROOT
ATOM      1  C   UNL     1     -17.004 -43.012  23.611  1.00  0.00     0.016 C 
ENDROOT
BRANCH   1   2
ATOM      2  C   UNL     1     -15.445 -42.982  23.625  1.00  0.00     0.001 C 
ATOM      3  C   UNL     1     -14.541 -44.839  25.166  1.00  0.00     0.262 C 
ATOM      4  N   UNL     1     -14.071 -43.776  26.121  1.00  0.00    -0.331 N 
ATOM      5  C   UNL     1     -14.667 -44.296  23.751  1.00  0.00     0.065 C 
ATOM      6  C   UNL     1     -14.880 -42.502  26.062  1.00  0.00     0.262 C 
ATOM      7  C   UNL     1     -14.899 -41.967  24.639  1.00  0.00     0.065 C 
ATOM      8  H   UNL     1     -13.108 -43.528  25.869  1.00  0.00     0.348 HD
BRANCH   4   9
ATOM      9  C   UNL     1     -14.013 -44.331  27.534  1.00  0.00     0.299 C 
BRANCH   9  10
ATOM     10  C   UNL     1     -12.637 -44.793  27.930  1.00  0.00     0.006 A 
ATOM     11  C   UNL     1     -11.659 -43.866  28.324  1.00  0.00     0.009 A 
ATOM     12  C   UNL     1     -12.318 -46.160  27.931  1.00  0.00     0.009 A 
ATOM     13  C   UNL     1     -10.392 -44.300  28.717  1.00  0.00     0.001 A 
ATOM     14  C   UNL     1     -11.050 -46.588  28.324  1.00  0.00     0.001 A 
ATOM     15  C   UNL     1     -10.089 -45.660  28.718  1.00  0.00     0.000 A 
ENDBRANCH   9  10
ENDBRANCH   4   9
ENDBRANCH   1   2
BRANCH   1  16
ATOM     16  C   UNL     1     -17.807 -41.715  23.771  1.00  0.00     0.066 C 
ATOM     17  C   UNL     1     -17.965 -40.967  22.453  1.00  0.00     0.166 C 
ATOM     18  C   UNL     1     -19.277 -41.984  24.201  1.00  0.00     0.048 C 
ATOM     19  C   UNL     1     -19.350 -40.557  22.278  1.00  0.00     0.025 A 
ATOM     20  C   UNL     1     -20.097 -41.110  23.306  1.00  0.00    -0.033 A 
ATOM     21  C   UNL     1     -19.893 -39.752  21.293  1.00  0.00     0.062 A 
ATOM     22  C   UNL     1     -21.459 -40.866  23.378  1.00  0.00     0.055 A 
ATOM     23  C   UNL     1     -21.264 -39.492  21.355  1.00  0.00     0.161 A 
ATOM     24  C   UNL     1     -22.052 -40.048  22.402  1.00  0.00     0.161 A 
ATOM     25  O   UNL     1     -17.074 -40.708  21.661  1.00  0.00    -0.294 OA
BRANCH  23  26
ATOM     26  O   UNL     1     -21.941 -38.709  20.453  1.00  0.00    -0.493 OA
ATOM     27  C   UNL     1     -21.402 -38.580  19.145  1.00  0.00     0.278 C 
ENDBRANCH  23  26
BRANCH  24  28
ATOM     28  O   UNL     1     -23.387 -39.731  22.371  1.00  0.00    -0.493 OA
ATOM     29  C   UNL     1     -23.921 -38.980  23.451  1.00  0.00     0.278 C 
ENDBRANCH  24  28
ENDBRANCH   1  16
TORSDOF 6
ENDMDL
MODEL 8
REMARK VINA RESULT:    -9.793      2.503      4.343
REMARK INTER + INTRA:         -13.822
REMARK INTER:                 -13.119
REMARK INTRA:                  -0.702
REMARK UNBOUND:                -0.593
REMARK SMILES COc1cc2c(cc1OC)C(=O)[C@H](C[C@H]1CC[N@@H+](Cc3ccccc3)CC1)C2
REMARK SMILES IDX 14 1 15 2 17 3 18 4 16 5 26 6 27 7 19 9 20 10 21 11 25 12
REMARK SMILES IDX 22 13 24 14 23 15 13 16 11 17 28 18 6 19 5 20 7 21 4 22 8 23
REMARK SMILES IDX 3 24 12 25 9 26 10 27 2 28 1 29
REMARK H PARENT 18 8
ROOT
ATOM      1  C   UNL     1     -17.041 -43.104  23.824  1.00  0.00     0.016 C 
ENDROOT
BRANCH   1   2
ATOM      2  C   UNL     1     -15.483 -43.062  23.776  1.00  0.00     0.001 C 
ATOM      3  C   UNL     1     -14.504 -44.889  25.306  1.00  0.00     0.262 C 
ATOM      4  N   UNL     1     -14.006 -43.809  26.227  1.00  0.00    -0.331 N 
ATOM      5  C   UNL     1     -14.689 -44.367  23.889  1.00  0.00     0.065 C 
ATOM      6  C   UNL     1     -14.827 -42.542  26.181  1.00  0.00     0.262 C 
ATOM      7  C   UNL     1     -14.905 -42.028  24.753  1.00  0.00     0.065 C 
ATOM      8  H   UNL     1     -13.055 -43.558  25.934  1.00  0.00     0.348 HD
BRANCH   4   9
ATOM      9  C   UNL     1     -13.888 -44.344  27.644  1.00  0.00     0.299 C 
BRANCH   9  10
ATOM     10  C   UNL     1     -12.496 -44.798  27.989  1.00  0.00     0.006 A 
ATOM     11  C   UNL     1     -11.514 -43.867  28.366  1.00  0.00     0.009 A 
ATOM     12  C   UNL     1     -12.163 -46.161  27.958  1.00  0.00     0.009 A 
ATOM     13  C   UNL     1     -10.231 -44.294  28.712  1.00  0.00     0.001 A 
ATOM     14  C   UNL     1     -10.879 -46.582  28.305  1.00  0.00     0.001 A 
ATOM     15  C   UNL     1      -9.916 -45.650  28.683  1.00  0.00     0.000 A 
ENDBRANCH   9  10
ENDBRANCH   4   9
ENDBRANCH   1   2
BRANCH   1  16
ATOM     16  C   UNL     1     -17.834 -41.895  24.337  1.00  0.00     0.066 C 
ATOM     17  C   UNL     1     -19.057 -41.599  23.478  1.00  0.00     0.166 C 
ATOM     18  C   UNL     1     -18.447 -42.151  25.744  1.00  0.00     0.048 C 
ATOM     19  C   UNL     1     -20.220 -41.386  24.327  1.00  0.00     0.025 A 
ATOM     20  C   UNL     1     -19.856 -41.666  25.635  1.00  0.00    -0.033 A 
ATOM     21  C   UNL     1     -21.487 -40.970  23.963  1.00  0.00     0.062 A 
ATOM     22  C   UNL     1     -20.788 -41.533  26.653  1.00  0.00     0.055 A 
ATOM     23  C   UNL     1     -22.436 -40.826  24.979  1.00  0.00     0.161 A 
ATOM     24  C   UNL     1     -22.086 -41.105  26.330  1.00  0.00     0.161 A 
ATOM     25  O   UNL     1     -19.078 -41.515  22.261  1.00  0.00    -0.294 OA
BRANCH  23  26
ATOM     26  O   UNL     1     -23.730 -40.417  24.773  1.00  0.00    -0.493 OA
ATOM     27  C   UNL     1     -23.946 -39.078  24.349  1.00  0.00     0.278 C 
ENDBRANCH  23  26
BRANCH  24  28
ATOM     28  O   UNL     1     -23.090 -40.933  27.250  1.00  0.00    -0.493 OA
ATOM     29  C   UNL     1     -23.772 -42.088  27.719  1.00  0.00     0.278 C 
ENDBRANCH  24  28
ENDBRANCH   1  16
TORSDOF 6
ENDMDL
MODEL 9
REMARK VINA RESULT:    -9.217      3.444      6.901
REMARK INTER + INTRA:         -13.043
REMARK INTER:                 -12.359
REMARK INTRA:                  -0.684
REMARK UNBOUND:                -0.593
REMARK SMILES COc1cc2c(cc1OC)C(=O)[C@H](C[C@H]1CC[N@@H+](Cc3ccccc3)CC1)C2
REMARK SMILES IDX 14 1 15 2 17 3 18 4 16 5 26 6 27 7 19 9 20 10 21 11 25 12
REMARK SMILES IDX 22 13 24 14 23 15 13 16 11 17 28 18 6 19 5 20 7 21 4 22 8 23
REMARK SMILES IDX 3 24 12 25 9 26 10 27 2 28 1 29
REMARK H PARENT 18 8
ROOT
ATOM      1  C   UNL     1     -18.427 -41.424  23.178  1.00  0.00     0.016 C 
ENDROOT
BRANCH   1   2
ATOM      2  C   UNL     1     -18.058 -42.799  23.813  1.00  0.00     0.001 C 
ATOM      3  C   UNL     1     -16.839 -42.438  26.054  1.00  0.00     0.262 C 
ATOM      4  N   UNL     1     -15.578 -42.959  25.418  1.00  0.00    -0.331 N 
ATOM      5  C   UNL     1     -18.076 -42.956  25.336  1.00  0.00     0.065 C 
ATOM      6  C   UNL     1     -15.514 -42.741  23.925  1.00  0.00     0.262 C 
ATOM      7  C   UNL     1     -16.736 -43.352  23.259  1.00  0.00     0.065 C 
ATOM      8  H   UNL     1     -15.543 -43.973  25.572  1.00  0.00     0.348 HD
BRANCH   4   9
ATOM      9  C   UNL     1     -14.361 -42.378  26.117  1.00  0.00     0.299 C 
BRANCH   9  10
ATOM     10  C   UNL     1     -13.514 -43.422  26.791  1.00  0.00     0.006 A 
ATOM     11  C   UNL     1     -13.907 -44.771  26.789  1.00  0.00     0.009 A 
ATOM     12  C   UNL     1     -12.308 -43.067  27.414  1.00  0.00     0.009 A 
ATOM     13  C   UNL     1     -13.105 -45.741  27.391  1.00  0.00     0.001 A 
ATOM     14  C   UNL     1     -11.510 -44.041  28.014  1.00  0.00     0.001 A 
ATOM     15  C   UNL     1     -11.907 -45.376  28.001  1.00  0.00     0.000 A 
ENDBRANCH   9  10
ENDBRANCH   4   9
ENDBRANCH   1   2
BRANCH   1  16
ATOM     16  C   UNL     1     -19.516 -41.333  22.101  1.00  0.00     0.066 C 
ATOM     17  C   UNL     1     -20.822 -40.770  22.647  1.00  0.00     0.166 C 
ATOM     18  C   UNL     1     -19.144 -40.328  20.974  1.00  0.00     0.048 C 
ATOM     19  C   UNL     1     -21.334 -39.745  21.750  1.00  0.00     0.025 A 
ATOM     20  C   UNL     1     -20.384 -39.519  20.766  1.00  0.00    -0.033 A 
ATOM     21  C   UNL     1     -22.544 -39.079  21.804  1.00  0.00     0.062 A 
ATOM     22  C   UNL     1     -20.629 -38.585  19.772  1.00  0.00     0.055 A 
ATOM     23  C   UNL     1     -22.809 -38.138  20.805  1.00  0.00     0.161 A 
ATOM     24  C   UNL     1     -21.850 -37.891  19.783  1.00  0.00     0.161 A 
ATOM     25  O   UNL     1     -21.392 -41.131  23.664  1.00  0.00    -0.294 OA
BRANCH  23  26
ATOM     26  O   UNL     1     -23.967 -37.405  20.724  1.00  0.00    -0.493 OA
ATOM     27  C   UNL     1     -25.130 -38.049  20.224  1.00  0.00     0.278 C 
ENDBRANCH  23  26
BRANCH  24  28
ATOM     28  O   UNL     1     -22.207 -36.948  18.851  1.00  0.00    -0.493 OA
ATOM     29  C   UNL     1     -22.604 -37.397  17.564  1.00  0.00     0.278 C 
ENDBRANCH  24  28
ENDBRANCH   1  16
TORSDOF 6
ENDMDL
