MODEL 1
REMARK VINA RESULT:   -10.042      0.000      0.000
REMARK INTER + INTRA:         -10.335
REMARK INTER:                 -10.335
REMARK INTRA:                   0.000
REMARK UNBOUND:                 0.000
REMARK SMILES CC1=C[C@H]2Cc3[nH]c4cc(Cl)ccc4c(=N)c3[C@@H](C1)C2
REMARK SMILES IDX 7 1 6 2 17 3 15 4 14 5 13 6 12 7 10 8 11 9 9 10 8 11 18 12
REMARK SMILES IDX 19 13 2 14 1 15 3 16 4 17 5 18 20 19 16 21
REMARK H PARENT 7 20 16 22
ROOT
ATOM      1  N   UNL     1     -15.099 -43.732  28.694  1.00  0.00    -0.358 N 
ATOM      2  C   UNL     1     -14.279 -44.458  29.530  1.00  0.00     0.021 A 
ATOM      3  C   UNL     1     -13.394 -45.371  29.078  1.00  0.00     0.000 A 
ATOM      4  C   UNL     1     -13.281 -45.600  27.598  1.00  0.00     0.068 A 
ATOM      5  C   UNL     1     -14.120 -44.739  26.702  1.00  0.00     0.023 A 
ATOM      6  C   UNL     1     -14.049 -44.824  25.304  1.00  0.00     0.014 A 
ATOM      7  C   UNL     1     -14.857 -44.007  24.508  1.00  0.00     0.021 A 
ATOM      8  C   UNL     1     -15.735 -43.109  25.105  1.00  0.00     0.043 A 
ATOM      9  Cl  UNL     1     -16.735 -42.111  24.123  1.00  0.00    -0.084 Cl
ATOM     10  C   UNL     1     -15.812 -43.011  26.492  1.00  0.00     0.047 A 
ATOM     11  C   UNL     1     -14.995 -43.813  27.300  1.00  0.00     0.049 A 
ATOM     12  C   UNL     1     -12.509 -46.200  29.997  1.00  0.00     0.028 C 
ATOM     13  C   UNL     1     -11.095 -45.585  30.103  1.00  0.00     0.039 C 
ATOM     14  C   UNL     1     -11.012 -44.398  31.046  1.00  0.00    -0.076 C 
ATOM     15  C   UNL     1      -9.725 -43.628  31.024  1.00  0.00     0.039 C 
ATOM     16  C   UNL     1     -12.043 -44.057  31.844  1.00  0.00    -0.024 C 
ATOM     17  C   UNL     1     -13.339 -44.841  31.894  1.00  0.00     0.018 C 
ATOM     18  C   UNL     1     -14.417 -44.170  31.019  1.00  0.00     0.062 C 
ATOM     19  C   UNL     1     -13.123 -46.275  31.402  1.00  0.00     0.017 C 
ATOM     20  H   UNL     1     -15.616 -42.960  29.097  1.00  0.00     0.166 HD
ENDROOT
BRANCH   4  21
ATOM     21  N   UNL     1     -12.471 -46.519  27.164  1.00  0.00    -0.300 NA
ATOM     22  H   UNL     1     -11.515 -46.191  27.053  1.00  0.00     0.188 HD
ENDBRANCH   4  21
TORSDOF 1
ENDMDL
MODEL 2
REMARK VINA RESULT:    -9.454      4.301      8.035
REMARK INTER + INTRA:          -9.731
REMARK INTER:                  -9.731
REMARK INTRA:                   0.000
REMARK UNBOUND:                 0.000
REMARK SMILES CC1=C[C@H]2Cc3[nH]c4cc(Cl)ccc4c(=N)c3[C@@H](C1)C2
REMARK SMILES IDX 7 1 6 2 17 3 15 4 14 5 13 6 12 7 10 8 11 9 9 10 8 11 18 12
REMARK SMILES IDX 19 13 2 14 1 15 3 16 4 17 5 18 20 19 16 21
REMARK H PARENT 7 20 16 22
ROOT
ATOM      1  N   UNL     1     -17.588 -42.322  26.895  1.00  0.00    -0.358 N 
ATOM      2  C   UNL     1     -18.757 -42.060  26.215  1.00  0.00     0.021 A 
ATOM      3  C   UNL     1     -18.873 -42.193  24.877  1.00  0.00     0.000 A 
ATOM      4  C   UNL     1     -17.684 -42.662  24.090  1.00  0.00     0.068 A 
ATOM      5  C   UNL     1     -16.448 -43.024  24.858  1.00  0.00     0.023 A 
ATOM      6  C   UNL     1     -15.300 -43.531  24.231  1.00  0.00     0.014 A 
ATOM      7  C   UNL     1     -14.168 -43.847  24.988  1.00  0.00     0.021 A 
ATOM      8  C   UNL     1     -14.179 -43.655  26.366  1.00  0.00     0.043 A 
ATOM      9  Cl  UNL     1     -12.781 -44.035  27.292  1.00  0.00    -0.084 Cl
ATOM     10  C   UNL     1     -15.314 -43.156  27.001  1.00  0.00     0.047 A 
ATOM     11  C   UNL     1     -16.461 -42.852  26.255  1.00  0.00     0.049 A 
ATOM     12  C   UNL     1     -20.152 -41.874  24.116  1.00  0.00     0.028 C 
ATOM     13  C   UNL     1     -20.961 -43.160  23.833  1.00  0.00     0.039 C 
ATOM     14  C   UNL     1     -21.760 -43.655  25.026  1.00  0.00    -0.076 C 
ATOM     15  C   UNL     1     -22.388 -45.009  24.881  1.00  0.00     0.039 C 
ATOM     16  C   UNL     1     -21.884 -42.918  26.148  1.00  0.00    -0.024 C 
ATOM     17  C   UNL     1     -21.275 -41.538  26.297  1.00  0.00     0.018 C 
ATOM     18  C   UNL     1     -19.940 -41.611  27.064  1.00  0.00     0.062 C 
ATOM     19  C   UNL     1     -21.026 -40.906  24.925  1.00  0.00     0.017 C 
ATOM     20  H   UNL     1     -17.629 -42.352  27.907  1.00  0.00     0.166 HD
ENDROOT
BRANCH   4  21
ATOM     21  N   UNL     1     -17.775 -42.736  22.796  1.00  0.00    -0.300 NA
ATOM     22  H   UNL     1     -17.591 -43.668  22.433  1.00  0.00     0.188 HD
ENDBRANCH   4  21
TORSDOF 1
ENDMDL
MODEL 3
REMARK VINA RESULT:    -9.165      3.681      6.823
REMARK INTER + INTRA:          -9.433
REMARK INTER:                  -9.433
REMARK INTRA:                   0.000
REMARK UNBOUND:                 0.000
REMARK SMILES CC1=C[C@H]2Cc3[nH]c4cc(Cl)ccc4c(=N)c3[C@@H](C1)C2
REMARK SMILES IDX 7 1 6 2 17 3 15 4 14 5 13 6 12 7 10 8 11 9 9 10 8 11 18 12
REMARK SMILES IDX 19 13 2 14 1 15 3 16 4 17 5 18 20 19 16 21
REMARK H PARENT 7 20 16 22
ROOT
ATOM      1  N   UNL     1      -9.618 -45.322  30.190  1.00  0.00    -0.358 N 
ATOM      2  C   UNL     1     -10.882 -45.605  29.725  1.00  0.00     0.021 A 
ATOM      3  C   UNL     1     -12.004 -45.177  30.341  1.00  0.00     0.000 A 
ATOM      4  C   UNL     1     -11.875 -44.340  31.581  1.00  0.00     0.068 A 
ATOM      5  C   UNL     1     -10.490 -43.971  32.022  1.00  0.00     0.023 A 
ATOM      6  C   UNL     1     -10.254 -43.143  33.129  1.00  0.00     0.014 A 
ATOM      7  C   UNL     1      -8.945 -42.833  33.508  1.00  0.00     0.021 A 
ATOM      8  C   UNL     1      -7.873 -43.350  32.787  1.00  0.00     0.043 A 
ATOM      9  Cl  UNL     1      -6.263 -42.974  33.262  1.00  0.00    -0.084 Cl
ATOM     10  C   UNL     1      -8.094 -44.169  31.682  1.00  0.00     0.047 A 
ATOM     11  C   UNL     1      -9.402 -44.473  31.283  1.00  0.00     0.049 A 
ATOM     12  C   UNL     1     -13.405 -45.514  29.851  1.00  0.00     0.028 C 
ATOM     13  C   UNL     1     -13.992 -44.352  29.017  1.00  0.00     0.039 C 
ATOM     14  C   UNL     1     -13.474 -44.299  27.591  1.00  0.00    -0.076 C 
ATOM     15  C   UNL     1     -13.836 -43.075  26.804  1.00  0.00     0.039 C 
ATOM     16  C   UNL     1     -12.725 -45.293  27.074  1.00  0.00    -0.024 C 
ATOM     17  C   UNL     1     -12.373 -46.547  27.851  1.00  0.00     0.018 C 
ATOM     18  C   UNL     1     -10.957 -46.437  28.451  1.00  0.00     0.062 C 
ATOM     19  C   UNL     1     -13.376 -46.780  28.984  1.00  0.00     0.017 C 
ATOM     20  H   UNL     1      -8.834 -45.544  29.587  1.00  0.00     0.166 HD
ENDROOT
BRANCH   4  21
ATOM     21  N   UNL     1     -12.952 -43.974  32.209  1.00  0.00    -0.300 NA
ATOM     22  H   UNL     1     -13.330 -44.700  32.814  1.00  0.00     0.188 HD
ENDBRANCH   4  21
TORSDOF 1
ENDMDL
MODEL 4
REMARK VINA RESULT:    -9.114      1.863      2.315
REMARK INTER + INTRA:          -9.381
REMARK INTER:                  -9.381
REMARK INTRA:                   0.000
REMARK UNBOUND:                 0.000
REMARK SMILES CC1=C[C@H]2Cc3[nH]c4cc(Cl)ccc4c(=N)c3[C@@H](C1)C2
REMARK SMILES IDX 7 1 6 2 17 3 15 4 14 5 13 6 12 7 10 8 11 9 9 10 8 11 18 12
REMARK SMILES IDX 19 13 2 14 1 15 3 16 4 17 5 18 20 19 16 21
REMARK H PARENT 7 20 16 22
ROOT
ATOM      1  N   UNL     1     -15.690 -43.739  29.422  1.00  0.00    -0.358 N 
ATOM      2  C   UNL     1     -14.461 -44.360  29.389  1.00  0.00     0.021 A 
ATOM      3  C   UNL     1     -13.818 -44.654  28.238  1.00  0.00     0.000 A 
ATOM      4  C   UNL     1     -14.458 -44.276  26.934  1.00  0.00     0.068 A 
ATOM      5  C   UNL     1     -15.754 -43.525  26.994  1.00  0.00     0.023 A 
ATOM      6  C   UNL     1     -16.407 -43.068  25.840  1.00  0.00     0.014 A 
ATOM      7  C   UNL     1     -17.619 -42.379  25.945  1.00  0.00     0.021 A 
ATOM      8  C   UNL     1     -18.179 -42.147  27.197  1.00  0.00     0.043 A 
ATOM      9  Cl  UNL     1     -19.675 -41.308  27.322  1.00  0.00    -0.084 Cl
ATOM     10  C   UNL     1     -17.538 -42.591  28.352  1.00  0.00     0.047 A 
ATOM     11  C   UNL     1     -16.315 -43.269  28.260  1.00  0.00     0.049 A 
ATOM     12  C   UNL     1     -12.476 -45.370  28.194  1.00  0.00     0.028 C 
ATOM     13  C   UNL     1     -11.318 -44.359  28.024  1.00  0.00     0.039 C 
ATOM     14  C   UNL     1     -10.930 -43.651  29.311  1.00  0.00    -0.076 C 
ATOM     15  C   UNL     1      -9.969 -42.509  29.168  1.00  0.00     0.039 C 
ATOM     16  C   UNL     1     -11.434 -44.026  30.503  1.00  0.00    -0.024 C 
ATOM     17  C   UNL     1     -12.387 -45.194  30.663  1.00  0.00     0.018 C 
ATOM     18  C   UNL     1     -13.846 -44.700  30.740  1.00  0.00     0.062 C 
ATOM     19  C   UNL     1     -12.253 -46.166  29.487  1.00  0.00     0.017 C 
ATOM     20  H   UNL     1     -16.028 -43.414  30.320  1.00  0.00     0.166 HD
ENDROOT
BRANCH   4  21
ATOM     21  N   UNL     1     -13.868 -44.609  25.825  1.00  0.00    -0.300 NA
ATOM     22  H   UNL     1     -12.939 -44.206  25.728  1.00  0.00     0.188 HD
ENDBRANCH   4  21
TORSDOF 1
ENDMDL
MODEL 5
REMARK VINA RESULT:    -9.109      4.315      5.929
REMARK INTER + INTRA:          -9.375
REMARK INTER:                  -9.375
REMARK INTRA:                   0.000
REMARK UNBOUND:                 0.000
REMARK SMILES CC1=C[C@H]2Cc3[nH]c4cc(Cl)ccc4c(=N)c3[C@@H](C1)C2
REMARK SMILES IDX 7 1 6 2 17 3 15 4 14 5 13 6 12 7 10 8 11 9 9 10 8 11 18 12
REMARK SMILES IDX 19 13 2 14 1 15 3 16 4 17 5 18 20 19 16 21
REMARK H PARENT 7 20 16 22
ROOT
ATOM      1  N   UNL     1     -11.118 -43.032  33.152  1.00  0.00    -0.358 N 
ATOM      2  C   UNL     1     -10.508 -43.792  32.178  1.00  0.00     0.021 A 
ATOM      3  C   UNL     1     -11.196 -44.429  31.207  1.00  0.00     0.000 A 
ATOM      4  C   UNL     1     -12.691 -44.294  31.171  1.00  0.00     0.068 A 
ATOM      5  C   UNL     1     -13.326 -43.393  32.187  1.00  0.00     0.023 A 
ATOM      6  C   UNL     1     -14.707 -43.145  32.207  1.00  0.00     0.014 A 
ATOM      7  C   UNL     1     -15.256 -42.305  33.179  1.00  0.00     0.021 A 
ATOM      8  C   UNL     1     -14.431 -41.715  34.131  1.00  0.00     0.043 A 
ATOM      9  Cl  UNL     1     -15.112 -40.689  35.333  1.00  0.00    -0.084 Cl
ATOM     10  C   UNL     1     -13.058 -41.949  34.120  1.00  0.00     0.047 A 
ATOM     11  C   UNL     1     -12.494 -42.776  33.140  1.00  0.00     0.049 A 
ATOM     12  C   UNL     1     -10.532 -45.297  30.148  1.00  0.00     0.028 C 
ATOM     13  C   UNL     1     -10.337 -44.509  28.832  1.00  0.00     0.039 C 
ATOM     14  C   UNL     1      -9.144 -43.570  28.852  1.00  0.00    -0.076 C 
ATOM     15  C   UNL     1      -9.032 -42.624  27.693  1.00  0.00     0.039 C 
ATOM     16  C   UNL     1      -8.250 -43.585  29.860  1.00  0.00    -0.024 C 
ATOM     17  C   UNL     1      -8.338 -44.553  31.023  1.00  0.00     0.018 C 
ATOM     18  C   UNL     1      -8.989 -43.876  32.247  1.00  0.00     0.062 C 
ATOM     19  C   UNL     1      -9.163 -45.785  30.640  1.00  0.00     0.017 C 
ATOM     20  H   UNL     1     -10.524 -42.463  33.744  1.00  0.00     0.166 HD
ENDROOT
BRANCH   4  21
ATOM     21  N   UNL     1     -13.360 -44.951  30.271  1.00  0.00    -0.300 NA
ATOM     22  H   UNL     1     -13.649 -44.374  29.485  1.00  0.00     0.188 HD
ENDBRANCH   4  21
TORSDOF 1
ENDMDL
MODEL 6
REMARK VINA RESULT:    -9.064      1.954      3.030
REMARK INTER + INTRA:          -9.329
REMARK INTER:                  -9.329
REMARK INTRA:                   0.000
REMARK UNBOUND:                 0.000
REMARK SMILES CC1=C[C@H]2Cc3[nH]c4cc(Cl)ccc4c(=N)c3[C@@H](C1)C2
REMARK SMILES IDX 7 1 6 2 17 3 15 4 14 5 13 6 12 7 10 8 11 9 9 10 8 11 18 12
REMARK SMILES IDX 19 13 2 14 1 15 3 16 4 17 5 18 20 19 16 21
REMARK H PARENT 7 20 16 22
ROOT
ATOM      1  N   UNL     1     -11.407 -42.794  28.399  1.00  0.00    -0.358 N 
ATOM      2  C   UNL     1     -11.072 -43.305  29.633  1.00  0.00     0.021 A 
ATOM      3  C   UNL     1     -11.828 -44.217  30.279  1.00  0.00     0.000 A 
ATOM      4  C   UNL     1     -13.084 -44.713  29.622  1.00  0.00     0.068 A 
ATOM      5  C   UNL     1     -13.384 -44.210  28.243  1.00  0.00     0.023 A 
ATOM      6  C   UNL     1     -14.496 -44.654  27.511  1.00  0.00     0.014 A 
ATOM      7  C   UNL     1     -14.741 -44.150  26.230  1.00  0.00     0.021 A 
ATOM      8  C   UNL     1     -13.882 -43.203  25.682  1.00  0.00     0.043 A 
ATOM      9  Cl  UNL     1     -14.192 -42.578  24.109  1.00  0.00    -0.084 Cl
ATOM     10  C   UNL     1     -12.772 -42.758  26.396  1.00  0.00     0.047 A 
ATOM     11  C   UNL     1     -12.506 -43.268  27.673  1.00  0.00     0.049 A 
ATOM     12  C   UNL     1     -11.482 -44.760  31.658  1.00  0.00     0.028 C 
ATOM     13  C   UNL     1     -10.773 -46.130  31.548  1.00  0.00     0.039 C 
ATOM     14  C   UNL     1      -9.302 -46.031  31.186  1.00  0.00    -0.076 C 
ATOM     15  C   UNL     1      -8.618 -47.323  30.853  1.00  0.00     0.039 C 
ATOM     16  C   UNL     1      -8.660 -44.846  31.157  1.00  0.00    -0.024 C 
ATOM     17  C   UNL     1      -9.333 -43.537  31.516  1.00  0.00     0.018 C 
ATOM     18  C   UNL     1      -9.777 -42.785  30.244  1.00  0.00     0.062 C 
ATOM     19  C   UNL     1     -10.559 -43.783  32.400  1.00  0.00     0.017 C 
ATOM     20  H   UNL     1     -10.710 -42.238  27.915  1.00  0.00     0.166 HD
ENDROOT
BRANCH   4  21
ATOM     21  N   UNL     1     -13.843 -45.548  30.266  1.00  0.00    -0.300 NA
ATOM     22  H   UNL     1     -13.376 -46.424  30.491  1.00  0.00     0.188 HD
ENDBRANCH   4  21
TORSDOF 1
ENDMDL
MODEL 7
REMARK VINA RESULT:    -8.901      3.390      5.965
REMARK INTER + INTRA:          -9.161
REMARK INTER:                  -9.161
REMARK INTRA:                   0.000
REMARK UNBOUND:                 0.000
REMARK SMILES CC1=C[C@H]2Cc3[nH]c4cc(Cl)ccc4c(=N)c3[C@@H](C1)C2
REMARK SMILES IDX 7 1 6 2 17 3 15 4 14 5 13 6 12 7 10 8 11 9 9 10 8 11 18 12
REMARK SMILES IDX 19 13 2 14 1 15 3 16 4 17 5 18 20 19 16 21
REMARK H PARENT 7 20 16 22
ROOT
ATOM      1  N   UNL     1     -12.041 -42.844  31.458  1.00  0.00    -0.358 N 
ATOM      2  C   UNL     1     -11.753 -43.812  30.522  1.00  0.00     0.021 A 
ATOM      3  C   UNL     1     -12.324 -45.036  30.533  1.00  0.00     0.000 A 
ATOM      4  C   UNL     1     -13.330 -45.356  31.601  1.00  0.00     0.068 A 
ATOM      5  C   UNL     1     -13.692 -44.260  32.557  1.00  0.00     0.023 A 
ATOM      6  C   UNL     1     -14.664 -44.429  33.554  1.00  0.00     0.014 A 
ATOM      7  C   UNL     1     -14.963 -43.381  34.430  1.00  0.00     0.021 A 
ATOM      8  C   UNL     1     -14.292 -42.168  34.313  1.00  0.00     0.043 A 
ATOM      9  Cl  UNL     1     -14.655 -40.883  35.398  1.00  0.00    -0.084 Cl
ATOM     10  C   UNL     1     -13.328 -41.985  33.324  1.00  0.00     0.047 A 
ATOM     11  C   UNL     1     -13.032 -43.023  32.431  1.00  0.00     0.049 A 
ATOM     12  C   UNL     1     -11.986 -46.121  29.522  1.00  0.00     0.028 C 
ATOM     13  C   UNL     1     -13.038 -46.166  28.390  1.00  0.00     0.039 C 
ATOM     14  C   UNL     1     -12.850 -45.088  27.337  1.00  0.00    -0.076 C 
ATOM     15  C   UNL     1     -13.959 -44.944  26.338  1.00  0.00     0.039 C 
ATOM     16  C   UNL     1     -11.754 -44.304  27.317  1.00  0.00    -0.024 C 
ATOM     17  C   UNL     1     -10.616 -44.455  28.306  1.00  0.00     0.018 C 
ATOM     18  C   UNL     1     -10.745 -43.427  29.448  1.00  0.00     0.062 C 
ATOM     19  C   UNL     1     -10.605 -45.864  28.905  1.00  0.00     0.017 C 
ATOM     20  H   UNL     1     -11.693 -41.907  31.288  1.00  0.00     0.166 HD
ENDROOT
BRANCH   4  21
ATOM     21  N   UNL     1     -13.838 -46.551  31.648  1.00  0.00    -0.300 NA
ATOM     22  H   UNL     1     -14.426 -46.768  30.847  1.00  0.00     0.188 HD
ENDBRANCH   4  21
TORSDOF 1
ENDMDL
MODEL 8
REMARK VINA RESULT:    -8.837      5.129      9.645
REMARK INTER + INTRA:          -9.095
REMARK INTER:                  -9.095
REMARK INTRA:                   0.000
REMARK UNBOUND:                 0.000
REMARK SMILES CC1=C[C@H]2Cc3[nH]c4cc(Cl)ccc4c(=N)c3[C@@H](C1)C2
REMARK SMILES IDX 7 1 6 2 17 3 15 4 14 5 13 6 12 7 10 8 11 9 9 10 8 11 18 12
REMARK SMILES IDX 19 13 2 14 1 15 3 16 4 17 5 18 20 19 16 21
REMARK H PARENT 7 20 16 22
ROOT
ATOM      1  N   UNL     1     -18.615 -42.048  24.892  1.00  0.00    -0.358 N 
ATOM      2  C   UNL     1     -19.294 -41.368  23.906  1.00  0.00     0.021 A 
ATOM      3  C   UNL     1     -18.694 -40.901  22.790  1.00  0.00     0.000 A 
ATOM      4  C   UNL     1     -17.224 -41.143  22.603  1.00  0.00     0.068 A 
ATOM      5  C   UNL     1     -16.522 -41.959  23.646  1.00  0.00     0.023 A 
ATOM      6  C   UNL     1     -15.165 -42.299  23.541  1.00  0.00     0.014 A 
ATOM      7  C   UNL     1     -14.550 -43.055  24.544  1.00  0.00     0.021 A 
ATOM      8  C   UNL     1     -15.285 -43.468  25.649  1.00  0.00     0.043 A 
ATOM      9  Cl  UNL     1     -14.523 -44.390  26.886  1.00  0.00    -0.084 Cl
ATOM     10  C   UNL     1     -16.635 -43.142  25.764  1.00  0.00     0.047 A 
ATOM     11  C   UNL     1     -17.266 -42.399  24.757  1.00  0.00     0.049 A 
ATOM     12  C   UNL     1     -19.432 -40.121  21.712  1.00  0.00     0.028 C 
ATOM     13  C   UNL     1     -19.827 -41.044  20.536  1.00  0.00     0.039 C 
ATOM     14  C   UNL     1     -21.059 -41.888  20.809  1.00  0.00    -0.076 C 
ATOM     15  C   UNL     1     -21.362 -42.955  19.799  1.00  0.00     0.039 C 
ATOM     16  C   UNL     1     -21.823 -41.691  21.901  1.00  0.00    -0.024 C 
ATOM     17  C   UNL     1     -21.542 -40.601  22.916  1.00  0.00     0.018 C 
ATOM     18  C   UNL     1     -20.787 -41.171  24.134  1.00  0.00     0.062 C 
ATOM     19  C   UNL     1     -20.703 -39.483  22.290  1.00  0.00     0.017 C 
ATOM     20  H   UNL     1     -19.163 -42.500  25.615  1.00  0.00     0.166 HD
ENDROOT
BRANCH   4  21
ATOM     21  N   UNL     1     -16.633 -40.645  21.558  1.00  0.00    -0.300 NA
ATOM     22  H   UNL     1     -16.927 -41.079  20.686  1.00  0.00     0.188 HD
ENDBRANCH   4  21
TORSDOF 1
ENDMDL
MODEL 9
REMARK VINA RESULT:    -8.799      1.764      2.348
REMARK INTER + INTRA:          -9.056
REMARK INTER:                  -9.056
REMARK INTRA:                   0.000
REMARK UNBOUND:                 0.000
REMARK SMILES CC1=C[C@H]2Cc3[nH]c4cc(Cl)ccc4c(=N)c3[C@@H](C1)C2
REMARK SMILES IDX 7 1 6 2 17 3 15 4 14 5 13 6 12 7 10 8 11 9 9 10 8 11 18 12
REMARK SMILES IDX 19 13 2 14 1 15 3 16 4 17 5 18 20 19 16 21
REMARK H PARENT 7 20 16 22
ROOT
ATOM      1  N   UNL     1     -13.771 -45.060  28.560  1.00  0.00    -0.358 N 
ATOM      2  C   UNL     1     -12.532 -45.191  29.148  1.00  0.00     0.021 A 
ATOM      3  C   UNL     1     -11.463 -44.453  28.779  1.00  0.00     0.000 A 
ATOM      4  C   UNL     1     -11.629 -43.431  27.692  1.00  0.00     0.068 A 
ATOM      5  C   UNL     1     -13.004 -43.244  27.126  1.00  0.00     0.023 A 
ATOM      6  C   UNL     1     -13.286 -42.275  26.151  1.00  0.00     0.014 A 
ATOM      7  C   UNL     1     -14.582 -42.143  25.646  1.00  0.00     0.021 A 
ATOM      8  C   UNL     1     -15.595 -42.976  26.110  1.00  0.00     0.043 A 
ATOM      9  Cl  UNL     1     -17.188 -42.817  25.478  1.00  0.00    -0.084 Cl
ATOM     10  C   UNL     1     -15.330 -43.939  27.081  1.00  0.00     0.047 A 
ATOM     11  C   UNL     1     -14.038 -44.070  27.607  1.00  0.00     0.049 A 
ATOM     12  C   UNL     1     -10.084 -44.617  29.401  1.00  0.00     0.028 C 
ATOM     13  C   UNL     1      -9.842 -43.550  30.494  1.00  0.00     0.039 C 
ATOM     14  C   UNL     1     -10.510 -43.870  31.820  1.00  0.00    -0.076 C 
ATOM     15  C   UNL     1     -10.494 -42.775  32.845  1.00  0.00     0.039 C 
ATOM     16  C   UNL     1     -11.089 -45.065  32.049  1.00  0.00    -0.024 C 
ATOM     17  C   UNL     1     -11.089 -46.188  31.031  1.00  0.00     0.018 C 
ATOM     18  C   UNL     1     -12.425 -46.225  30.261  1.00  0.00     0.062 C 
ATOM     19  C   UNL     1      -9.944 -46.010  30.030  1.00  0.00     0.017 C 
ATOM     20  H   UNL     1     -14.552 -45.533  28.999  1.00  0.00     0.166 HD
ENDROOT
BRANCH   4  21
ATOM     21  N   UNL     1     -10.588 -42.760  27.296  1.00  0.00    -0.300 NA
ATOM     22  H   UNL     1     -10.140 -42.237  28.045  1.00  0.00     0.188 HD
ENDBRANCH   4  21
TORSDOF 1
ENDMDL
