MODEL 1
REMARK VINA RESULT:   -11.095      0.000      0.000
REMARK INTER + INTRA:         -14.053
REMARK INTER:                 -13.040
REMARK INTRA:                  -1.012
REMARK UNBOUND:                -1.012
REMARK SMILES Oc1ccc([C@@H]2C=C(c3c4ccccc4cc4ccccc34)NN2)c(O)c1
REMARK SMILES IDX 5 1 4 2 3 3 2 4 27 5 25 6 6 7 23 8 24 9 8 10 7 11 9 14 10 15
REMARK SMILES IDX 22 16 11 17 15 18 21 19 17 20 12 21 14 22 16 23 20 24 18 25
REMARK SMILES IDX 13 26 19 27 26 28 1 30
REMARK H PARENT 23 12 24 13 26 29 1 31
ROOT
ATOM      1  C   UNL     1     -15.782 -42.999  24.604  1.00  0.00     0.017 A 
ATOM      2  C   UNL     1     -16.234 -42.474  25.830  1.00  0.00     0.013 A 
ATOM      3  C   UNL     1     -15.713 -42.930  27.043  1.00  0.00     0.047 A 
ATOM      4  C   UNL     1     -14.743 -43.924  27.046  1.00  0.00     0.119 A 
ATOM      5  C   UNL     1     -14.282 -44.470  25.854  1.00  0.00     0.092 A 
ATOM      6  C   UNL     1     -14.802 -44.005  24.647  1.00  0.00     0.124 A 
ENDROOT
BRANCH   1   7
ATOM      7  C   UNL     1     -16.422 -42.504  23.323  1.00  0.00     0.133 C 
ATOM      8  N   UNL     1     -18.475 -42.931  22.326  1.00  0.00    -0.320 N 
ATOM      9  N   UNL     1     -17.243 -43.568  22.640  1.00  0.00    -0.225 NA
ATOM     10  C   UNL     1     -18.555 -41.723  22.984  1.00  0.00     0.055 C 
ATOM     11  C   UNL     1     -17.395 -41.390  23.555  1.00  0.00     0.026 C 
ATOM     12  H   UNL     1     -19.343 -43.473  22.336  1.00  0.00     0.181 HD
ATOM     13  H   UNL     1     -16.756 -43.818  21.774  1.00  0.00     0.148 HD
BRANCH  10  14
ATOM     14  C   UNL     1     -19.807 -40.952  23.035  1.00  0.00     0.014 A 
ATOM     15  C   UNL     1     -20.209 -40.186  21.897  1.00  0.00    -0.008 A 
ATOM     16  C   UNL     1     -20.602 -40.986  24.222  1.00  0.00    -0.008 A 
ATOM     17  C   UNL     1     -19.468 -40.099  20.690  1.00  0.00     0.009 A 
ATOM     18  C   UNL     1     -21.418 -39.460  21.965  1.00  0.00    -0.017 A 
ATOM     19  C   UNL     1     -20.263 -41.722  25.387  1.00  0.00     0.009 A 
ATOM     20  C   UNL     1     -21.805 -40.249  24.252  1.00  0.00    -0.017 A 
ATOM     21  C   UNL     1     -19.905 -39.333  19.606  1.00  0.00     0.001 A 
ATOM     22  C   UNL     1     -21.847 -38.694  20.867  1.00  0.00     0.009 A 
ATOM     23  C   UNL     1     -22.194 -39.502  23.132  1.00  0.00     0.017 A 
ATOM     24  C   UNL     1     -21.075 -41.725  26.524  1.00  0.00     0.001 A 
ATOM     25  C   UNL     1     -22.615 -40.260  25.402  1.00  0.00     0.009 A 
ATOM     26  C   UNL     1     -21.097 -38.630  19.695  1.00  0.00     0.001 A 
ATOM     27  C   UNL     1     -22.253 -40.993  26.531  1.00  0.00     0.001 A 
ENDBRANCH  10  14
ENDBRANCH   1   7
BRANCH   6  28
ATOM     28  O   UNL     1     -14.300 -44.580  23.511  1.00  0.00    -0.507 OA
ATOM     29  H   UNL     1     -15.072 -44.902  22.996  1.00  0.00     0.293 HD
ENDBRANCH   6  28
BRANCH   4  30
ATOM     30  O   UNL     1     -14.264 -44.343  28.252  1.00  0.00    -0.508 OA
ATOM     31  H   UNL     1     -13.334 -44.602  28.137  1.00  0.00     0.293 HD
ENDBRANCH   4  30
TORSDOF 4
ENDMDL
MODEL 2
REMARK VINA RESULT:   -11.001      0.123      3.547
REMARK INTER + INTRA:         -13.943
REMARK INTER:                 -12.925
REMARK INTRA:                  -1.018
REMARK UNBOUND:                -1.012
REMARK SMILES Oc1ccc([C@@H]2C=C(c3c4ccccc4cc4ccccc34)NN2)c(O)c1
REMARK SMILES IDX 5 1 4 2 3 3 2 4 27 5 25 6 6 7 23 8 24 9 8 10 7 11 9 14 10 15
REMARK SMILES IDX 22 16 11 17 15 18 21 19 17 20 12 21 14 22 16 23 20 24 18 25
REMARK SMILES IDX 13 26 19 27 26 28 1 30
REMARK H PARENT 23 12 24 13 26 29 1 31
ROOT
ATOM      1  C   UNL     1     -15.881 -42.983  24.575  1.00  0.00     0.017 A 
ATOM      2  C   UNL     1     -16.364 -42.468  25.793  1.00  0.00     0.013 A 
ATOM      3  C   UNL     1     -15.836 -42.897  27.013  1.00  0.00     0.047 A 
ATOM      4  C   UNL     1     -14.828 -43.852  27.031  1.00  0.00     0.119 A 
ATOM      5  C   UNL     1     -14.336 -44.386  25.847  1.00  0.00     0.092 A 
ATOM      6  C   UNL     1     -14.862 -43.950  24.633  1.00  0.00     0.124 A 
ENDROOT
BRANCH   1   7
ATOM      7  C   UNL     1     -16.528 -42.521  23.284  1.00  0.00     0.133 C 
ATOM      8  N   UNL     1     -18.602 -42.941  22.330  1.00  0.00    -0.320 N 
ATOM      9  N   UNL     1     -17.380 -43.592  22.651  1.00  0.00    -0.225 NA
ATOM     10  C   UNL     1     -18.650 -41.709  22.945  1.00  0.00     0.055 C 
ATOM     11  C   UNL     1     -17.476 -41.380  23.489  1.00  0.00     0.026 C 
ATOM     12  H   UNL     1     -19.481 -43.465  22.371  1.00  0.00     0.181 HD
ATOM     13  H   UNL     1     -16.909 -43.883  21.789  1.00  0.00     0.148 HD
BRANCH  10  14
ATOM     14  C   UNL     1     -19.885 -40.912  22.984  1.00  0.00     0.014 A 
ATOM     15  C   UNL     1     -20.693 -40.923  24.163  1.00  0.00    -0.008 A 
ATOM     16  C   UNL     1     -20.253 -40.136  21.842  1.00  0.00    -0.008 A 
ATOM     17  C   UNL     1     -20.396 -41.674  25.329  1.00  0.00     0.009 A 
ATOM     18  C   UNL     1     -21.871 -40.144  24.181  1.00  0.00    -0.017 A 
ATOM     19  C   UNL     1     -19.500 -40.080  20.641  1.00  0.00     0.009 A 
ATOM     20  C   UNL     1     -21.437 -39.368  21.898  1.00  0.00    -0.017 A 
ATOM     21  C   UNL     1     -21.222 -41.652  26.456  1.00  0.00     0.001 A 
ATOM     22  C   UNL     1     -22.694 -40.129  25.322  1.00  0.00     0.009 A 
ATOM     23  C   UNL     1     -22.223 -39.383  23.058  1.00  0.00     0.017 A 
ATOM     24  C   UNL     1     -19.900 -39.304  19.551  1.00  0.00     0.001 A 
ATOM     25  C   UNL     1     -21.829 -38.590  20.795  1.00  0.00     0.009 A 
ATOM     26  C   UNL     1     -22.372 -40.878  26.452  1.00  0.00     0.001 A 
ATOM     27  C   UNL     1     -21.067 -38.557  19.628  1.00  0.00     0.001 A 
ENDBRANCH  10  14
ENDBRANCH   1   7
BRANCH   6  28
ATOM     28  O   UNL     1     -14.328 -44.512  23.505  1.00  0.00    -0.507 OA
ATOM     29  H   UNL     1     -15.038 -45.059  23.101  1.00  0.00     0.293 HD
ENDBRANCH   6  28
BRANCH   4  30
ATOM     30  O   UNL     1     -14.344 -44.244  28.244  1.00  0.00    -0.508 OA
ATOM     31  H   UNL     1     -14.848 -45.021  28.536  1.00  0.00     0.293 HD
ENDBRANCH   4  30
TORSDOF 4
ENDMDL
MODEL 3
REMARK VINA RESULT:   -10.917      3.512      7.306
REMARK INTER + INTRA:         -13.844
REMARK INTER:                 -13.397
REMARK INTRA:                  -0.447
REMARK UNBOUND:                -1.012
REMARK SMILES Oc1ccc([C@@H]2C=C(c3c4ccccc4cc4ccccc34)NN2)c(O)c1
REMARK SMILES IDX 5 1 4 2 3 3 2 4 27 5 25 6 6 7 23 8 24 9 8 10 7 11 9 14 10 15
REMARK SMILES IDX 22 16 11 17 15 18 21 19 17 20 12 21 14 22 16 23 20 24 18 25
REMARK SMILES IDX 13 26 19 27 26 28 1 30
REMARK H PARENT 23 12 24 13 26 29 1 31
ROOT
ATOM      1  C   UNL     1     -21.515 -40.226  19.746  1.00  0.00     0.017 A 
ATOM      2  C   UNL     1     -22.504 -40.801  18.924  1.00  0.00     0.013 A 
ATOM      3  C   UNL     1     -23.651 -40.086  18.573  1.00  0.00     0.047 A 
ATOM      4  C   UNL     1     -23.829 -38.792  19.046  1.00  0.00     0.119 A 
ATOM      5  C   UNL     1     -22.877 -38.199  19.866  1.00  0.00     0.092 A 
ATOM      6  C   UNL     1     -21.732 -38.917  20.208  1.00  0.00     0.124 A 
ENDROOT
BRANCH   1   7
ATOM      7  C   UNL     1     -20.318 -41.068  20.138  1.00  0.00     0.133 C 
ATOM      8  N   UNL     1     -18.437 -40.619  21.424  1.00  0.00    -0.320 N 
ATOM      9  N   UNL     1     -19.042 -40.266  20.186  1.00  0.00    -0.225 NA
ATOM     10  C   UNL     1     -19.340 -41.310  22.202  1.00  0.00     0.055 C 
ATOM     11  C   UNL     1     -20.438 -41.637  21.517  1.00  0.00     0.026 C 
ATOM     12  H   UNL     1     -17.888 -39.923  21.937  1.00  0.00     0.181 HD
ATOM     13  H   UNL     1     -18.452 -40.588  19.413  1.00  0.00     0.148 HD
BRANCH  10  14
ATOM     14  C   UNL     1     -19.076 -41.601  23.619  1.00  0.00     0.014 A 
ATOM     15  C   UNL     1     -17.837 -42.208  23.994  1.00  0.00    -0.008 A 
ATOM     16  C   UNL     1     -20.062 -41.267  24.598  1.00  0.00    -0.008 A 
ATOM     17  C   UNL     1     -16.817 -42.574  23.079  1.00  0.00     0.009 A 
ATOM     18  C   UNL     1     -17.601 -42.472  25.362  1.00  0.00    -0.017 A 
ATOM     19  C   UNL     1     -21.311 -40.666  24.297  1.00  0.00     0.009 A 
ATOM     20  C   UNL     1     -19.790 -41.544  25.955  1.00  0.00    -0.017 A 
ATOM     21  C   UNL     1     -15.624 -43.168  23.498  1.00  0.00     0.001 A 
ATOM     22  C   UNL     1     -16.396 -43.068  25.771  1.00  0.00     0.009 A 
ATOM     23  C   UNL     1     -18.572 -42.137  26.315  1.00  0.00     0.017 A 
ATOM     24  C   UNL     1     -22.244 -40.356  25.290  1.00  0.00     0.001 A 
ATOM     25  C   UNL     1     -20.735 -41.227  26.947  1.00  0.00     0.009 A 
ATOM     26  C   UNL     1     -15.413 -43.415  24.846  1.00  0.00     0.001 A 
ATOM     27  C   UNL     1     -21.955 -40.637  26.617  1.00  0.00     0.001 A 
ENDBRANCH  10  14
ENDBRANCH   1   7
BRANCH   6  28
ATOM     28  O   UNL     1     -20.832 -38.271  21.012  1.00  0.00    -0.507 OA
ATOM     29  H   UNL     1     -20.613 -38.892  21.742  1.00  0.00     0.293 HD
ENDBRANCH   6  28
BRANCH   4  30
ATOM     30  O   UNL     1     -24.964 -38.131  18.681  1.00  0.00    -0.508 OA
ATOM     31  H   UNL     1     -24.709 -37.278  18.293  1.00  0.00     0.293 HD
ENDBRANCH   4  30
TORSDOF 4
ENDMDL
MODEL 4
REMARK VINA RESULT:   -10.901      3.507      7.513
REMARK INTER + INTRA:         -13.825
REMARK INTER:                 -13.398
REMARK INTRA:                  -0.427
REMARK UNBOUND:                -1.012
REMARK SMILES Oc1ccc([C@@H]2C=C(c3c4ccccc4cc4ccccc34)NN2)c(O)c1
REMARK SMILES IDX 5 1 4 2 3 3 2 4 27 5 25 6 6 7 23 8 24 9 8 10 7 11 9 14 10 15
REMARK SMILES IDX 22 16 11 17 15 18 21 19 17 20 12 21 14 22 16 23 20 24 18 25
REMARK SMILES IDX 13 26 19 27 26 28 1 30
REMARK H PARENT 23 12 24 13 26 29 1 31
ROOT
ATOM      1  C   UNL     1     -21.513 -40.256  19.772  1.00  0.00     0.017 A 
ATOM      2  C   UNL     1     -22.501 -40.839  18.956  1.00  0.00     0.013 A 
ATOM      3  C   UNL     1     -23.654 -40.131  18.608  1.00  0.00     0.047 A 
ATOM      4  C   UNL     1     -23.838 -38.838  19.079  1.00  0.00     0.119 A 
ATOM      5  C   UNL     1     -22.886 -38.236  19.893  1.00  0.00     0.092 A 
ATOM      6  C   UNL     1     -21.735 -38.946  20.232  1.00  0.00     0.124 A 
ENDROOT
BRANCH   1   7
ATOM      7  C   UNL     1     -20.308 -41.090  20.161  1.00  0.00     0.133 C 
ATOM      8  N   UNL     1     -18.430 -40.629  21.447  1.00  0.00    -0.320 N 
ATOM      9  N   UNL     1     -19.038 -40.278  20.210  1.00  0.00    -0.225 NA
ATOM     10  C   UNL     1     -19.327 -41.329  22.224  1.00  0.00     0.055 C 
ATOM     11  C   UNL     1     -20.423 -41.663  21.540  1.00  0.00     0.026 C 
ATOM     12  H   UNL     1     -17.886 -39.930  21.960  1.00  0.00     0.181 HD
ATOM     13  H   UNL     1     -18.447 -40.594  19.436  1.00  0.00     0.148 HD
BRANCH  10  14
ATOM     14  C   UNL     1     -19.059 -41.620  23.640  1.00  0.00     0.014 A 
ATOM     15  C   UNL     1     -20.049 -41.308  24.624  1.00  0.00    -0.008 A 
ATOM     16  C   UNL     1     -17.813 -42.216  24.009  1.00  0.00    -0.008 A 
ATOM     17  C   UNL     1     -21.301 -40.710  24.334  1.00  0.00     0.009 A 
ATOM     18  C   UNL     1     -19.773 -41.603  25.977  1.00  0.00    -0.017 A 
ATOM     19  C   UNL     1     -16.787 -42.550  23.088  1.00  0.00     0.009 A 
ATOM     20  C   UNL     1     -17.574 -42.498  25.371  1.00  0.00    -0.017 A 
ATOM     21  C   UNL     1     -22.234 -40.422  25.333  1.00  0.00     0.001 A 
ATOM     22  C   UNL     1     -20.720 -41.309  26.974  1.00  0.00     0.009 A 
ATOM     23  C   UNL     1     -18.550 -42.190  26.329  1.00  0.00     0.017 A 
ATOM     24  C   UNL     1     -15.585 -43.134  23.496  1.00  0.00     0.001 A 
ATOM     25  C   UNL     1     -16.361 -43.086  25.771  1.00  0.00     0.009 A 
ATOM     26  C   UNL     1     -21.943 -40.723  26.655  1.00  0.00     0.001 A 
ATOM     27  C   UNL     1     -15.372 -43.402  24.840  1.00  0.00     0.001 A 
ENDBRANCH  10  14
ENDBRANCH   1   7
BRANCH   6  28
ATOM     28  O   UNL     1     -20.835 -38.293  21.031  1.00  0.00    -0.507 OA
ATOM     29  H   UNL     1     -21.315 -38.056  21.856  1.00  0.00     0.293 HD
ENDBRANCH   6  28
BRANCH   4  30
ATOM     30  O   UNL     1     -24.978 -38.184  18.717  1.00  0.00    -0.508 OA
ATOM     31  H   UNL     1     -24.970 -38.067  17.753  1.00  0.00     0.293 HD
ENDBRANCH   4  30
TORSDOF 4
ENDMDL
MODEL 5
REMARK VINA RESULT:   -10.095      1.585      2.008
REMARK INTER + INTRA:         -12.878
REMARK INTER:                 -11.835
REMARK INTRA:                  -1.043
REMARK UNBOUND:                -1.012
REMARK SMILES Oc1ccc([C@@H]2C=C(c3c4ccccc4cc4ccccc34)NN2)c(O)c1
REMARK SMILES IDX 5 1 4 2 3 3 2 4 27 5 25 6 6 7 23 8 24 9 8 10 7 11 9 14 10 15
REMARK SMILES IDX 22 16 11 17 15 18 21 19 17 20 12 21 14 22 16 23 20 24 18 25
REMARK SMILES IDX 13 26 19 27 26 28 1 30
REMARK H PARENT 23 12 24 13 26 29 1 31
ROOT
ATOM      1  C   UNL     1     -15.862 -43.004  25.066  1.00  0.00     0.017 A 
ATOM      2  C   UNL     1     -16.151 -42.721  26.414  1.00  0.00     0.013 A 
ATOM      3  C   UNL     1     -15.461 -43.359  27.447  1.00  0.00     0.047 A 
ATOM      4  C   UNL     1     -14.481 -44.296  27.145  1.00  0.00     0.119 A 
ATOM      5  C   UNL     1     -14.177 -44.604  25.825  1.00  0.00     0.092 A 
ATOM      6  C   UNL     1     -14.866 -43.959  24.799  1.00  0.00     0.124 A 
ENDROOT
BRANCH   1   7
ATOM      7  C   UNL     1     -16.679 -42.320  23.989  1.00  0.00     0.133 C 
ATOM      8  N   UNL     1     -18.432 -43.047  22.650  1.00  0.00    -0.320 N 
ATOM      9  N   UNL     1     -17.041 -43.253  22.861  1.00  0.00    -0.225 NA
ATOM     10  C   UNL     1     -18.957 -42.315  23.693  1.00  0.00     0.055 C 
ATOM     11  C   UNL     1     -18.003 -41.831  24.491  1.00  0.00     0.026 C 
ATOM     12  H   UNL     1     -19.020 -43.828  22.347  1.00  0.00     0.181 HD
ATOM     13  H   UNL     1     -16.520 -42.946  22.034  1.00  0.00     0.148 HD
BRANCH  10  14
ATOM     14  C   UNL     1     -20.408 -42.147  23.865  1.00  0.00     0.014 A 
ATOM     15  C   UNL     1     -21.067 -41.041  23.243  1.00  0.00    -0.008 A 
ATOM     16  C   UNL     1     -21.135 -43.096  24.648  1.00  0.00    -0.008 A 
ATOM     17  C   UNL     1     -20.411 -40.057  22.460  1.00  0.00     0.009 A 
ATOM     18  C   UNL     1     -22.462 -40.902  23.415  1.00  0.00    -0.017 A 
ATOM     19  C   UNL     1     -20.547 -44.213  25.294  1.00  0.00     0.009 A 
ATOM     20  C   UNL     1     -22.529 -42.925  24.796  1.00  0.00    -0.017 A 
ATOM     21  C   UNL     1     -21.101 -38.993  21.875  1.00  0.00     0.001 A 
ATOM     22  C   UNL     1     -23.146 -39.827  22.821  1.00  0.00     0.009 A 
ATOM     23  C   UNL     1     -23.168 -41.839  24.182  1.00  0.00     0.017 A 
ATOM     24  C   UNL     1     -21.300 -45.115  26.048  1.00  0.00     0.001 A 
ATOM     25  C   UNL     1     -23.278 -43.839  25.558  1.00  0.00     0.009 A 
ATOM     26  C   UNL     1     -22.471 -38.878  22.056  1.00  0.00     0.001 A 
ATOM     27  C   UNL     1     -22.668 -44.928  26.180  1.00  0.00     0.001 A 
ENDBRANCH  10  14
ENDBRANCH   1   7
BRANCH   6  28
ATOM     28  O   UNL     1     -14.512 -44.304  23.523  1.00  0.00    -0.507 OA
ATOM     29  H   UNL     1     -14.723 -45.260  23.423  1.00  0.00     0.293 HD
ENDBRANCH   6  28
BRANCH   4  30
ATOM     30  O   UNL     1     -13.833 -44.897  28.183  1.00  0.00    -0.508 OA
ATOM     31  H   UNL     1     -13.509 -45.761  27.879  1.00  0.00     0.293 HD
ENDBRANCH   4  30
TORSDOF 4
ENDMDL
MODEL 6
REMARK VINA RESULT:   -10.036      1.233      1.512
REMARK INTER + INTRA:         -12.808
REMARK INTER:                 -11.887
REMARK INTRA:                  -0.921
REMARK UNBOUND:                -1.012
REMARK SMILES Oc1ccc([C@@H]2C=C(c3c4ccccc4cc4ccccc34)NN2)c(O)c1
REMARK SMILES IDX 5 1 4 2 3 3 2 4 27 5 25 6 6 7 23 8 24 9 8 10 7 11 9 14 10 15
REMARK SMILES IDX 22 16 11 17 15 18 21 19 17 20 12 21 14 22 16 23 20 24 18 25
REMARK SMILES IDX 13 26 19 27 26 28 1 30
REMARK H PARENT 23 12 24 13 26 29 1 31
ROOT
ATOM      1  C   UNL     1     -16.656 -42.160  23.996  1.00  0.00     0.017 A 
ATOM      2  C   UNL     1     -17.330 -42.752  25.081  1.00  0.00     0.013 A 
ATOM      3  C   UNL     1     -16.651 -43.076  26.258  1.00  0.00     0.047 A 
ATOM      4  C   UNL     1     -15.290 -42.823  26.361  1.00  0.00     0.119 A 
ATOM      5  C   UNL     1     -14.593 -42.247  25.305  1.00  0.00     0.092 A 
ATOM      6  C   UNL     1     -15.278 -41.921  24.136  1.00  0.00     0.124 A 
ENDROOT
BRANCH   1   7
ATOM      7  C   UNL     1     -17.432 -41.878  22.725  1.00  0.00     0.133 C 
ATOM      8  N   UNL     1     -19.581 -42.435  22.043  1.00  0.00    -0.320 N 
ATOM      9  N   UNL     1     -18.320 -43.030  22.326  1.00  0.00    -0.225 NA
ATOM     10  C   UNL     1     -19.592 -41.132  22.491  1.00  0.00     0.055 C 
ATOM     11  C   UNL     1     -18.378 -40.726  22.869  1.00  0.00     0.026 C 
ATOM     12  H   UNL     1     -20.441 -42.954  22.239  1.00  0.00     0.181 HD
ATOM     13  H   UNL     1     -17.930 -43.430  21.468  1.00  0.00     0.148 HD
BRANCH  10  14
ATOM     14  C   UNL     1     -20.833 -40.344  22.544  1.00  0.00     0.014 A 
ATOM     15  C   UNL     1     -21.220 -39.563  21.412  1.00  0.00    -0.008 A 
ATOM     16  C   UNL     1     -21.632 -40.378  23.729  1.00  0.00    -0.008 A 
ATOM     17  C   UNL     1     -20.474 -39.474  20.209  1.00  0.00     0.009 A 
ATOM     18  C   UNL     1     -22.419 -38.819  21.483  1.00  0.00    -0.017 A 
ATOM     19  C   UNL     1     -21.308 -41.129  24.888  1.00  0.00     0.009 A 
ATOM     20  C   UNL     1     -22.825 -39.623  23.761  1.00  0.00    -0.017 A 
ATOM     21  C   UNL     1     -20.895 -38.693  19.130  1.00  0.00     0.001 A 
ATOM     22  C   UNL     1     -22.833 -38.037  20.390  1.00  0.00     0.009 A 
ATOM     23  C   UNL     1     -23.199 -38.861  22.646  1.00  0.00     0.017 A 
ATOM     24  C   UNL     1     -22.124 -41.131  26.022  1.00  0.00     0.001 A 
ATOM     25  C   UNL     1     -23.639 -39.634  24.908  1.00  0.00     0.009 A 
ATOM     26  C   UNL     1     -22.078 -37.974  19.222  1.00  0.00     0.001 A 
ATOM     27  C   UNL     1     -23.291 -40.382  26.031  1.00  0.00     0.001 A 
ENDBRANCH  10  14
ENDBRANCH   1   7
BRANCH   6  28
ATOM     28  O   UNL     1     -14.533 -41.351  23.139  1.00  0.00    -0.507 OA
ATOM     29  H   UNL     1     -14.096 -42.090  22.659  1.00  0.00     0.293 HD
ENDBRANCH   6  28
BRANCH   4  30
ATOM     30  O   UNL     1     -14.666 -43.158  27.526  1.00  0.00    -0.508 OA
ATOM     31  H   UNL     1     -14.660 -42.377  28.104  1.00  0.00     0.293 HD
ENDBRANCH   4  30
TORSDOF 4
ENDMDL
MODEL 7
REMARK VINA RESULT:    -9.789      6.757     11.674
REMARK INTER + INTRA:         -12.518
REMARK INTER:                 -13.181
REMARK INTRA:                   0.663
REMARK UNBOUND:                -1.012
REMARK SMILES Oc1ccc([C@@H]2C=C(c3c4ccccc4cc4ccccc34)NN2)c(O)c1
REMARK SMILES IDX 5 1 4 2 3 3 2 4 27 5 25 6 6 7 23 8 24 9 8 10 7 11 9 14 10 15
REMARK SMILES IDX 22 16 11 17 15 18 21 19 17 20 12 21 14 22 16 23 20 24 18 25
REMARK SMILES IDX 13 26 19 27 26 28 1 30
REMARK H PARENT 23 12 24 13 26 29 1 31
ROOT
ATOM      1  C   UNL     1     -13.564 -45.413  27.836  1.00  0.00     0.017 A 
ATOM      2  C   UNL     1     -14.282 -44.204  27.910  1.00  0.00     0.013 A 
ATOM      3  C   UNL     1     -14.796 -43.602  26.759  1.00  0.00     0.047 A 
ATOM      4  C   UNL     1     -14.591 -44.196  25.520  1.00  0.00     0.119 A 
ATOM      5  C   UNL     1     -13.880 -45.385  25.412  1.00  0.00     0.092 A 
ATOM      6  C   UNL     1     -13.375 -45.983  26.565  1.00  0.00     0.124 A 
ENDROOT
BRANCH   1   7
ATOM      7  C   UNL     1     -12.984 -45.992  29.111  1.00  0.00     0.133 C 
ATOM      8  N   UNL     1     -10.912 -45.768  30.135  1.00  0.00    -0.320 N 
ATOM      9  N   UNL     1     -11.520 -46.327  28.977  1.00  0.00    -0.225 NA
ATOM     10  C   UNL     1     -11.802 -44.929  30.769  1.00  0.00     0.055 C 
ATOM     11  C   UNL     1     -13.031 -45.029  30.256  1.00  0.00     0.026 C 
ATOM     12  H   UNL     1      -9.957 -45.403  30.080  1.00  0.00     0.181 HD
ATOM     13  H   UNL     1     -11.439 -47.347  29.005  1.00  0.00     0.148 HD
BRANCH  10  14
ATOM     14  C   UNL     1     -11.380 -44.036  31.858  1.00  0.00     0.014 A 
ATOM     15  C   UNL     1     -12.367 -43.322  32.607  1.00  0.00    -0.008 A 
ATOM     16  C   UNL     1      -9.988 -43.900  32.152  1.00  0.00    -0.008 A 
ATOM     17  C   UNL     1     -13.763 -43.401  32.367  1.00  0.00     0.009 A 
ATOM     18  C   UNL     1     -11.940 -42.476  33.654  1.00  0.00    -0.017 A 
ATOM     19  C   UNL     1      -8.956 -44.574  31.450  1.00  0.00     0.009 A 
ATOM     20  C   UNL     1      -9.599 -43.045  33.207  1.00  0.00    -0.017 A 
ATOM     21  C   UNL     1     -14.688 -42.681  33.127  1.00  0.00     0.001 A 
ATOM     22  C   UNL     1     -12.880 -41.757  34.412  1.00  0.00     0.009 A 
ATOM     23  C   UNL     1     -10.573 -42.351  33.937  1.00  0.00     0.017 A 
ATOM     24  C   UNL     1      -7.608 -44.410  31.776  1.00  0.00     0.001 A 
ATOM     25  C   UNL     1      -8.239 -42.888  33.526  1.00  0.00     0.009 A 
ATOM     26  C   UNL     1     -14.245 -41.857  34.152  1.00  0.00     0.001 A 
ATOM     27  C   UNL     1      -7.249 -43.566  32.816  1.00  0.00     0.001 A 
ENDBRANCH  10  14
ENDBRANCH   1   7
BRANCH   6  28
ATOM     28  O   UNL     1     -12.690 -47.155  26.388  1.00  0.00    -0.507 OA
ATOM     29  H   UNL     1     -13.281 -47.748  25.872  1.00  0.00     0.293 HD
ENDBRANCH   6  28
BRANCH   4  30
ATOM     30  O   UNL     1     -15.107 -43.574  24.422  1.00  0.00    -0.508 OA
ATOM     31  H   UNL     1     -14.425 -43.562  23.730  1.00  0.00     0.293 HD
ENDBRANCH   4  30
TORSDOF 4
ENDMDL
MODEL 8
REMARK VINA RESULT:    -9.398      3.466      7.049
REMARK INTER + INTRA:         -12.058
REMARK INTER:                 -10.983
REMARK INTRA:                  -1.075
REMARK UNBOUND:                -1.012
REMARK SMILES Oc1ccc([C@@H]2C=C(c3c4ccccc4cc4ccccc34)NN2)c(O)c1
REMARK SMILES IDX 5 1 4 2 3 3 2 4 27 5 25 6 6 7 23 8 24 9 8 10 7 11 9 14 10 15
REMARK SMILES IDX 22 16 11 17 15 18 21 19 17 20 12 21 14 22 16 23 20 24 18 25
REMARK SMILES IDX 13 26 19 27 26 28 1 30
REMARK H PARENT 23 12 24 13 26 29 1 31
ROOT
ATOM      1  C   UNL     1     -22.366 -41.919  27.119  1.00  0.00     0.017 A 
ATOM      2  C   UNL     1     -22.332 -40.518  26.985  1.00  0.00     0.013 A 
ATOM      3  C   UNL     1     -23.494 -39.755  27.117  1.00  0.00     0.047 A 
ATOM      4  C   UNL     1     -24.706 -40.382  27.375  1.00  0.00     0.119 A 
ATOM      5  C   UNL     1     -24.776 -41.764  27.505  1.00  0.00     0.092 A 
ATOM      6  C   UNL     1     -23.611 -42.519  27.377  1.00  0.00     0.124 A 
ENDROOT
BRANCH   1   7
ATOM      7  C   UNL     1     -21.084 -42.700  26.912  1.00  0.00     0.133 C 
ATOM      8  N   UNL     1     -20.175 -43.762  25.057  1.00  0.00    -0.320 N 
ATOM      9  N   UNL     1     -21.264 -43.861  25.967  1.00  0.00    -0.225 NA
ATOM     10  C   UNL     1     -19.558 -42.538  25.202  1.00  0.00     0.055 C 
ATOM     11  C   UNL     1     -20.005 -41.880  26.274  1.00  0.00     0.026 C 
ATOM     12  H   UNL     1     -20.300 -44.056  24.084  1.00  0.00     0.181 HD
ATOM     13  H   UNL     1     -21.171 -44.718  26.520  1.00  0.00     0.148 HD
BRANCH  10  14
ATOM     14  C   UNL     1     -18.553 -42.061  24.241  1.00  0.00     0.014 A 
ATOM     15  C   UNL     1     -17.169 -42.338  24.474  1.00  0.00    -0.008 A 
ATOM     16  C   UNL     1     -18.977 -41.333  23.087  1.00  0.00    -0.008 A 
ATOM     17  C   UNL     1     -16.674 -43.046  25.599  1.00  0.00     0.009 A 
ATOM     18  C   UNL     1     -16.221 -41.876  23.535  1.00  0.00    -0.017 A 
ATOM     19  C   UNL     1     -20.330 -41.022  22.795  1.00  0.00     0.009 A 
ATOM     20  C   UNL     1     -18.000 -40.890  22.169  1.00  0.00    -0.017 A 
ATOM     21  C   UNL     1     -15.311 -43.288  25.782  1.00  0.00     0.001 A 
ATOM     22  C   UNL     1     -14.851 -42.127  23.729  1.00  0.00     0.009 A 
ATOM     23  C   UNL     1     -16.646 -41.166  22.404  1.00  0.00     0.017 A 
ATOM     24  C   UNL     1     -20.696 -40.308  21.651  1.00  0.00     0.001 A 
ATOM     25  C   UNL     1     -18.380 -40.172  21.021  1.00  0.00     0.009 A 
ATOM     26  C   UNL     1     -14.398 -42.827  24.845  1.00  0.00     0.001 A 
ATOM     27  C   UNL     1     -19.719 -39.883  20.763  1.00  0.00     0.001 A 
ENDBRANCH  10  14
ENDBRANCH   1   7
BRANCH   6  28
ATOM     28  O   UNL     1     -23.749 -43.873  27.522  1.00  0.00    -0.507 OA
ATOM     29  H   UNL     1     -22.975 -44.179  28.046  1.00  0.00     0.293 HD
ENDBRANCH   6  28
BRANCH   4  30
ATOM     30  O   UNL     1     -25.816 -39.600  27.495  1.00  0.00    -0.508 OA
ATOM     31  H   UNL     1     -25.538 -38.670  27.466  1.00  0.00     0.293 HD
ENDBRANCH   4  30
TORSDOF 4
ENDMDL
MODEL 9
REMARK VINA RESULT:    -9.332      3.986      7.411
REMARK INTER + INTRA:         -11.981
REMARK INTER:                 -11.068
REMARK INTRA:                  -0.913
REMARK UNBOUND:                -1.012
REMARK SMILES Oc1ccc([C@@H]2C=C(c3c4ccccc4cc4ccccc34)NN2)c(O)c1
REMARK SMILES IDX 5 1 4 2 3 3 2 4 27 5 25 6 6 7 23 8 24 9 8 10 7 11 9 14 10 15
REMARK SMILES IDX 22 16 11 17 15 18 21 19 17 20 12 21 14 22 16 23 20 24 18 25
REMARK SMILES IDX 13 26 19 27 26 28 1 30
REMARK H PARENT 23 12 24 13 26 29 1 31
ROOT
ATOM      1  C   UNL     1     -23.420 -40.322  27.352  1.00  0.00     0.017 A 
ATOM      2  C   UNL     1     -23.583 -39.171  26.557  1.00  0.00     0.013 A 
ATOM      3  C   UNL     1     -24.545 -38.210  26.874  1.00  0.00     0.047 A 
ATOM      4  C   UNL     1     -25.363 -38.391  27.982  1.00  0.00     0.119 A 
ATOM      5  C   UNL     1     -25.234 -39.520  28.782  1.00  0.00     0.092 A 
ATOM      6  C   UNL     1     -24.267 -40.473  28.463  1.00  0.00     0.124 A 
ENDROOT
BRANCH   1   7
ATOM      7  C   UNL     1     -22.396 -41.357  26.930  1.00  0.00     0.133 C 
ATOM      8  N   UNL     1     -22.031 -42.479  24.930  1.00  0.00    -0.320 N 
ATOM      9  N   UNL     1     -22.972 -42.388  25.992  1.00  0.00    -0.225 NA
ATOM     10  C   UNL     1     -21.134 -41.436  25.012  1.00  0.00     0.055 C 
ATOM     11  C   UNL     1     -21.259 -40.763  26.158  1.00  0.00     0.026 C 
ATOM     12  H   UNL     1     -22.358 -42.677  23.980  1.00  0.00     0.181 HD
ATOM     13  H   UNL     1     -23.002 -43.276  26.501  1.00  0.00     0.148 HD
BRANCH  10  14
ATOM     14  C   UNL     1     -20.192 -41.139  23.923  1.00  0.00     0.014 A 
ATOM     15  C   UNL     1     -18.866 -41.673  23.972  1.00  0.00    -0.008 A 
ATOM     16  C   UNL     1     -20.622 -40.325  22.829  1.00  0.00    -0.008 A 
ATOM     17  C   UNL     1     -18.369 -42.479  25.027  1.00  0.00     0.009 A 
ATOM     18  C   UNL     1     -17.981 -41.380  22.911  1.00  0.00    -0.017 A 
ATOM     19  C   UNL     1     -21.919 -39.763  22.716  1.00  0.00     0.009 A 
ATOM     20  C   UNL     1     -19.709 -40.057  21.786  1.00  0.00    -0.017 A 
ATOM     21  C   UNL     1     -17.062 -42.974  25.029  1.00  0.00     0.001 A 
ATOM     22  C   UNL     1     -16.669 -41.885  22.924  1.00  0.00     0.009 A 
ATOM     23  C   UNL     1     -18.412 -40.584  21.841  1.00  0.00     0.017 A 
ATOM     24  C   UNL     1     -22.293 -38.974  21.626  1.00  0.00     0.001 A 
ATOM     25  C   UNL     1     -20.096 -39.262  20.693  1.00  0.00     0.009 A 
ATOM     26  C   UNL     1     -16.211 -42.676  23.975  1.00  0.00     0.001 A 
ATOM     27  C   UNL     1     -21.380 -38.724  20.612  1.00  0.00     0.001 A 
ENDBRANCH  10  14
ENDBRANCH   1   7
BRANCH   6  28
ATOM     28  O   UNL     1     -24.189 -41.556  29.296  1.00  0.00    -0.507 OA
ATOM     29  H   UNL     1     -24.016 -41.203  30.198  1.00  0.00     0.293 HD
ENDBRANCH   6  28
BRANCH   4  30
ATOM     30  O   UNL     1     -26.291 -37.430  28.253  1.00  0.00    -0.508 OA
ATOM     31  H   UNL     1     -25.852 -36.564  28.215  1.00  0.00     0.293 HD
ENDBRANCH   4  30
TORSDOF 4
ENDMDL
