MODEL 1
REMARK VINA RESULT:   -13.380      0.000      0.000
REMARK INTER + INTRA:         -19.949
REMARK INTER:                 -18.855
REMARK INTRA:                  -1.094
REMARK UNBOUND:                -1.094
REMARK SMILES O=C(Nc1ccccc1)c1ccc2c(c1)C(=O)N(CC[C@H]1CC[N@H+](Cc3ccccc3)CC1)C2=O
REMARK SMILES IDX 20 1 21 2 23 3 24 4 22 5 32 6 33 7 25 9 26 10 27 11 31 12
REMARK SMILES IDX 28 13 30 14 29 15 19 16 18 17 16 18 34 19 14 20 13 21 15 22
REMARK SMILES IDX 12 23 10 24 11 25 17 26 35 27 2 28 3 29 1 30 4 32 5 33 9 34
REMARK SMILES IDX 6 35 8 36 7 37
REMARK H PARENT 24 8 3 31
ROOT
ATOM      1  C   UNL     1     -13.745 -45.319  26.532  1.00  0.00     0.026 C 
ENDROOT
BRANCH   1   2
ATOM      2  C   UNL     1     -13.099 -45.903  27.804  1.00  0.00     0.002 C 
ATOM      3  C   UNL     1     -10.898 -46.532  28.893  1.00  0.00     0.262 C 
ATOM      4  N   UNL     1     -11.302 -45.738  30.112  1.00  0.00    -0.331 N 
ATOM      5  C   UNL     1     -11.571 -45.952  27.653  1.00  0.00     0.065 C 
ATOM      6  C   UNL     1     -12.798 -45.703  30.302  1.00  0.00     0.262 C 
ATOM      7  C   UNL     1     -13.454 -45.105  29.066  1.00  0.00     0.065 C 
ATOM      8  H   UNL     1     -10.983 -44.773  29.960  1.00  0.00     0.348 HD
BRANCH   4   9
ATOM      9  C   UNL     1     -10.603 -46.211  31.372  1.00  0.00     0.299 C 
BRANCH   9  10
ATOM     10  C   UNL     1      -9.425 -45.355  31.750  1.00  0.00     0.006 A 
ATOM     11  C   UNL     1      -9.618 -44.085  32.315  1.00  0.00     0.009 A 
ATOM     12  C   UNL     1      -8.115 -45.825  31.562  1.00  0.00     0.009 A 
ATOM     13  C   UNL     1      -8.523 -43.305  32.690  1.00  0.00     0.001 A 
ATOM     14  C   UNL     1      -7.024 -45.041  31.939  1.00  0.00     0.001 A 
ATOM     15  C   UNL     1      -7.228 -43.784  32.504  1.00  0.00     0.000 A 
ENDBRANCH   9  10
ENDBRANCH   4   9
ENDBRANCH   1   2
BRANCH   1  16
ATOM     16  C   UNL     1     -13.791 -43.785  26.468  1.00  0.00     0.129 C 
BRANCH  16  17
ATOM     17  N   UNL     1     -15.093 -43.271  26.085  1.00  0.00    -0.274 N 
ATOM     18  C   UNL     1     -15.483 -43.109  24.783  1.00  0.00     0.261 C 
ATOM     19  C   UNL     1     -16.102 -42.967  26.957  1.00  0.00     0.261 C 
ATOM     20  C   UNL     1     -16.845 -42.578  24.818  1.00  0.00     0.054 A 
ATOM     21  C   UNL     1     -17.219 -42.478  26.148  1.00  0.00     0.053 A 
ATOM     22  C   UNL     1     -17.697 -42.232  23.789  1.00  0.00     0.028 A 
ATOM     23  C   UNL     1     -18.467 -42.019  26.526  1.00  0.00     0.015 A 
ATOM     24  C   UNL     1     -18.967 -41.752  24.144  1.00  0.00     0.041 A 
ATOM     25  C   UNL     1     -19.351 -41.652  25.503  1.00  0.00     0.015 A 
ATOM     26  O   UNL     1     -14.870 -43.366  23.767  1.00  0.00    -0.269 OA
ATOM     27  O   UNL     1     -16.142 -43.117  28.164  1.00  0.00    -0.269 OA
BRANCH  24  28
ATOM     28  C   UNL     1     -19.917 -41.413  23.049  1.00  0.00     0.255 C 
ATOM     29  N   UNL     1     -19.866 -40.102  22.619  1.00  0.00    -0.322 N 
ATOM     30  O   UNL     1     -20.627 -42.315  22.625  1.00  0.00    -0.269 OA
ATOM     31  H   UNL     1     -19.134 -39.513  22.993  1.00  0.00     0.170 HD
BRANCH  29  32
ATOM     32  C   UNL     1     -20.676 -39.497  21.632  1.00  0.00     0.041 A 
ATOM     33  C   UNL     1     -21.975 -39.041  21.860  1.00  0.00     0.026 A 
ATOM     34  C   UNL     1     -20.121 -39.345  20.354  1.00  0.00     0.026 A 
ATOM     35  C   UNL     1     -22.709 -38.447  20.829  1.00  0.00     0.002 A 
ATOM     36  C   UNL     1     -20.855 -38.751  19.324  1.00  0.00     0.002 A 
ATOM     37  C   UNL     1     -22.150 -38.302  19.562  1.00  0.00     0.000 A 
ENDBRANCH  29  32
ENDBRANCH  24  28
ENDBRANCH  16  17
ENDBRANCH   1  16
TORSDOF 7
ENDMDL
MODEL 2
REMARK VINA RESULT:   -12.984      2.385      3.800
REMARK INTER + INTRA:         -19.391
REMARK INTER:                 -18.271
REMARK INTRA:                  -1.120
REMARK UNBOUND:                -1.094
REMARK SMILES O=C(Nc1ccccc1)c1ccc2c(c1)C(=O)N(CC[C@H]1CC[N@H+](Cc3ccccc3)CC1)C2=O
REMARK SMILES IDX 20 1 21 2 23 3 24 4 22 5 32 6 33 7 25 9 26 10 27 11 31 12
REMARK SMILES IDX 28 13 30 14 29 15 19 16 18 17 16 18 34 19 14 20 13 21 15 22
REMARK SMILES IDX 12 23 10 24 11 25 17 26 35 27 2 28 3 29 1 30 4 32 5 33 9 34
REMARK SMILES IDX 6 35 8 36 7 37
REMARK H PARENT 24 8 3 31
ROOT
ATOM      1  C   UNL     1     -13.799 -45.074  26.504  1.00  0.00     0.026 C 
ENDROOT
BRANCH   1   2
ATOM      2  C   UNL     1     -13.204 -45.697  27.782  1.00  0.00     0.002 C 
ATOM      3  C   UNL     1     -11.058 -46.461  28.894  1.00  0.00     0.262 C 
ATOM      4  N   UNL     1     -11.426 -45.644  30.110  1.00  0.00    -0.331 N 
ATOM      5  C   UNL     1     -11.680 -45.839  27.648  1.00  0.00     0.065 C 
ATOM      6  C   UNL     1     -12.919 -45.519  30.283  1.00  0.00     0.262 C 
ATOM      7  C   UNL     1     -13.524 -44.881  29.041  1.00  0.00     0.065 C 
ATOM      8  H   UNL     1     -11.048 -44.700  29.963  1.00  0.00     0.348 HD
BRANCH   4   9
ATOM      9  C   UNL     1     -10.771 -46.160  31.377  1.00  0.00     0.299 C 
BRANCH   9  10
ATOM     10  C   UNL     1      -9.514 -45.417  31.736  1.00  0.00     0.006 A 
ATOM     11  C   UNL     1      -8.255 -45.987  31.492  1.00  0.00     0.009 A 
ATOM     12  C   UNL     1      -9.582 -44.133  32.299  1.00  0.00     0.009 A 
ATOM     13  C   UNL     1      -7.090 -45.283  31.801  1.00  0.00     0.001 A 
ATOM     14  C   UNL     1      -8.414 -43.434  32.607  1.00  0.00     0.001 A 
ATOM     15  C   UNL     1      -7.170 -44.008  32.356  1.00  0.00     0.000 A 
ENDBRANCH   9  10
ENDBRANCH   4   9
ENDBRANCH   1   2
BRANCH   1  16
ATOM     16  C   UNL     1     -14.019 -43.554  26.560  1.00  0.00     0.129 C 
BRANCH  16  17
ATOM     17  N   UNL     1     -15.301 -43.146  26.017  1.00  0.00    -0.274 N 
ATOM     18  C   UNL     1     -16.361 -42.765  26.796  1.00  0.00     0.261 C 
ATOM     19  C   UNL     1     -15.581 -43.014  24.684  1.00  0.00     0.261 C 
ATOM     20  C   UNL     1     -17.452 -42.429  25.882  1.00  0.00     0.054 A 
ATOM     21  C   UNL     1     -16.979 -42.594  24.591  1.00  0.00     0.053 A 
ATOM     22  C   UNL     1     -18.736 -41.996  26.143  1.00  0.00     0.028 A 
ATOM     23  C   UNL     1     -17.767 -42.341  23.484  1.00  0.00     0.015 A 
ATOM     24  C   UNL     1     -19.563 -41.742  25.038  1.00  0.00     0.041 A 
ATOM     25  C   UNL     1     -19.079 -41.907  23.717  1.00  0.00     0.015 A 
ATOM     26  O   UNL     1     -16.424 -42.679  28.006  1.00  0.00    -0.269 OA
ATOM     27  O   UNL     1     -14.836 -43.140  23.729  1.00  0.00    -0.269 OA
BRANCH  24  28
ATOM     28  C   UNL     1     -20.937 -41.233  25.295  1.00  0.00     0.255 C 
ATOM     29  N   UNL     1     -21.332 -41.264  26.617  1.00  0.00    -0.322 N 
ATOM     30  O   UNL     1     -21.571 -40.821  24.333  1.00  0.00    -0.269 OA
ATOM     31  H   UNL     1     -20.639 -41.521  27.308  1.00  0.00     0.170 HD
BRANCH  29  32
ATOM     32  C   UNL     1     -22.588 -40.885  27.141  1.00  0.00     0.041 A 
ATOM     33  C   UNL     1     -22.924 -39.578  27.495  1.00  0.00     0.026 A 
ATOM     34  C   UNL     1     -23.547 -41.895  27.297  1.00  0.00     0.026 A 
ATOM     35  C   UNL     1     -24.194 -39.285  28.002  1.00  0.00     0.002 A 
ATOM     36  C   UNL     1     -24.816 -41.602  27.804  1.00  0.00     0.002 A 
ATOM     37  C   UNL     1     -25.140 -40.296  28.156  1.00  0.00     0.000 A 
ENDBRANCH  29  32
ENDBRANCH  24  28
ENDBRANCH  16  17
ENDBRANCH   1  16
TORSDOF 7
ENDMDL
MODEL 3
REMARK VINA RESULT:   -12.895      1.322      1.612
REMARK INTER + INTRA:         -19.265
REMARK INTER:                 -18.124
REMARK INTRA:                  -1.141
REMARK UNBOUND:                -1.094
REMARK SMILES O=C(Nc1ccccc1)c1ccc2c(c1)C(=O)N(CC[C@H]1CC[N@H+](Cc3ccccc3)CC1)C2=O
REMARK SMILES IDX 20 1 21 2 23 3 24 4 22 5 32 6 33 7 25 9 26 10 27 11 31 12
REMARK SMILES IDX 28 13 30 14 29 15 19 16 18 17 16 18 34 19 14 20 13 21 15 22
REMARK SMILES IDX 12 23 10 24 11 25 17 26 35 27 2 28 3 29 1 30 4 32 5 33 9 34
REMARK SMILES IDX 6 35 8 36 7 37
REMARK H PARENT 24 8 3 31
ROOT
ATOM      1  C   UNL     1     -13.804 -45.156  26.611  1.00  0.00     0.026 C 
ENDROOT
BRANCH   1   2
ATOM      2  C   UNL     1     -13.110 -45.806  27.824  1.00  0.00     0.002 C 
ATOM      3  C   UNL     1     -10.864 -46.343  28.868  1.00  0.00     0.262 C 
ATOM      4  N   UNL     1     -11.341 -45.716  30.158  1.00  0.00    -0.331 N 
ATOM      5  C   UNL     1     -11.584 -45.701  27.687  1.00  0.00     0.065 C 
ATOM      6  C   UNL     1     -12.834 -45.837  30.333  1.00  0.00     0.262 C 
ATOM      7  C   UNL     1     -13.539 -45.177  29.157  1.00  0.00     0.065 C 
ATOM      8  H   UNL     1     -11.111 -44.716  30.108  1.00  0.00     0.348 HD
BRANCH   4   9
ATOM      9  C   UNL     1     -10.604 -46.251  31.371  1.00  0.00     0.299 C 
BRANCH   9  10
ATOM     10  C   UNL     1      -9.446 -45.387  31.786  1.00  0.00     0.006 A 
ATOM     11  C   UNL     1      -8.126 -45.837  31.625  1.00  0.00     0.009 A 
ATOM     12  C   UNL     1      -9.668 -44.107  32.320  1.00  0.00     0.009 A 
ATOM     13  C   UNL     1      -7.053 -45.021  31.985  1.00  0.00     0.001 A 
ATOM     14  C   UNL     1      -8.591 -43.296  32.679  1.00  0.00     0.001 A 
ATOM     15  C   UNL     1      -7.285 -43.752  32.510  1.00  0.00     0.000 A 
ENDBRANCH   9  10
ENDBRANCH   4   9
ENDBRANCH   1   2
BRANCH   1  16
ATOM     16  C   UNL     1     -13.936 -43.627  26.676  1.00  0.00     0.129 C 
BRANCH  16  17
ATOM     17  N   UNL     1     -15.281 -43.160  26.399  1.00  0.00    -0.274 N 
ATOM     18  C   UNL     1     -15.766 -42.975  25.131  1.00  0.00     0.261 C 
ATOM     19  C   UNL     1     -16.241 -42.928  27.346  1.00  0.00     0.261 C 
ATOM     20  C   UNL     1     -17.143 -42.507  25.275  1.00  0.00     0.054 A 
ATOM     21  C   UNL     1     -17.430 -42.465  26.629  1.00  0.00     0.053 A 
ATOM     22  C   UNL     1     -18.077 -42.167  24.317  1.00  0.00     0.028 A 
ATOM     23  C   UNL     1     -18.668 -42.074  27.105  1.00  0.00     0.015 A 
ATOM     24  C   UNL     1     -19.339 -41.755  24.771  1.00  0.00     0.041 A 
ATOM     25  C   UNL     1     -19.634 -41.715  26.156  1.00  0.00     0.015 A 
ATOM     26  O   UNL     1     -15.212 -43.173  24.069  1.00  0.00    -0.269 OA
ATOM     27  O   UNL     1     -16.192 -43.117  28.547  1.00  0.00    -0.269 OA
BRANCH  24  28
ATOM     28  C   UNL     1     -20.375 -41.426  23.755  1.00  0.00     0.255 C 
ATOM     29  N   UNL     1     -20.214 -42.051  22.535  1.00  0.00    -0.322 N 
ATOM     30  O   UNL     1     -21.270 -40.662  24.094  1.00  0.00    -0.269 OA
ATOM     31  H   UNL     1     -19.487 -42.751  22.459  1.00  0.00     0.170 HD
BRANCH  29  32
ATOM     32  C   UNL     1     -21.017 -41.893  21.384  1.00  0.00     0.041 A 
ATOM     33  C   UNL     1     -22.085 -42.729  21.056  1.00  0.00     0.026 A 
ATOM     34  C   UNL     1     -20.715 -40.819  20.536  1.00  0.00     0.026 A 
ATOM     35  C   UNL     1     -22.836 -42.500  19.898  1.00  0.00     0.002 A 
ATOM     36  C   UNL     1     -21.465 -40.590  19.379  1.00  0.00     0.002 A 
ATOM     37  C   UNL     1     -22.526 -41.431  19.061  1.00  0.00     0.000 A 
ENDBRANCH  29  32
ENDBRANCH  24  28
ENDBRANCH  16  17
ENDBRANCH   1  16
TORSDOF 7
ENDMDL
MODEL 4
REMARK VINA RESULT:   -11.556      2.213     13.463
REMARK INTER + INTRA:         -17.379
REMARK INTER:                 -16.375
REMARK INTRA:                  -1.004
REMARK UNBOUND:                -1.094
REMARK SMILES O=C(Nc1ccccc1)c1ccc2c(c1)C(=O)N(CC[C@H]1CC[N@H+](Cc3ccccc3)CC1)C2=O
REMARK SMILES IDX 20 1 21 2 23 3 24 4 22 5 32 6 33 7 25 9 26 10 27 11 31 12
REMARK SMILES IDX 28 13 30 14 29 15 19 16 18 17 16 18 34 19 14 20 13 21 15 22
REMARK SMILES IDX 12 23 10 24 11 25 17 26 35 27 2 28 3 29 1 30 4 32 5 33 9 34
REMARK SMILES IDX 6 35 8 36 7 37
REMARK H PARENT 24 8 3 31
ROOT
ATOM      1  C   UNL     1     -20.500 -40.556  24.084  1.00  0.00     0.026 C 
ENDROOT
BRANCH   1   2
ATOM      2  C   UNL     1     -20.636 -40.411  22.556  1.00  0.00     0.002 C 
ATOM      3  C   UNL     1     -22.258 -40.523  20.612  1.00  0.00     0.262 C 
ATOM      4  N   UNL     1     -21.770 -39.168  20.157  1.00  0.00    -0.331 N 
ATOM      5  C   UNL     1     -22.090 -40.652  22.122  1.00  0.00     0.065 C 
ATOM      6  C   UNL     1     -20.332 -38.921  20.541  1.00  0.00     0.262 C 
ATOM      7  C   UNL     1     -20.182 -39.034  22.051  1.00  0.00     0.065 C 
ATOM      8  H   UNL     1     -22.347 -38.465  20.635  1.00  0.00     0.348 HD
BRANCH   4   9
ATOM      9  C   UNL     1     -21.985 -38.940  18.673  1.00  0.00     0.299 C 
BRANCH   9  10
ATOM     10  C   UNL     1     -22.780 -37.698  18.376  1.00  0.00     0.006 A 
ATOM     11  C   UNL     1     -23.216 -36.865  19.418  1.00  0.00     0.009 A 
ATOM     12  C   UNL     1     -23.078 -37.345  17.050  1.00  0.00     0.009 A 
ATOM     13  C   UNL     1     -23.929 -35.698  19.136  1.00  0.00     0.001 A 
ATOM     14  C   UNL     1     -23.792 -36.178  16.775  1.00  0.00     0.001 A 
ATOM     15  C   UNL     1     -24.215 -35.355  17.817  1.00  0.00     0.000 A 
ENDBRANCH   9  10
ENDBRANCH   4   9
ENDBRANCH   1   2
BRANCH   1  16
ATOM     16  C   UNL     1     -20.281 -41.992  24.586  1.00  0.00     0.129 C 
BRANCH  16  17
ATOM     17  N   UNL     1     -18.880 -42.319  24.776  1.00  0.00    -0.274 N 
ATOM     18  C   UNL     1     -18.299 -42.449  26.010  1.00  0.00     0.261 C 
ATOM     19  C   UNL     1     -18.001 -42.614  23.770  1.00  0.00     0.261 C 
ATOM     20  C   UNL     1     -16.895 -42.783  25.777  1.00  0.00     0.054 A 
ATOM     21  C   UNL     1     -16.710 -42.871  24.407  1.00  0.00     0.053 A 
ATOM     22  C   UNL     1     -15.870 -43.015  26.671  1.00  0.00     0.028 A 
ATOM     23  C   UNL     1     -15.484 -43.189  23.853  1.00  0.00     0.015 A 
ATOM     24  C   UNL     1     -14.612 -43.329  26.137  1.00  0.00     0.041 A 
ATOM     25  C   UNL     1     -14.422 -43.421  24.736  1.00  0.00     0.015 A 
ATOM     26  O   UNL     1     -18.811 -42.345  27.106  1.00  0.00    -0.269 OA
ATOM     27  O   UNL     1     -18.213 -42.722  22.576  1.00  0.00    -0.269 OA
BRANCH  24  28
ATOM     28  C   UNL     1     -13.503 -43.624  27.084  1.00  0.00     0.255 C 
ATOM     29  N   UNL     1     -13.611 -44.827  27.751  1.00  0.00    -0.322 N 
ATOM     30  O   UNL     1     -12.603 -42.799  27.167  1.00  0.00    -0.269 OA
ATOM     31  H   UNL     1     -14.359 -45.451  27.475  1.00  0.00     0.170 HD
BRANCH  29  32
ATOM     32  C   UNL     1     -12.733 -45.341  28.730  1.00  0.00     0.041 A 
ATOM     33  C   UNL     1     -11.441 -45.794  28.460  1.00  0.00     0.026 A 
ATOM     34  C   UNL     1     -13.200 -45.381  30.051  1.00  0.00     0.026 A 
ATOM     35  C   UNL     1     -10.631 -46.283  29.490  1.00  0.00     0.002 A 
ATOM     36  C   UNL     1     -12.391 -45.870  31.080  1.00  0.00     0.002 A 
ATOM     37  C   UNL     1     -11.105 -46.321  30.799  1.00  0.00     0.000 A 
ENDBRANCH  29  32
ENDBRANCH  24  28
ENDBRANCH  16  17
ENDBRANCH   1  16
TORSDOF 7
ENDMDL
MODEL 5
REMARK VINA RESULT:   -11.321      4.545     11.957
REMARK INTER + INTRA:         -17.047
REMARK INTER:                 -15.937
REMARK INTRA:                  -1.111
REMARK UNBOUND:                -1.094
REMARK SMILES O=C(Nc1ccccc1)c1ccc2c(c1)C(=O)N(CC[C@H]1CC[N@H+](Cc3ccccc3)CC1)C2=O
REMARK SMILES IDX 20 1 21 2 23 3 24 4 22 5 32 6 33 7 25 9 26 10 27 11 31 12
REMARK SMILES IDX 28 13 30 14 29 15 19 16 18 17 16 18 34 19 14 20 13 21 15 22
REMARK SMILES IDX 12 23 10 24 11 25 17 26 35 27 2 28 3 29 1 30 4 32 5 33 9 34
REMARK SMILES IDX 6 35 8 36 7 37
REMARK H PARENT 24 8 3 31
ROOT
ATOM      1  C   UNL     1     -21.589 -40.580  24.687  1.00  0.00     0.026 C 
ENDROOT
BRANCH   1   2
ATOM      2  C   UNL     1     -22.821 -40.447  25.603  1.00  0.00     0.002 C 
ATOM      3  C   UNL     1     -23.594 -40.356  28.015  1.00  0.00     0.262 C 
ATOM      4  N   UNL     1     -24.365 -39.097  27.696  1.00  0.00    -0.331 N 
ATOM      5  C   UNL     1     -22.396 -40.479  27.079  1.00  0.00     0.065 C 
ATOM      6  C   UNL     1     -24.824 -39.058  26.259  1.00  0.00     0.262 C 
ATOM      7  C   UNL     1     -23.618 -39.162  25.337  1.00  0.00     0.065 C 
ATOM      8  H   UNL     1     -23.724 -38.308  27.842  1.00  0.00     0.348 HD
BRANCH   4   9
ATOM      9  C   UNL     1     -25.525 -38.869  28.645  1.00  0.00     0.299 C 
BRANCH   9  10
ATOM     10  C   UNL     1     -25.090 -38.396  30.005  1.00  0.00     0.006 A 
ATOM     11  C   UNL     1     -24.477 -37.143  30.162  1.00  0.00     0.009 A 
ATOM     12  C   UNL     1     -25.312 -39.192  31.140  1.00  0.00     0.009 A 
ATOM     13  C   UNL     1     -24.101 -36.695  31.429  1.00  0.00     0.001 A 
ATOM     14  C   UNL     1     -24.932 -38.740  32.405  1.00  0.00     0.001 A 
ATOM     15  C   UNL     1     -24.329 -37.492  32.548  1.00  0.00     0.000 A 
ENDBRANCH   9  10
ENDBRANCH   4   9
ENDBRANCH   1   2
BRANCH   1  16
ATOM     16  C   UNL     1     -21.144 -42.022  24.397  1.00  0.00     0.129 C 
BRANCH  16  17
ATOM     17  N   UNL     1     -19.713 -42.215  24.543  1.00  0.00    -0.274 N 
ATOM     18  C   UNL     1     -19.117 -42.545  25.731  1.00  0.00     0.261 C 
ATOM     19  C   UNL     1     -18.809 -42.172  23.518  1.00  0.00     0.261 C 
ATOM     20  C   UNL     1     -17.683 -42.650  25.463  1.00  0.00     0.054 A 
ATOM     21  C   UNL     1     -17.493 -42.409  24.112  1.00  0.00     0.053 A 
ATOM     22  C   UNL     1     -16.634 -42.950  26.308  1.00  0.00     0.028 A 
ATOM     23  C   UNL     1     -16.240 -42.448  23.530  1.00  0.00     0.015 A 
ATOM     24  C   UNL     1     -15.349 -42.986  25.747  1.00  0.00     0.041 A 
ATOM     25  C   UNL     1     -15.155 -42.742  24.366  1.00  0.00     0.015 A 
ATOM     26  O   UNL     1     -19.633 -42.748  26.811  1.00  0.00    -0.269 OA
ATOM     27  O   UNL     1     -19.010 -42.037  22.325  1.00  0.00    -0.269 OA
BRANCH  24  28
ATOM     28  C   UNL     1     -14.209 -43.350  26.632  1.00  0.00     0.255 C 
ATOM     29  N   UNL     1     -14.311 -44.588  27.233  1.00  0.00    -0.322 N 
ATOM     30  O   UNL     1     -13.294 -42.543  26.726  1.00  0.00    -0.269 OA
ATOM     31  H   UNL     1     -15.078 -45.185  26.952  1.00  0.00     0.170 HD
BRANCH  29  32
ATOM     32  C   UNL     1     -13.404 -45.169  28.147  1.00  0.00     0.041 A 
ATOM     33  C   UNL     1     -12.200 -45.770  27.776  1.00  0.00     0.026 A 
ATOM     34  C   UNL     1     -13.744 -45.119  29.505  1.00  0.00     0.026 A 
ATOM     35  C   UNL     1     -11.352 -46.317  28.745  1.00  0.00     0.002 A 
ATOM     36  C   UNL     1     -12.897 -45.666  30.474  1.00  0.00     0.002 A 
ATOM     37  C   UNL     1     -11.701 -46.266  30.093  1.00  0.00     0.000 A 
ENDBRANCH  29  32
ENDBRANCH  24  28
ENDBRANCH  16  17
ENDBRANCH   1  16
TORSDOF 7
ENDMDL
MODEL 6
REMARK VINA RESULT:   -11.314      1.581      2.122
REMARK INTER + INTRA:         -17.038
REMARK INTER:                 -16.208
REMARK INTRA:                  -0.830
REMARK UNBOUND:                -1.094
REMARK SMILES O=C(Nc1ccccc1)c1ccc2c(c1)C(=O)N(CC[C@H]1CC[N@H+](Cc3ccccc3)CC1)C2=O
REMARK SMILES IDX 20 1 21 2 23 3 24 4 22 5 32 6 33 7 25 9 26 10 27 11 31 12
REMARK SMILES IDX 28 13 30 14 29 15 19 16 18 17 16 18 34 19 14 20 13 21 15 22
REMARK SMILES IDX 12 23 10 24 11 25 17 26 35 27 2 28 3 29 1 30 4 32 5 33 9 34
REMARK SMILES IDX 6 35 8 36 7 37
REMARK H PARENT 24 8 3 31
ROOT
ATOM      1  C   UNL     1     -13.891 -42.928  26.222  1.00  0.00     0.026 C 
ENDROOT
BRANCH   1   2
ATOM      2  C   UNL     1     -12.746 -43.616  26.990  1.00  0.00     0.002 C 
ATOM      3  C   UNL     1     -10.646 -43.216  28.352  1.00  0.00     0.262 C 
ATOM      4  N   UNL     1     -11.193 -44.133  29.421  1.00  0.00    -0.331 N 
ATOM      5  C   UNL     1     -11.797 -42.567  27.591  1.00  0.00     0.065 C 
ATOM      6  C   UNL     1     -12.101 -45.195  28.851  1.00  0.00     0.262 C 
ATOM      7  C   UNL     1     -13.254 -44.534  28.111  1.00  0.00     0.065 C 
ATOM      8  H   UNL     1     -11.751 -43.552  30.058  1.00  0.00     0.348 HD
BRANCH   4   9
ATOM      9  C   UNL     1     -10.100 -44.749  30.272  1.00  0.00     0.299 C 
BRANCH   9  10
ATOM     10  C   UNL     1      -9.805 -43.957  31.517  1.00  0.00     0.006 A 
ATOM     11  C   UNL     1     -10.841 -43.331  32.226  1.00  0.00     0.009 A 
ATOM     12  C   UNL     1      -8.490 -43.852  31.998  1.00  0.00     0.009 A 
ATOM     13  C   UNL     1     -10.567 -42.620  33.395  1.00  0.00     0.001 A 
ATOM     14  C   UNL     1      -8.221 -43.139  33.167  1.00  0.00     0.001 A 
ATOM     15  C   UNL     1      -9.259 -42.526  33.866  1.00  0.00     0.000 A 
ENDBRANCH   9  10
ENDBRANCH   4   9
ENDBRANCH   1   2
BRANCH   1  16
ATOM     16  C   UNL     1     -15.224 -43.692  26.214  1.00  0.00     0.129 C 
BRANCH  16  17
ATOM     17  N   UNL     1     -16.264 -43.012  25.465  1.00  0.00    -0.274 N 
ATOM     18  C   UNL     1     -16.152 -42.704  24.135  1.00  0.00     0.261 C 
ATOM     19  C   UNL     1     -17.493 -42.674  25.961  1.00  0.00     0.261 C 
ATOM     20  C   UNL     1     -17.396 -42.035  23.756  1.00  0.00     0.054 A 
ATOM     21  C   UNL     1     -18.210 -42.005  24.876  1.00  0.00     0.053 A 
ATOM     22  C   UNL     1     -17.799 -41.516  22.542  1.00  0.00     0.028 A 
ATOM     23  C   UNL     1     -19.475 -41.447  24.847  1.00  0.00     0.015 A 
ATOM     24  C   UNL     1     -19.074 -40.934  22.486  1.00  0.00     0.041 A 
ATOM     25  C   UNL     1     -19.909 -40.906  23.630  1.00  0.00     0.015 A 
ATOM     26  O   UNL     1     -15.237 -42.941  23.373  1.00  0.00    -0.269 OA
ATOM     27  O   UNL     1     -17.971 -42.917  27.053  1.00  0.00    -0.269 OA
BRANCH  24  28
ATOM     28  C   UNL     1     -19.546 -40.407  21.176  1.00  0.00     0.255 C 
ATOM     29  N   UNL     1     -20.867 -40.008  21.151  1.00  0.00    -0.322 N 
ATOM     30  O   UNL     1     -18.729 -40.356  20.266  1.00  0.00    -0.269 OA
ATOM     31  H   UNL     1     -21.372 -40.002  22.028  1.00  0.00     0.170 HD
BRANCH  29  32
ATOM     32  C   UNL     1     -21.586 -39.512  20.042  1.00  0.00     0.041 A 
ATOM     33  C   UNL     1     -22.385 -40.302  19.213  1.00  0.00     0.026 A 
ATOM     34  C   UNL     1     -21.488 -38.139  19.777  1.00  0.00     0.026 A 
ATOM     35  C   UNL     1     -23.071 -39.731  18.136  1.00  0.00     0.002 A 
ATOM     36  C   UNL     1     -22.173 -37.569  18.700  1.00  0.00     0.002 A 
ATOM     37  C   UNL     1     -22.965 -38.366  17.880  1.00  0.00     0.000 A 
ENDBRANCH  29  32
ENDBRANCH  24  28
ENDBRANCH  16  17
ENDBRANCH   1  16
TORSDOF 7
ENDMDL
MODEL 7
REMARK VINA RESULT:   -11.136      2.152     13.668
REMARK INTER + INTRA:         -16.787
REMARK INTER:                 -15.994
REMARK INTRA:                  -0.793
REMARK UNBOUND:                -1.094
REMARK SMILES O=C(Nc1ccccc1)c1ccc2c(c1)C(=O)N(CC[C@H]1CC[N@H+](Cc3ccccc3)CC1)C2=O
REMARK SMILES IDX 20 1 21 2 23 3 24 4 22 5 32 6 33 7 25 9 26 10 27 11 31 12
REMARK SMILES IDX 28 13 30 14 29 15 19 16 18 17 16 18 34 19 14 20 13 21 15 22
REMARK SMILES IDX 12 23 10 24 11 25 17 26 35 27 2 28 3 29 1 30 4 32 5 33 9 34
REMARK SMILES IDX 6 35 8 36 7 37
REMARK H PARENT 24 8 3 31
ROOT
ATOM      1  C   UNL     1     -19.172 -40.506  21.913  1.00  0.00     0.026 C 
ENDROOT
BRANCH   1   2
ATOM      2  C   UNL     1     -20.015 -40.190  20.662  1.00  0.00     0.002 C 
ATOM      3  C   UNL     1     -22.110 -40.813  19.379  1.00  0.00     0.262 C 
ATOM      4  N   UNL     1     -22.495 -39.353  19.346  1.00  0.00    -0.331 N 
ATOM      5  C   UNL     1     -21.256 -41.094  20.611  1.00  0.00     0.065 C 
ATOM      6  C   UNL     1     -21.291 -38.444  19.361  1.00  0.00     0.262 C 
ATOM      7  C   UNL     1     -20.459 -38.722  20.604  1.00  0.00     0.065 C 
ATOM      8  H   UNL     1     -23.038 -39.167  20.199  1.00  0.00     0.348 HD
BRANCH   4   9
ATOM      9  C   UNL     1     -23.416 -39.020  18.188  1.00  0.00     0.299 C 
BRANCH   9  10
ATOM     10  C   UNL     1     -23.929 -37.607  18.230  1.00  0.00     0.006 A 
ATOM     11  C   UNL     1     -24.563 -37.112  19.379  1.00  0.00     0.009 A 
ATOM     12  C   UNL     1     -23.760 -36.756  17.125  1.00  0.00     0.009 A 
ATOM     13  C   UNL     1     -25.013 -35.791  19.424  1.00  0.00     0.001 A 
ATOM     14  C   UNL     1     -24.212 -35.437  17.175  1.00  0.00     0.001 A 
ATOM     15  C   UNL     1     -24.836 -34.955  18.324  1.00  0.00     0.000 A 
ENDBRANCH   9  10
ENDBRANCH   4   9
ENDBRANCH   1   2
BRANCH   1  16
ATOM     16  C   UNL     1     -19.578 -41.780  22.669  1.00  0.00     0.129 C 
BRANCH  16  17
ATOM     17  N   UNL     1     -18.704 -42.079  23.788  1.00  0.00    -0.274 N 
ATOM     18  C   UNL     1     -17.409 -42.499  23.640  1.00  0.00     0.261 C 
ATOM     19  C   UNL     1     -19.031 -41.905  25.105  1.00  0.00     0.261 C 
ATOM     20  C   UNL     1     -16.874 -42.687  24.987  1.00  0.00     0.054 A 
ATOM     21  C   UNL     1     -17.870 -42.337  25.883  1.00  0.00     0.053 A 
ATOM     22  C   UNL     1     -15.626 -43.104  25.404  1.00  0.00     0.028 A 
ATOM     23  C   UNL     1     -17.676 -42.390  27.251  1.00  0.00     0.015 A 
ATOM     24  C   UNL     1     -15.404 -43.178  26.787  1.00  0.00     0.041 A 
ATOM     25  C   UNL     1     -16.421 -42.817  27.705  1.00  0.00     0.015 A 
ATOM     26  O   UNL     1     -16.777 -42.669  22.616  1.00  0.00    -0.269 OA
ATOM     27  O   UNL     1     -20.042 -41.428  25.586  1.00  0.00    -0.269 OA
BRANCH  24  28
ATOM     28  C   UNL     1     -14.052 -43.583  27.259  1.00  0.00     0.255 C 
ATOM     29  N   UNL     1     -14.041 -44.615  28.176  1.00  0.00    -0.322 N 
ATOM     30  O   UNL     1     -13.092 -42.992  26.783  1.00  0.00    -0.269 OA
ATOM     31  H   UNL     1     -14.919 -45.078  28.373  1.00  0.00     0.170 HD
BRANCH  29  32
ATOM     32  C   UNL     1     -12.913 -45.171  28.819  1.00  0.00     0.041 A 
ATOM     33  C   UNL     1     -12.672 -45.080  30.190  1.00  0.00     0.026 A 
ATOM     34  C   UNL     1     -11.994 -45.861  28.016  1.00  0.00     0.026 A 
ATOM     35  C   UNL     1     -11.532 -45.665  30.751  1.00  0.00     0.002 A 
ATOM     36  C   UNL     1     -10.854 -46.445  28.576  1.00  0.00     0.002 A 
ATOM     37  C   UNL     1     -10.624 -46.347  29.944  1.00  0.00     0.000 A 
ENDBRANCH  29  32
ENDBRANCH  24  28
ENDBRANCH  16  17
ENDBRANCH   1  16
TORSDOF 7
ENDMDL
MODEL 8
REMARK VINA RESULT:   -10.589      2.547     13.803
REMARK INTER + INTRA:         -16.017
REMARK INTER:                 -15.288
REMARK INTRA:                  -0.728
REMARK UNBOUND:                -1.094
REMARK SMILES O=C(Nc1ccccc1)c1ccc2c(c1)C(=O)N(CC[C@H]1CC[N@H+](Cc3ccccc3)CC1)C2=O
REMARK SMILES IDX 20 1 21 2 23 3 24 4 22 5 32 6 33 7 25 9 26 10 27 11 31 12
REMARK SMILES IDX 28 13 30 14 29 15 19 16 18 17 16 18 34 19 14 20 13 21 15 22
REMARK SMILES IDX 12 23 10 24 11 25 17 26 35 27 2 28 3 29 1 30 4 32 5 33 9 34
REMARK SMILES IDX 6 35 8 36 7 37
REMARK H PARENT 24 8 3 31
ROOT
ATOM      1  C   UNL     1     -19.832 -39.837  21.698  1.00  0.00     0.026 C 
ENDROOT
BRANCH   1   2
ATOM      2  C   UNL     1     -20.952 -39.290  20.791  1.00  0.00     0.002 C 
ATOM      3  C   UNL     1     -23.196 -38.113  20.771  1.00  0.00     0.262 C 
ATOM      4  N   UNL     1     -22.642 -37.125  19.772  1.00  0.00    -0.331 N 
ATOM      5  C   UNL     1     -22.067 -38.658  21.638  1.00  0.00     0.065 C 
ATOM      6  C   UNL     1     -21.569 -37.733  18.903  1.00  0.00     0.262 C 
ATOM      7  C   UNL     1     -20.440 -38.255  19.780  1.00  0.00     0.065 C 
ATOM      8  H   UNL     1     -22.214 -36.362  20.310  1.00  0.00     0.348 HD
BRANCH   4   9
ATOM      9  C   UNL     1     -23.726 -36.480  18.929  1.00  0.00     0.299 C 
BRANCH   9  10
ATOM     10  C   UNL     1     -23.868 -37.108  17.570  1.00  0.00     0.006 A 
ATOM     11  C   UNL     1     -24.570 -38.312  17.410  1.00  0.00     0.009 A 
ATOM     12  C   UNL     1     -23.318 -36.485  16.438  1.00  0.00     0.009 A 
ATOM     13  C   UNL     1     -24.723 -38.877  16.143  1.00  0.00     0.001 A 
ATOM     14  C   UNL     1     -23.474 -37.055  15.173  1.00  0.00     0.001 A 
ATOM     15  C   UNL     1     -24.177 -38.248  15.027  1.00  0.00     0.000 A 
ENDBRANCH   9  10
ENDBRANCH   4   9
ENDBRANCH   1   2
BRANCH   1  16
ATOM     16  C   UNL     1     -19.949 -41.327  22.054  1.00  0.00     0.129 C 
BRANCH  16  17
ATOM     17  N   UNL     1     -19.348 -41.654  23.334  1.00  0.00    -0.274 N 
ATOM     18  C   UNL     1     -18.089 -42.178  23.461  1.00  0.00     0.261 C 
ATOM     19  C   UNL     1     -19.920 -41.410  24.552  1.00  0.00     0.261 C 
ATOM     20  C   UNL     1     -17.856 -42.360  24.893  1.00  0.00     0.054 A 
ATOM     21  C   UNL     1     -18.981 -41.903  25.560  1.00  0.00     0.053 A 
ATOM     22  C   UNL     1     -16.758 -42.857  25.564  1.00  0.00     0.028 A 
ATOM     23  C   UNL     1     -19.074 -41.924  26.939  1.00  0.00     0.015 A 
ATOM     24  C   UNL     1     -16.829 -42.901  26.965  1.00  0.00     0.041 A 
ATOM     25  C   UNL     1     -17.977 -42.431  27.647  1.00  0.00     0.015 A 
ATOM     26  O   UNL     1     -17.279 -42.431  22.593  1.00  0.00    -0.269 OA
ATOM     27  O   UNL     1     -20.965 -40.839  24.807  1.00  0.00    -0.269 OA
BRANCH  24  28
ATOM     28  C   UNL     1     -15.639 -43.393  27.711  1.00  0.00     0.255 C 
ATOM     29  N   UNL     1     -14.628 -43.905  26.922  1.00  0.00    -0.322 N 
ATOM     30  O   UNL     1     -15.656 -43.281  28.929  1.00  0.00    -0.269 OA
ATOM     31  H   UNL     1     -14.722 -43.811  25.919  1.00  0.00     0.170 HD
BRANCH  29  32
ATOM     32  C   UNL     1     -13.412 -44.476  27.359  1.00  0.00     0.041 A 
ATOM     33  C   UNL     1     -12.378 -43.750  27.954  1.00  0.00     0.026 A 
ATOM     34  C   UNL     1     -13.256 -45.858  27.188  1.00  0.00     0.026 A 
ATOM     35  C   UNL     1     -11.207 -44.393  28.366  1.00  0.00     0.002 A 
ATOM     36  C   UNL     1     -12.085 -46.500  27.599  1.00  0.00     0.002 A 
ATOM     37  C   UNL     1     -11.060 -45.767  28.188  1.00  0.00     0.000 A 
ENDBRANCH  29  32
ENDBRANCH  24  28
ENDBRANCH  16  17
ENDBRANCH   1  16
TORSDOF 7
ENDMDL
MODEL 9
REMARK VINA RESULT:   -10.589      1.769      2.935
REMARK INTER + INTRA:         -16.016
REMARK INTER:                 -15.650
REMARK INTRA:                  -0.365
REMARK UNBOUND:                -1.094
REMARK SMILES O=C(Nc1ccccc1)c1ccc2c(c1)C(=O)N(CC[C@H]1CC[N@H+](Cc3ccccc3)CC1)C2=O
REMARK SMILES IDX 20 1 21 2 23 3 24 4 22 5 32 6 33 7 25 9 26 10 27 11 31 12
REMARK SMILES IDX 28 13 30 14 29 15 19 16 18 17 16 18 34 19 14 20 13 21 15 22
REMARK SMILES IDX 12 23 10 24 11 25 17 26 35 27 2 28 3 29 1 30 4 32 5 33 9 34
REMARK SMILES IDX 6 35 8 36 7 37
REMARK H PARENT 24 8 3 31
ROOT
ATOM      1  C   UNL     1     -14.433 -42.834  25.788  1.00  0.00     0.026 C 
ENDROOT
BRANCH   1   2
ATOM      2  C   UNL     1     -13.531 -43.712  26.678  1.00  0.00     0.002 C 
ATOM      3  C   UNL     1     -11.451 -43.722  28.125  1.00  0.00     0.262 C 
ATOM      4  N   UNL     1     -12.252 -44.367  29.231  1.00  0.00    -0.331 N 
ATOM      5  C   UNL     1     -12.369 -42.882  27.245  1.00  0.00     0.065 C 
ATOM      6  C   UNL     1     -13.380 -45.216  28.699  1.00  0.00     0.262 C 
ATOM      7  C   UNL     1     -14.298 -44.361  27.838  1.00  0.00     0.065 C 
ATOM      8  H   UNL     1     -12.667 -43.606  29.783  1.00  0.00     0.348 HD
BRANCH   4   9
ATOM      9  C   UNL     1     -11.386 -45.153  30.196  1.00  0.00     0.299 C 
BRANCH   9  10
ATOM     10  C   UNL     1     -10.827 -44.310  31.309  1.00  0.00     0.006 A 
ATOM     11  C   UNL     1     -11.658 -43.438  32.029  1.00  0.00     0.009 A 
ATOM     12  C   UNL     1      -9.470 -44.400  31.657  1.00  0.00     0.009 A 
ATOM     13  C   UNL     1     -11.142 -42.678  33.079  1.00  0.00     0.001 A 
ATOM     14  C   UNL     1      -8.959 -43.637  32.708  1.00  0.00     0.001 A 
ATOM     15  C   UNL     1      -9.795 -42.779  33.419  1.00  0.00     0.000 A 
ENDBRANCH   9  10
ENDBRANCH   4   9
ENDBRANCH   1   2
BRANCH   1  16
ATOM     16  C   UNL     1     -15.873 -43.341  25.618  1.00  0.00     0.129 C 
BRANCH  16  17
ATOM     17  N   UNL     1     -16.615 -42.615  24.603  1.00  0.00    -0.274 N 
ATOM     18  C   UNL     1     -17.974 -42.450  24.640  1.00  0.00     0.261 C 
ATOM     19  C   UNL     1     -16.053 -41.949  23.549  1.00  0.00     0.261 C 
ATOM     20  C   UNL     1     -18.331 -41.670  23.456  1.00  0.00     0.054 A 
ATOM     21  C   UNL     1     -17.158 -41.375  22.782  1.00  0.00     0.053 A 
ATOM     22  C   UNL     1     -19.562 -41.232  23.012  1.00  0.00     0.028 A 
ATOM     23  C   UNL     1     -17.150 -40.629  21.618  1.00  0.00     0.015 A 
ATOM     24  C   UNL     1     -19.586 -40.482  21.826  1.00  0.00     0.041 A 
ATOM     25  C   UNL     1     -18.386 -40.177  21.138  1.00  0.00     0.015 A 
ATOM     26  O   UNL     1     -18.764 -42.832  25.479  1.00  0.00    -0.269 OA
ATOM     27  O   UNL     1     -14.876 -41.779  23.291  1.00  0.00    -0.269 OA
BRANCH  24  28
ATOM     28  C   UNL     1     -20.898 -39.964  21.352  1.00  0.00     0.255 C 
ATOM     29  N   UNL     1     -20.848 -39.244  20.175  1.00  0.00    -0.322 N 
ATOM     30  O   UNL     1     -21.884 -40.236  22.023  1.00  0.00    -0.269 OA
ATOM     31  H   UNL     1     -19.966 -39.214  19.679  1.00  0.00     0.170 HD
BRANCH  29  32
ATOM     32  C   UNL     1     -21.924 -38.605  19.521  1.00  0.00     0.041 A 
ATOM     33  C   UNL     1     -22.270 -37.267  19.711  1.00  0.00     0.026 A 
ATOM     34  C   UNL     1     -22.674 -39.375  18.621  1.00  0.00     0.026 A 
ATOM     35  C   UNL     1     -23.349 -36.707  19.019  1.00  0.00     0.002 A 
ATOM     36  C   UNL     1     -23.753 -38.816  17.929  1.00  0.00     0.002 A 
ATOM     37  C   UNL     1     -24.089 -37.481  18.128  1.00  0.00     0.000 A 
ENDBRANCH  29  32
ENDBRANCH  24  28
ENDBRANCH  16  17
ENDBRANCH   1  16
TORSDOF 7
ENDMDL
