MODEL 1
REMARK VINA RESULT:    -9.802      0.000      0.000
REMARK INTER + INTRA:         -12.004
REMARK INTER:                 -11.808
REMARK INTRA:                  -0.195
REMARK UNBOUND:                -0.195
REMARK SMILES C[N@H+]1CC[C@@H](CCc2c(O)c3ccccc3[nH]c2=O)CC1
REMARK SMILES IDX 7 1 8 2 9 3 11 4 18 5 12 6 16 7 17 8 13 9 15 10 14 11 19 12
REMARK SMILES IDX 10 14 6 16 5 17 20 18 4 19 21 20 3 21 2 22 1 23
REMARK H PARENT 17 13 10 15 2 24
ROOT
ATOM      1  C   UNL     1     -13.807 -43.352  26.644  1.00  0.00     0.045 C 
ENDROOT
BRANCH   1   2
ATOM      2  C   UNL     1     -15.194 -42.987  26.184  1.00  0.00     0.060 A 
ATOM      3  C   UNL     1     -16.219 -42.734  27.015  1.00  0.00     0.133 A 
ATOM      4  C   UNL     1     -17.562 -42.404  26.499  1.00  0.00     0.040 A 
ATOM      5  C   UNL     1     -15.416 -42.971  24.706  1.00  0.00     0.255 A 
ATOM      6  C   UNL     1     -18.643 -42.035  27.315  1.00  0.00     0.014 A 
ATOM      7  C   UNL     1     -17.762 -42.445  25.111  1.00  0.00     0.052 A 
ATOM      8  N   UNL     1     -16.686 -42.739  24.267  1.00  0.00    -0.321 N 
ATOM      9  C   UNL     1     -19.893 -41.754  26.754  1.00  0.00     0.001 A 
ATOM     10  C   UNL     1     -19.010 -42.169  24.549  1.00  0.00     0.027 A 
ATOM     11  C   UNL     1     -20.078 -41.828  25.376  1.00  0.00     0.002 A 
ATOM     12  O   UNL     1     -14.492 -43.161  23.920  1.00  0.00    -0.269 OA
ATOM     13  H   UNL     1     -16.815 -42.746  23.263  1.00  0.00     0.170 HD
BRANCH   3  14
ATOM     14  O   UNL     1     -16.043 -42.798  28.387  1.00  0.00    -0.507 OA
ATOM     15  H   UNL     1     -16.912 -42.649  28.800  1.00  0.00     0.293 HD
ENDBRANCH   3  14
ENDBRANCH   1   2
BRANCH   1  16
ATOM     16  C   UNL     1     -13.794 -44.713  27.354  1.00  0.00     0.009 C 
BRANCH  16  17
ATOM     17  C   UNL     1     -12.373 -45.274  27.576  1.00  0.00     0.000 C 
ATOM     18  C   UNL     1     -11.429 -44.178  28.099  1.00  0.00     0.065 C 
ATOM     19  C   UNL     1     -12.328 -46.475  28.533  1.00  0.00     0.065 C 
ATOM     20  C   UNL     1     -11.714 -43.789  29.543  1.00  0.00     0.262 C 
ATOM     21  C   UNL     1     -12.618 -46.093  29.980  1.00  0.00     0.262 C 
ATOM     22  N   UNL     1     -11.650 -45.018  30.417  1.00  0.00    -0.337 N 
ATOM     23  C   UNL     1     -11.826 -44.674  31.871  1.00  0.00     0.332 C 
ATOM     24  H   UNL     1     -10.702 -45.408  30.323  1.00  0.00     0.347 HD
ENDBRANCH  16  17
ENDBRANCH   1  16
TORSDOF 4
ENDMDL
MODEL 2
REMARK VINA RESULT:    -9.770      2.686      4.501
REMARK INTER + INTRA:         -11.965
REMARK INTER:                 -11.515
REMARK INTRA:                  -0.450
REMARK UNBOUND:                -0.195
REMARK SMILES C[N@H+]1CC[C@@H](CCc2c(O)c3ccccc3[nH]c2=O)CC1
REMARK SMILES IDX 7 1 8 2 9 3 11 4 18 5 12 6 16 7 17 8 13 9 15 10 14 11 19 12
REMARK SMILES IDX 10 14 6 16 5 17 20 18 4 19 21 20 3 21 2 22 1 23
REMARK H PARENT 17 13 10 15 2 24
ROOT
ATOM      1  C   UNL     1     -12.669 -46.460  29.308  1.00  0.00     0.045 C 
ENDROOT
BRANCH   1   2
ATOM      2  C   UNL     1     -13.448 -45.564  28.380  1.00  0.00     0.060 A 
ATOM      3  C   UNL     1     -13.428 -45.671  27.040  1.00  0.00     0.133 A 
ATOM      4  C   UNL     1     -14.197 -44.745  26.186  1.00  0.00     0.040 A 
ATOM      5  C   UNL     1     -14.233 -44.469  29.025  1.00  0.00     0.255 A 
ATOM      6  C   UNL     1     -14.293 -44.869  24.791  1.00  0.00     0.014 A 
ATOM      7  C   UNL     1     -14.886 -43.693  26.808  1.00  0.00     0.052 A 
ATOM      8  N   UNL     1     -14.868 -43.586  28.202  1.00  0.00    -0.321 N 
ATOM      9  C   UNL     1     -15.026 -43.940  24.044  1.00  0.00     0.001 A 
ATOM     10  C   UNL     1     -15.616 -42.763  26.065  1.00  0.00     0.027 A 
ATOM     11  C   UNL     1     -15.679 -42.886  24.679  1.00  0.00     0.002 A 
ATOM     12  O   UNL     1     -14.302 -44.367  30.247  1.00  0.00    -0.269 OA
ATOM     13  H   UNL     1     -15.383 -42.845  28.662  1.00  0.00     0.170 HD
BRANCH   3  14
ATOM     14  O   UNL     1     -12.662 -46.647  26.425  1.00  0.00    -0.507 OA
ATOM     15  H   UNL     1     -13.174 -46.984  25.669  1.00  0.00     0.293 HD
ENDBRANCH   3  14
ENDBRANCH   1   2
BRANCH   1  16
ATOM     16  C   UNL     1     -11.325 -45.828  29.696  1.00  0.00     0.009 C 
BRANCH  16  17
ATOM     17  C   UNL     1     -10.988 -45.979  31.196  1.00  0.00     0.000 C 
ATOM     18  C   UNL     1      -9.592 -46.597  31.382  1.00  0.00     0.065 C 
ATOM     19  C   UNL     1     -11.063 -44.659  31.978  1.00  0.00     0.065 C 
ATOM     20  C   UNL     1      -8.466 -45.636  31.024  1.00  0.00     0.262 C 
ATOM     21  C   UNL     1      -9.942 -43.691  31.621  1.00  0.00     0.262 C 
ATOM     22  N   UNL     1      -8.609 -44.370  31.834  1.00  0.00    -0.337 N 
ATOM     23  C   UNL     1      -7.464 -43.425  31.592  1.00  0.00     0.332 C 
ATOM     24  H   UNL     1      -8.561 -44.637  32.826  1.00  0.00     0.347 HD
ENDBRANCH  16  17
ENDBRANCH   1  16
TORSDOF 4
ENDMDL
MODEL 3
REMARK VINA RESULT:    -9.506      2.742      4.132
REMARK INTER + INTRA:         -11.646
REMARK INTER:                 -11.517
REMARK INTRA:                  -0.129
REMARK UNBOUND:                -0.195
REMARK SMILES C[N@H+]1CC[C@@H](CCc2c(O)c3ccccc3[nH]c2=O)CC1
REMARK SMILES IDX 7 1 8 2 9 3 11 4 18 5 12 6 16 7 17 8 13 9 15 10 14 11 19 12
REMARK SMILES IDX 10 14 6 16 5 17 20 18 4 19 21 20 3 21 2 22 1 23
REMARK H PARENT 17 13 10 15 2 24
ROOT
ATOM      1  C   UNL     1     -12.753 -46.151  30.203  1.00  0.00     0.045 C 
ENDROOT
BRANCH   1   2
ATOM      2  C   UNL     1     -13.272 -45.558  28.920  1.00  0.00     0.060 A 
ATOM      3  C   UNL     1     -14.237 -44.623  28.861  1.00  0.00     0.133 A 
ATOM      4  C   UNL     1     -14.720 -44.099  27.568  1.00  0.00     0.040 A 
ATOM      5  C   UNL     1     -12.696 -46.108  27.656  1.00  0.00     0.255 A 
ATOM      6  C   UNL     1     -15.650 -43.055  27.447  1.00  0.00     0.014 A 
ATOM      7  C   UNL     1     -14.202 -44.665  26.393  1.00  0.00     0.052 A 
ATOM      8  N   UNL     1     -13.219 -45.657  26.480  1.00  0.00    -0.321 N 
ATOM      9  C   UNL     1     -16.075 -42.624  26.186  1.00  0.00     0.001 A 
ATOM     10  C   UNL     1     -14.627 -44.239  25.133  1.00  0.00     0.027 A 
ATOM     11  C   UNL     1     -15.570 -43.220  25.033  1.00  0.00     0.002 A 
ATOM     12  O   UNL     1     -11.788 -46.935  27.676  1.00  0.00    -0.269 OA
ATOM     13  H   UNL     1     -12.822 -46.054  25.638  1.00  0.00     0.170 HD
BRANCH   3  14
ATOM     14  O   UNL     1     -14.820 -44.142  30.021  1.00  0.00    -0.507 OA
ATOM     15  H   UNL     1     -14.252 -43.426  30.356  1.00  0.00     0.293 HD
ENDBRANCH   3  14
ENDBRANCH   1   2
BRANCH   1  16
ATOM     16  C   UNL     1     -11.538 -45.372  30.727  1.00  0.00     0.009 C 
BRANCH  16  17
ATOM     17  C   UNL     1     -10.248 -45.634  29.920  1.00  0.00     0.000 C 
ATOM     18  C   UNL     1      -9.679 -44.320  29.359  1.00  0.00     0.065 C 
ATOM     19  C   UNL     1      -9.155 -46.353  30.725  1.00  0.00     0.065 C 
ATOM     20  C   UNL     1      -9.062 -43.434  30.433  1.00  0.00     0.262 C 
ATOM     21  C   UNL     1      -8.536 -45.473  31.805  1.00  0.00     0.262 C 
ATOM     22  N   UNL     1      -8.000 -44.209  31.174  1.00  0.00    -0.337 N 
ATOM     23  C   UNL     1      -7.288 -43.349  32.181  1.00  0.00     0.332 C 
ATOM     24  H   UNL     1      -7.293 -44.493  30.482  1.00  0.00     0.347 HD
ENDBRANCH  16  17
ENDBRANCH   1  16
TORSDOF 4
ENDMDL
MODEL 4
REMARK VINA RESULT:    -9.409      3.578      8.488
REMARK INTER + INTRA:         -11.530
REMARK INTER:                 -11.119
REMARK INTRA:                  -0.411
REMARK UNBOUND:                -0.195
REMARK SMILES C[N@H+]1CC[C@@H](CCc2c(O)c3ccccc3[nH]c2=O)CC1
REMARK SMILES IDX 7 1 8 2 9 3 11 4 18 5 12 6 16 7 17 8 13 9 15 10 14 11 19 12
REMARK SMILES IDX 10 14 6 16 5 17 20 18 4 19 21 20 3 21 2 22 1 23
REMARK H PARENT 17 13 10 15 2 24
ROOT
ATOM      1  C   UNL     1     -13.052 -45.831  30.818  1.00  0.00     0.045 C 
ENDROOT
BRANCH   1   2
ATOM      2  C   UNL     1     -11.833 -45.117  31.341  1.00  0.00     0.060 A 
ATOM      3  C   UNL     1     -10.587 -45.620  31.287  1.00  0.00     0.133 A 
ATOM      4  C   UNL     1      -9.436 -44.879  31.840  1.00  0.00     0.040 A 
ATOM      5  C   UNL     1     -12.072 -43.800  32.004  1.00  0.00     0.255 A 
ATOM      6  C   UNL     1      -8.104 -45.306  31.724  1.00  0.00     0.014 A 
ATOM      7  C   UNL     1      -9.690 -43.668  32.502  1.00  0.00     0.052 A 
ATOM      8  N   UNL     1     -10.998 -43.180  32.572  1.00  0.00    -0.321 N 
ATOM      9  C   UNL     1      -7.066 -44.559  32.291  1.00  0.00     0.001 A 
ATOM     10  C   UNL     1      -8.655 -42.922  33.073  1.00  0.00     0.027 A 
ATOM     11  C   UNL     1      -7.342 -43.375  32.970  1.00  0.00     0.002 A 
ATOM     12  O   UNL     1     -13.192 -43.296  32.037  1.00  0.00    -0.269 OA
ATOM     13  H   UNL     1     -11.188 -42.295  33.026  1.00  0.00     0.170 HD
BRANCH   3  14
ATOM     14  O   UNL     1     -10.355 -46.864  30.724  1.00  0.00    -0.507 OA
ATOM     15  H   UNL     1      -9.511 -47.192  31.080  1.00  0.00     0.293 HD
ENDBRANCH   3  14
ENDBRANCH   1   2
BRANCH   1  16
ATOM     16  C   UNL     1     -13.537 -45.215  29.499  1.00  0.00     0.009 C 
BRANCH  16  17
ATOM     17  C   UNL     1     -12.480 -45.266  28.374  1.00  0.00     0.000 C 
ATOM     18  C   UNL     1     -13.061 -45.919  27.108  1.00  0.00     0.065 C 
ATOM     19  C   UNL     1     -11.902 -43.890  28.010  1.00  0.00     0.065 C 
ATOM     20  C   UNL     1     -14.068 -45.030  26.391  1.00  0.00     0.262 C 
ATOM     21  C   UNL     1     -12.906 -42.994  27.296  1.00  0.00     0.262 C 
ATOM     22  N   UNL     1     -13.425 -43.703  26.067  1.00  0.00    -0.337 N 
ATOM     23  C   UNL     1     -14.346 -42.822  25.268  1.00  0.00     0.332 C 
ATOM     24  H   UNL     1     -12.614 -43.898  25.465  1.00  0.00     0.347 HD
ENDBRANCH  16  17
ENDBRANCH   1  16
TORSDOF 4
ENDMDL
MODEL 5
REMARK VINA RESULT:    -9.350      1.957      6.659
REMARK INTER + INTRA:         -11.459
REMARK INTER:                 -10.909
REMARK INTRA:                  -0.550
REMARK UNBOUND:                -0.195
REMARK SMILES C[N@H+]1CC[C@@H](CCc2c(O)c3ccccc3[nH]c2=O)CC1
REMARK SMILES IDX 7 1 8 2 9 3 11 4 18 5 12 6 16 7 17 8 13 9 15 10 14 11 19 12
REMARK SMILES IDX 10 14 6 16 5 17 20 18 4 19 21 20 3 21 2 22 1 23
REMARK H PARENT 17 13 10 15 2 24
ROOT
ATOM      1  C   UNL     1     -16.520 -42.262  25.094  1.00  0.00     0.045 C 
ENDROOT
BRANCH   1   2
ATOM      2  C   UNL     1     -15.600 -43.260  25.747  1.00  0.00     0.060 A 
ATOM      3  C   UNL     1     -15.412 -43.351  27.075  1.00  0.00     0.133 A 
ATOM      4  C   UNL     1     -14.476 -44.336  27.651  1.00  0.00     0.040 A 
ATOM      5  C   UNL     1     -14.824 -44.144  24.825  1.00  0.00     0.255 A 
ATOM      6  C   UNL     1     -14.314 -44.545  29.029  1.00  0.00     0.014 A 
ATOM      7  C   UNL     1     -13.721 -45.122  26.767  1.00  0.00     0.052 A 
ATOM      8  N   UNL     1     -13.913 -44.989  25.388  1.00  0.00    -0.321 N 
ATOM      9  C   UNL     1     -13.392 -45.485  29.502  1.00  0.00     0.001 A 
ATOM     10  C   UNL     1     -12.797 -46.059  27.236  1.00  0.00     0.027 A 
ATOM     11  C   UNL     1     -12.631 -46.235  28.608  1.00  0.00     0.002 A 
ATOM     12  O   UNL     1     -15.000 -44.112  23.610  1.00  0.00    -0.269 OA
ATOM     13  H   UNL     1     -13.391 -45.568  24.743  1.00  0.00     0.170 HD
BRANCH   3  14
ATOM     14  O   UNL     1     -16.082 -42.502  27.939  1.00  0.00    -0.507 OA
ATOM     15  H   UNL     1     -15.756 -42.684  28.838  1.00  0.00     0.293 HD
ENDBRANCH   3  14
ENDBRANCH   1   2
BRANCH   1  16
ATOM     16  C   UNL     1     -17.871 -42.898  24.737  1.00  0.00     0.009 C 
BRANCH  16  17
ATOM     17  C   UNL     1     -19.082 -42.026  25.134  1.00  0.00     0.000 C 
ATOM     18  C   UNL     1     -20.397 -42.676  24.672  1.00  0.00     0.065 C 
ATOM     19  C   UNL     1     -19.165 -41.739  26.641  1.00  0.00     0.065 C 
ATOM     20  C   UNL     1     -20.768 -43.909  25.486  1.00  0.00     0.262 C 
ATOM     21  C   UNL     1     -19.531 -42.970  27.462  1.00  0.00     0.262 C 
ATOM     22  N   UNL     1     -20.831 -43.544  26.949  1.00  0.00    -0.337 N 
ATOM     23  C   UNL     1     -21.292 -44.704  27.789  1.00  0.00     0.332 C 
ATOM     24  H   UNL     1     -21.546 -42.811  27.049  1.00  0.00     0.347 HD
ENDBRANCH  16  17
ENDBRANCH   1  16
TORSDOF 4
ENDMDL
MODEL 6
REMARK VINA RESULT:    -9.318      0.928      2.268
REMARK INTER + INTRA:         -11.420
REMARK INTER:                 -11.404
REMARK INTRA:                  -0.016
REMARK UNBOUND:                -0.195
REMARK SMILES C[N@H+]1CC[C@@H](CCc2c(O)c3ccccc3[nH]c2=O)CC1
REMARK SMILES IDX 7 1 8 2 9 3 11 4 18 5 12 6 16 7 17 8 13 9 15 10 14 11 19 12
REMARK SMILES IDX 10 14 6 16 5 17 20 18 4 19 21 20 3 21 2 22 1 23
REMARK H PARENT 17 13 10 15 2 24
ROOT
ATOM      1  C   UNL     1     -14.043 -43.324  26.583  1.00  0.00     0.045 C 
ENDROOT
BRANCH   1   2
ATOM      2  C   UNL     1     -15.442 -43.003  26.127  1.00  0.00     0.060 A 
ATOM      3  C   UNL     1     -15.809 -42.912  24.837  1.00  0.00     0.133 A 
ATOM      4  C   UNL     1     -17.193 -42.569  24.456  1.00  0.00     0.040 A 
ATOM      5  C   UNL     1     -16.438 -42.718  27.203  1.00  0.00     0.255 A 
ATOM      6  C   UNL     1     -17.658 -42.558  23.131  1.00  0.00     0.014 A 
ATOM      7  C   UNL     1     -18.100 -42.257  25.480  1.00  0.00     0.052 A 
ATOM      8  N   UNL     1     -17.686 -42.330  26.814  1.00  0.00    -0.321 N 
ATOM      9  C   UNL     1     -18.981 -42.203  22.845  1.00  0.00     0.001 A 
ATOM     10  C   UNL     1     -19.420 -41.899  25.197  1.00  0.00     0.027 A 
ATOM     11  C   UNL     1     -19.857 -41.868  23.875  1.00  0.00     0.002 A 
ATOM     12  O   UNL     1     -16.145 -42.829  28.391  1.00  0.00    -0.269 OA
ATOM     13  H   UNL     1     -18.340 -42.130  27.561  1.00  0.00     0.170 HD
BRANCH   3  14
ATOM     14  O   UNL     1     -14.884 -43.119  23.827  1.00  0.00    -0.507 OA
ATOM     15  H   UNL     1     -14.251 -43.786  24.146  1.00  0.00     0.293 HD
ENDBRANCH   3  14
ENDBRANCH   1   2
BRANCH   1  16
ATOM     16  C   UNL     1     -14.009 -44.614  27.415  1.00  0.00     0.009 C 
BRANCH  16  17
ATOM     17  C   UNL     1     -12.597 -45.228  27.535  1.00  0.00     0.000 C 
ATOM     18  C   UNL     1     -11.587 -44.181  28.035  1.00  0.00     0.065 C 
ATOM     19  C   UNL     1     -12.539 -46.461  28.449  1.00  0.00     0.065 C 
ATOM     20  C   UNL     1     -11.775 -43.833  29.506  1.00  0.00     0.262 C 
ATOM     21  C   UNL     1     -12.730 -46.120  29.922  1.00  0.00     0.262 C 
ATOM     22  N   UNL     1     -11.702 -45.093  30.335  1.00  0.00    -0.337 N 
ATOM     23  C   UNL     1     -11.781 -44.793  31.806  1.00  0.00     0.332 C 
ATOM     24  H   UNL     1     -10.775 -45.510  30.172  1.00  0.00     0.347 HD
ENDBRANCH  16  17
ENDBRANCH   1  16
TORSDOF 4
ENDMDL
MODEL 7
REMARK VINA RESULT:    -8.719      3.430      9.110
REMARK INTER + INTRA:         -10.699
REMARK INTER:                 -10.177
REMARK INTRA:                  -0.521
REMARK UNBOUND:                -0.195
REMARK SMILES C[N@H+]1CC[C@@H](CCc2c(O)c3ccccc3[nH]c2=O)CC1
REMARK SMILES IDX 7 1 8 2 9 3 11 4 18 5 12 6 16 7 17 8 13 9 15 10 14 11 19 12
REMARK SMILES IDX 10 14 6 16 5 17 20 18 4 19 21 20 3 21 2 22 1 23
REMARK H PARENT 17 13 10 15 2 24
ROOT
ATOM      1  C   UNL     1     -20.290 -42.185  24.086  1.00  0.00     0.045 C 
ENDROOT
BRANCH   1   2
ATOM      2  C   UNL     1     -18.932 -42.371  24.710  1.00  0.00     0.060 A 
ATOM      3  C   UNL     1     -17.844 -42.782  24.034  1.00  0.00     0.133 A 
ATOM      4  C   UNL     1     -16.545 -42.967  24.710  1.00  0.00     0.040 A 
ATOM      5  C   UNL     1     -18.842 -42.128  26.182  1.00  0.00     0.255 A 
ATOM      6  C   UNL     1     -15.357 -43.296  24.041  1.00  0.00     0.014 A 
ATOM      7  C   UNL     1     -16.495 -42.783  26.101  1.00  0.00     0.052 A 
ATOM      8  N   UNL     1     -17.646 -42.384  26.786  1.00  0.00    -0.321 N 
ATOM      9  C   UNL     1     -14.166 -43.475  24.753  1.00  0.00     0.001 A 
ATOM     10  C   UNL     1     -15.308 -42.964  26.814  1.00  0.00     0.027 A 
ATOM     11  C   UNL     1     -14.144 -43.316  26.136  1.00  0.00     0.002 A 
ATOM     12  O   UNL     1     -19.807 -41.717  26.821  1.00  0.00    -0.269 OA
ATOM     13  H   UNL     1     -17.614 -42.225  27.786  1.00  0.00     0.170 HD
BRANCH   3  14
ATOM     14  O   UNL     1     -17.924 -43.063  22.681  1.00  0.00    -0.507 OA
ATOM     15  H   UNL     1     -17.843 -42.218  22.203  1.00  0.00     0.293 HD
ENDBRANCH   3  14
ENDBRANCH   1   2
BRANCH   1  16
ATOM     16  C   UNL     1     -20.538 -40.717  23.713  1.00  0.00     0.009 C 
BRANCH  16  17
ATOM     17  C   UNL     1     -20.110 -40.371  22.271  1.00  0.00     0.000 C 
ATOM     18  C   UNL     1     -20.690 -41.386  21.271  1.00  0.00     0.065 C 
ATOM     19  C   UNL     1     -20.506 -38.952  21.836  1.00  0.00     0.065 C 
ATOM     20  C   UNL     1     -22.191 -41.229  21.072  1.00  0.00     0.262 C 
ATOM     21  C   UNL     1     -22.008 -38.788  21.639  1.00  0.00     0.262 C 
ATOM     22  N   UNL     1     -22.498 -39.814  20.645  1.00  0.00    -0.337 N 
ATOM     23  C   UNL     1     -23.959 -39.632  20.337  1.00  0.00     0.332 C 
ATOM     24  H   UNL     1     -21.992 -39.647  19.764  1.00  0.00     0.347 HD
ENDBRANCH  16  17
ENDBRANCH   1  16
TORSDOF 4
ENDMDL
MODEL 8
REMARK VINA RESULT:    -8.632      2.127      7.553
REMARK INTER + INTRA:         -10.593
REMARK INTER:                 -10.159
REMARK INTRA:                  -0.434
REMARK UNBOUND:                -0.195
REMARK SMILES C[N@H+]1CC[C@@H](CCc2c(O)c3ccccc3[nH]c2=O)CC1
REMARK SMILES IDX 7 1 8 2 9 3 11 4 18 5 12 6 16 7 17 8 13 9 15 10 14 11 19 12
REMARK SMILES IDX 10 14 6 16 5 17 20 18 4 19 21 20 3 21 2 22 1 23
REMARK H PARENT 17 13 10 15 2 24
ROOT
ATOM      1  C   UNL     1     -13.139 -44.251  26.531  1.00  0.00     0.045 C 
ENDROOT
BRANCH   1   2
ATOM      2  C   UNL     1     -12.367 -44.710  27.740  1.00  0.00     0.060 A 
ATOM      3  C   UNL     1     -11.723 -43.881  28.580  1.00  0.00     0.133 A 
ATOM      4  C   UNL     1     -10.963 -44.397  29.735  1.00  0.00     0.040 A 
ATOM      5  C   UNL     1     -12.289 -46.187  27.952  1.00  0.00     0.255 A 
ATOM      6  C   UNL     1     -10.356 -43.578  30.699  1.00  0.00     0.014 A 
ATOM      7  C   UNL     1     -10.861 -45.788  29.887  1.00  0.00     0.052 A 
ATOM      8  N   UNL     1     -11.516 -46.631  28.984  1.00  0.00    -0.321 N 
ATOM      9  C   UNL     1      -9.635 -44.140  31.758  1.00  0.00     0.001 A 
ATOM     10  C   UNL     1     -10.139 -46.352  30.942  1.00  0.00     0.027 A 
ATOM     11  C   UNL     1      -9.521 -45.523  31.875  1.00  0.00     0.002 A 
ATOM     12  O   UNL     1     -12.897 -46.969  27.226  1.00  0.00    -0.269 OA
ATOM     13  H   UNL     1     -11.468 -47.636  29.100  1.00  0.00     0.170 HD
BRANCH   3  14
ATOM     14  O   UNL     1     -11.740 -42.513  28.366  1.00  0.00    -0.507 OA
ATOM     15  H   UNL     1     -12.667 -42.222  28.419  1.00  0.00     0.293 HD
ENDBRANCH   3  14
ENDBRANCH   1   2
BRANCH   1  16
ATOM     16  C   UNL     1     -14.627 -44.063  26.856  1.00  0.00     0.009 C 
BRANCH  16  17
ATOM     17  C   UNL     1     -15.107 -42.603  26.705  1.00  0.00     0.000 C 
ATOM     18  C   UNL     1     -14.540 -41.972  25.422  1.00  0.00     0.065 C 
ATOM     19  C   UNL     1     -16.636 -42.456  26.706  1.00  0.00     0.065 C 
ATOM     20  C   UNL     1     -15.184 -42.522  24.157  1.00  0.00     0.262 C 
ATOM     21  C   UNL     1     -17.287 -43.008  25.444  1.00  0.00     0.262 C 
ATOM     22  N   UNL     1     -16.681 -42.338  24.233  1.00  0.00    -0.337 N 
ATOM     23  C   UNL     1     -17.359 -42.773  22.963  1.00  0.00     0.332 C 
ATOM     24  H   UNL     1     -16.858 -41.328  24.326  1.00  0.00     0.347 HD
ENDBRANCH  16  17
ENDBRANCH   1  16
TORSDOF 4
ENDMDL
MODEL 9
REMARK VINA RESULT:    -8.594      2.114      7.793
REMARK INTER + INTRA:         -10.548
REMARK INTER:                 -10.686
REMARK INTRA:                   0.138
REMARK UNBOUND:                -0.195
REMARK SMILES C[N@H+]1CC[C@@H](CCc2c(O)c3ccccc3[nH]c2=O)CC1
REMARK SMILES IDX 7 1 8 2 9 3 11 4 18 5 12 6 16 7 17 8 13 9 15 10 14 11 19 12
REMARK SMILES IDX 10 14 6 16 5 17 20 18 4 19 21 20 3 21 2 22 1 23
REMARK H PARENT 17 13 10 15 2 24
ROOT
ATOM      1  C   UNL     1     -14.494 -44.918  28.055  1.00  0.00     0.045 C 
ENDROOT
BRANCH   1   2
ATOM      2  C   UNL     1     -13.289 -45.111  28.938  1.00  0.00     0.060 A 
ATOM      3  C   UNL     1     -12.195 -45.805  28.575  1.00  0.00     0.133 A 
ATOM      4  C   UNL     1     -11.056 -45.978  29.498  1.00  0.00     0.040 A 
ATOM      5  C   UNL     1     -13.377 -44.531  30.312  1.00  0.00     0.255 A 
ATOM      6  C   UNL     1      -9.852 -46.603  29.141  1.00  0.00     0.014 A 
ATOM      7  C   UNL     1     -11.180 -45.469  30.799  1.00  0.00     0.052 A 
ATOM      8  N   UNL     1     -12.339 -44.776  31.162  1.00  0.00    -0.321 N 
ATOM      9  C   UNL     1      -8.822 -46.748  30.077  1.00  0.00     0.001 A 
ATOM     10  C   UNL     1     -10.155 -45.614  31.737  1.00  0.00     0.027 A 
ATOM     11  C   UNL     1      -8.976 -46.261  31.373  1.00  0.00     0.002 A 
ATOM     12  O   UNL     1     -14.345 -43.861  30.661  1.00  0.00    -0.269 OA
ATOM     13  H   UNL     1     -12.428 -44.384  32.092  1.00  0.00     0.170 HD
BRANCH   3  14
ATOM     14  O   UNL     1     -12.121 -46.394  27.325  1.00  0.00    -0.507 OA
ATOM     15  H   UNL     1     -11.355 -46.006  26.865  1.00  0.00     0.293 HD
ENDBRANCH   3  14
ENDBRANCH   1   2
BRANCH   1  16
ATOM     16  C   UNL     1     -14.083 -44.597  26.611  1.00  0.00     0.009 C 
BRANCH  16  17
ATOM     17  C   UNL     1     -14.129 -43.089  26.283  1.00  0.00     0.000 C 
ATOM     18  C   UNL     1     -13.971 -42.855  24.771  1.00  0.00     0.065 C 
ATOM     19  C   UNL     1     -15.408 -42.392  26.770  1.00  0.00     0.065 C 
ATOM     20  C   UNL     1     -15.203 -43.266  23.976  1.00  0.00     0.262 C 
ATOM     21  C   UNL     1     -16.646 -42.802  25.981  1.00  0.00     0.262 C 
ATOM     22  N   UNL     1     -16.413 -42.538  24.512  1.00  0.00    -0.337 N 
ATOM     23  C   UNL     1     -17.642 -42.832  23.696  1.00  0.00     0.332 C 
ATOM     24  H   UNL     1     -16.231 -41.531  24.411  1.00  0.00     0.347 HD
ENDBRANCH  16  17
ENDBRANCH   1  16
TORSDOF 4
ENDMDL
