MODEL 1
REMARK VINA RESULT:   -10.279      0.000      0.000
REMARK INTER + INTRA:         -11.462
REMARK INTER:                 -11.180
REMARK INTRA:                  -0.282
REMARK UNBOUND:                -0.282
REMARK SMILES O=c1c(O)c(-c2ccc(Cl)cc2)oc2cc(F)c(I)cc12
REMARK SMILES IDX 1 1 2 2 3 3 5 4 13 5 14 6 15 7 16 8 17 9 18 10 19 11 20 12
REMARK SMILES IDX 21 13 4 14 6 16 7 17 12 18 8 19 11 20 9 21 10 22
REMARK H PARENT 4 15
ROOT
ATOM      1  O   UNL     1     -16.649 -43.090  22.792  1.00  0.00    -0.285 OA
ATOM      2  C   UNL     1     -16.524 -43.043  24.009  1.00  0.00     0.235 A 
ATOM      3  C   UNL     1     -15.261 -43.496  24.642  1.00  0.00     0.208 A 
ATOM      4  C   UNL     1     -15.147 -43.429  25.982  1.00  0.00     0.180 A 
ATOM      5  O   UNL     1     -16.144 -42.946  26.822  1.00  0.00    -0.452 OA
ATOM      6  C   UNL     1     -17.328 -42.529  26.273  1.00  0.00     0.141 A 
ATOM      7  C   UNL     1     -18.308 -42.067  27.150  1.00  0.00     0.088 A 
ATOM      8  C   UNL     1     -19.530 -41.630  26.644  1.00  0.00     0.140 A 
ATOM      9  F   UNL     1     -20.455 -41.189  27.508  1.00  0.00    -0.206 F 
ATOM     10  C   UNL     1     -19.783 -41.650  25.270  1.00  0.00     0.050 A 
ATOM     11  I   UNL     1     -21.606 -40.996  24.516  1.00  0.00    -0.041 I 
ATOM     12  C   UNL     1     -18.803 -42.112  24.389  1.00  0.00     0.034 A 
ATOM     13  C   UNL     1     -17.578 -42.551  24.903  1.00  0.00     0.070 A 
ENDROOT
BRANCH   3  14
ATOM     14  O   UNL     1     -14.265 -43.947  23.797  1.00  0.00    -0.502 OA
ATOM     15  H   UNL     1     -13.716 -44.548  24.347  1.00  0.00     0.293 HD
ENDBRANCH   3  14
BRANCH   4  16
ATOM     16  C   UNL     1     -13.931 -43.843  26.712  1.00  0.00     0.021 A 
ATOM     17  C   UNL     1     -12.883 -42.927  26.900  1.00  0.00     0.013 A 
ATOM     18  C   UNL     1     -13.804 -45.128  27.265  1.00  0.00     0.013 A 
ATOM     19  C   UNL     1     -11.733 -43.289  27.608  1.00  0.00     0.021 A 
ATOM     20  C   UNL     1     -12.655 -45.492  27.973  1.00  0.00     0.021 A 
ATOM     21  C   UNL     1     -11.624 -44.572  28.140  1.00  0.00     0.041 A 
ATOM     22  Cl  UNL     1     -10.210 -45.018  29.013  1.00  0.00    -0.084 Cl
ENDBRANCH   4  16
TORSDOF 2
ENDMDL
MODEL 2
REMARK VINA RESULT:    -9.792      2.632      3.450
REMARK INTER + INTRA:         -10.932
REMARK INTER:                 -10.770
REMARK INTRA:                  -0.162
REMARK UNBOUND:                -0.282
REMARK SMILES O=c1c(O)c(-c2ccc(Cl)cc2)oc2cc(F)c(I)cc12
REMARK SMILES IDX 1 1 2 2 3 3 5 4 13 5 14 6 15 7 16 8 17 9 18 10 19 11 20 12
REMARK SMILES IDX 21 13 4 14 6 16 7 17 12 18 8 19 11 20 9 21 10 22
REMARK H PARENT 4 15
ROOT
ATOM      1  O   UNL     1     -16.331 -40.254  21.283  1.00  0.00    -0.285 OA
ATOM      2  C   UNL     1     -16.829 -40.977  22.138  1.00  0.00     0.235 A 
ATOM      3  C   UNL     1     -15.966 -41.615  23.162  1.00  0.00     0.208 A 
ATOM      4  C   UNL     1     -16.539 -42.400  24.093  1.00  0.00     0.180 A 
ATOM      5  O   UNL     1     -17.905 -42.647  24.166  1.00  0.00    -0.452 OA
ATOM      6  C   UNL     1     -18.731 -42.082  23.231  1.00  0.00     0.141 A 
ATOM      7  C   UNL     1     -20.092 -42.366  23.329  1.00  0.00     0.088 A 
ATOM      8  C   UNL     1     -20.976 -41.815  22.404  1.00  0.00     0.140 A 
ATOM      9  F   UNL     1     -22.280 -42.103  22.521  1.00  0.00    -0.206 F 
ATOM     10  C   UNL     1     -20.514 -40.984  21.380  1.00  0.00     0.050 A 
ATOM     11  I   UNL     1     -21.833 -40.163  20.000  1.00  0.00    -0.041 I 
ATOM     12  C   UNL     1     -19.151 -40.698  21.279  1.00  0.00     0.034 A 
ATOM     13  C   UNL     1     -18.267 -41.255  22.211  1.00  0.00     0.070 A 
ENDROOT
BRANCH   3  14
ATOM     14  O   UNL     1     -14.613 -41.342  23.098  1.00  0.00    -0.502 OA
ATOM     15  H   UNL     1     -14.281 -41.484  24.012  1.00  0.00     0.293 HD
ENDBRANCH   3  14
BRANCH   4  16
ATOM     16  C   UNL     1     -15.776 -43.076  25.164  1.00  0.00     0.021 A 
ATOM     17  C   UNL     1     -16.043 -42.774  26.509  1.00  0.00     0.013 A 
ATOM     18  C   UNL     1     -14.806 -44.049  24.876  1.00  0.00     0.013 A 
ATOM     19  C   UNL     1     -15.350 -43.417  27.539  1.00  0.00     0.021 A 
ATOM     20  C   UNL     1     -14.111 -44.693  25.904  1.00  0.00     0.021 A 
ATOM     21  C   UNL     1     -14.386 -44.373  27.231  1.00  0.00     0.041 A 
ATOM     22  Cl  UNL     1     -13.533 -45.166  28.498  1.00  0.00    -0.084 Cl
ENDBRANCH   4  16
TORSDOF 2
ENDMDL
MODEL 3
REMARK VINA RESULT:    -9.230      2.036      3.223
REMARK INTER + INTRA:         -10.322
REMARK INTER:                 -10.046
REMARK INTRA:                  -0.275
REMARK UNBOUND:                -0.282
REMARK SMILES O=c1c(O)c(-c2ccc(Cl)cc2)oc2cc(F)c(I)cc12
REMARK SMILES IDX 1 1 2 2 3 3 5 4 13 5 14 6 15 7 16 8 17 9 18 10 19 11 20 12
REMARK SMILES IDX 21 13 4 14 6 16 7 17 12 18 8 19 11 20 9 21 10 22
REMARK H PARENT 4 15
ROOT
ATOM      1  O   UNL     1     -17.852 -42.467  28.326  1.00  0.00    -0.285 OA
ATOM      2  C   UNL     1     -16.974 -42.825  27.550  1.00  0.00     0.235 A 
ATOM      3  C   UNL     1     -15.732 -43.443  28.072  1.00  0.00     0.208 A 
ATOM      4  C   UNL     1     -14.785 -43.833  27.198  1.00  0.00     0.180 A 
ATOM      5  O   UNL     1     -14.902 -43.702  25.818  1.00  0.00    -0.452 OA
ATOM      6  C   UNL     1     -16.032 -43.126  25.301  1.00  0.00     0.141 A 
ATOM      7  C   UNL     1     -16.104 -42.998  23.915  1.00  0.00     0.088 A 
ATOM      8  C   UNL     1     -17.233 -42.420  23.338  1.00  0.00     0.140 A 
ATOM      9  F   UNL     1     -17.278 -42.310  22.002  1.00  0.00    -0.206 F 
ATOM     10  C   UNL     1     -18.290 -41.967  24.132  1.00  0.00     0.050 A 
ATOM     11  I   UNL     1     -19.973 -41.105  23.269  1.00  0.00    -0.041 I 
ATOM     12  C   UNL     1     -18.220 -42.094  25.520  1.00  0.00     0.034 A 
ATOM     13  C   UNL     1     -17.084 -42.674  26.095  1.00  0.00     0.070 A 
ENDROOT
BRANCH   3  14
ATOM     14  O   UNL     1     -15.636 -43.596  29.442  1.00  0.00    -0.502 OA
ATOM     15  H   UNL     1     -15.037 -42.876  29.738  1.00  0.00     0.293 HD
ENDBRANCH   3  14
BRANCH   4  16
ATOM     16  C   UNL     1     -13.516 -44.469  27.608  1.00  0.00     0.021 A 
ATOM     17  C   UNL     1     -13.371 -45.863  27.515  1.00  0.00     0.013 A 
ATOM     18  C   UNL     1     -12.423 -43.711  28.059  1.00  0.00     0.013 A 
ATOM     19  C   UNL     1     -12.171 -46.484  27.876  1.00  0.00     0.021 A 
ATOM     20  C   UNL     1     -11.223 -44.330  28.421  1.00  0.00     0.021 A 
ATOM     21  C   UNL     1     -11.103 -45.714  28.329  1.00  0.00     0.041 A 
ATOM     22  Cl  UNL     1      -9.626 -46.477  28.771  1.00  0.00    -0.084 Cl
ENDBRANCH   4  16
TORSDOF 2
ENDMDL
MODEL 4
REMARK VINA RESULT:    -9.003      5.487      8.084
REMARK INTER + INTRA:         -10.074
REMARK INTER:                 -10.001
REMARK INTRA:                  -0.073
REMARK UNBOUND:                -0.282
REMARK SMILES O=c1c(O)c(-c2ccc(Cl)cc2)oc2cc(F)c(I)cc12
REMARK SMILES IDX 1 1 2 2 3 3 5 4 13 5 14 6 15 7 16 8 17 9 18 10 19 11 20 12
REMARK SMILES IDX 21 13 4 14 6 16 7 17 12 18 8 19 11 20 9 21 10 22
REMARK H PARENT 4 15
ROOT
ATOM      1  O   UNL     1     -13.190 -45.161  31.137  1.00  0.00    -0.285 OA
ATOM      2  C   UNL     1     -12.876 -44.634  30.077  1.00  0.00     0.235 A 
ATOM      3  C   UNL     1     -13.885 -44.471  29.003  1.00  0.00     0.208 A 
ATOM      4  C   UNL     1     -13.515 -43.883  27.850  1.00  0.00     0.180 A 
ATOM      5  O   UNL     1     -12.235 -43.402  27.601  1.00  0.00    -0.452 OA
ATOM      6  C   UNL     1     -11.274 -43.544  28.566  1.00  0.00     0.141 A 
ATOM      7  C   UNL     1      -9.999 -43.063  28.272  1.00  0.00     0.088 A 
ATOM      8  C   UNL     1      -8.986 -43.181  29.221  1.00  0.00     0.140 A 
ATOM      9  F   UNL     1      -7.769 -42.709  28.913  1.00  0.00    -0.206 F 
ATOM     10  C   UNL     1      -9.233 -43.777  30.460  1.00  0.00     0.050 A 
ATOM     11  I   UNL     1      -7.720 -43.952  31.875  1.00  0.00    -0.041 I 
ATOM     12  C   UNL     1     -10.509 -44.259  30.758  1.00  0.00     0.034 A 
ATOM     13  C   UNL     1     -11.523 -44.139  29.801  1.00  0.00     0.070 A 
ENDROOT
BRANCH   3  14
ATOM     14  O   UNL     1     -15.162 -44.927  29.270  1.00  0.00    -0.502 OA
ATOM     15  H   UNL     1     -15.761 -44.254  28.877  1.00  0.00     0.293 HD
ENDBRANCH   3  14
BRANCH   4  16
ATOM     16  C   UNL     1     -14.442 -43.662  26.720  1.00  0.00     0.021 A 
ATOM     17  C   UNL     1     -15.617 -42.920  26.916  1.00  0.00     0.013 A 
ATOM     18  C   UNL     1     -14.162 -44.144  25.431  1.00  0.00     0.013 A 
ATOM     19  C   UNL     1     -16.498 -42.678  25.857  1.00  0.00     0.021 A 
ATOM     20  C   UNL     1     -15.040 -43.904  24.371  1.00  0.00     0.021 A 
ATOM     21  C   UNL     1     -16.205 -43.173  24.588  1.00  0.00     0.041 A 
ATOM     22  Cl  UNL     1     -17.286 -42.875  23.284  1.00  0.00    -0.084 Cl
ENDBRANCH   4  16
TORSDOF 2
ENDMDL
MODEL 5
REMARK VINA RESULT:    -8.542      5.321      8.191
REMARK INTER + INTRA:          -9.573
REMARK INTER:                  -9.320
REMARK INTRA:                  -0.253
REMARK UNBOUND:                -0.282
REMARK SMILES O=c1c(O)c(-c2ccc(Cl)cc2)oc2cc(F)c(I)cc12
REMARK SMILES IDX 1 1 2 2 3 3 5 4 13 5 14 6 15 7 16 8 17 9 18 10 19 11 20 12
REMARK SMILES IDX 21 13 4 14 6 16 7 17 12 18 8 19 11 20 9 21 10 22
REMARK H PARENT 4 15
ROOT
ATOM      1  O   UNL     1     -19.373 -42.072  26.746  1.00  0.00    -0.285 OA
ATOM      2  C   UNL     1     -18.926 -41.980  25.609  1.00  0.00     0.235 A 
ATOM      3  C   UNL     1     -19.763 -41.409  24.527  1.00  0.00     0.208 A 
ATOM      4  C   UNL     1     -19.246 -41.315  23.288  1.00  0.00     0.180 A 
ATOM      5  O   UNL     1     -17.957 -41.714  22.953  1.00  0.00    -0.452 OA
ATOM      6  C   UNL     1     -17.158 -42.256  23.925  1.00  0.00     0.141 A 
ATOM      7  C   UNL     1     -15.878 -42.658  23.546  1.00  0.00     0.088 A 
ATOM      8  C   UNL     1     -15.025 -43.214  24.497  1.00  0.00     0.140 A 
ATOM      9  F   UNL     1     -13.799 -43.592  24.107  1.00  0.00    -0.206 F 
ATOM     10  C   UNL     1     -15.438 -43.374  25.822  1.00  0.00     0.050 A 
ATOM     11  I   UNL     1     -14.163 -44.204  27.239  1.00  0.00    -0.041 I 
ATOM     12  C   UNL     1     -16.719 -42.972  26.204  1.00  0.00     0.034 A 
ATOM     13  C   UNL     1     -17.573 -42.415  25.245  1.00  0.00     0.070 A 
ENDROOT
BRANCH   3  14
ATOM     14  O   UNL     1     -21.033 -40.989  24.875  1.00  0.00    -0.502 OA
ATOM     15  H   UNL     1     -20.982 -40.787  25.835  1.00  0.00     0.293 HD
ENDBRANCH   3  14
BRANCH   4  16
ATOM     16  C   UNL     1     -19.989 -40.752  22.141  1.00  0.00     0.021 A 
ATOM     17  C   UNL     1     -20.113 -39.360  22.004  1.00  0.00     0.013 A 
ATOM     18  C   UNL     1     -20.548 -41.575  21.149  1.00  0.00     0.013 A 
ATOM     19  C   UNL     1     -20.792 -38.804  20.915  1.00  0.00     0.021 A 
ATOM     20  C   UNL     1     -21.227 -41.021  20.060  1.00  0.00     0.021 A 
ATOM     21  C   UNL     1     -21.347 -39.639  19.948  1.00  0.00     0.041 A 
ATOM     22  Cl  UNL     1     -22.180 -38.956  18.607  1.00  0.00    -0.084 Cl
ENDBRANCH   4  16
TORSDOF 2
ENDMDL
MODEL 6
REMARK VINA RESULT:    -8.383      3.701      5.160
REMARK INTER + INTRA:          -9.400
REMARK INTER:                  -9.234
REMARK INTRA:                  -0.166
REMARK UNBOUND:                -0.282
REMARK SMILES O=c1c(O)c(-c2ccc(Cl)cc2)oc2cc(F)c(I)cc12
REMARK SMILES IDX 1 1 2 2 3 3 5 4 13 5 14 6 15 7 16 8 17 9 18 10 19 11 20 12
REMARK SMILES IDX 21 13 4 14 6 16 7 17 12 18 8 19 11 20 9 21 10 22
REMARK H PARENT 4 15
ROOT
ATOM      1  O   UNL     1     -21.895 -43.013  23.258  1.00  0.00    -0.285 OA
ATOM      2  C   UNL     1     -20.798 -42.492  23.092  1.00  0.00     0.235 A 
ATOM      3  C   UNL     1     -19.641 -42.926  23.911  1.00  0.00     0.208 A 
ATOM      4  C   UNL     1     -18.446 -42.342  23.705  1.00  0.00     0.180 A 
ATOM      5  O   UNL     1     -18.220 -41.353  22.755  1.00  0.00    -0.452 OA
ATOM      6  C   UNL     1     -19.268 -40.920  21.987  1.00  0.00     0.141 A 
ATOM      7  C   UNL     1     -19.004 -39.916  21.057  1.00  0.00     0.088 A 
ATOM      8  C   UNL     1     -20.036 -39.441  20.249  1.00  0.00     0.140 A 
ATOM      9  F   UNL     1     -19.755 -38.476  19.362  1.00  0.00    -0.206 F 
ATOM     10  C   UNL     1     -21.329 -39.958  20.363  1.00  0.00     0.050 A 
ATOM     11  I   UNL     1     -22.866 -39.249  19.157  1.00  0.00    -0.041 I 
ATOM     12  C   UNL     1     -21.596 -40.964  21.294  1.00  0.00     0.034 A 
ATOM     13  C   UNL     1     -20.557 -41.436  22.103  1.00  0.00     0.070 A 
ENDROOT
BRANCH   3  14
ATOM     14  O   UNL     1     -19.868 -43.930  24.834  1.00  0.00    -0.502 OA
ATOM     15  H   UNL     1     -19.856 -43.481  25.708  1.00  0.00     0.293 HD
ENDBRANCH   3  14
BRANCH   4  16
ATOM     16  C   UNL     1     -17.226 -42.705  24.457  1.00  0.00     0.021 A 
ATOM     17  C   UNL     1     -16.114 -43.222  23.775  1.00  0.00     0.013 A 
ATOM     18  C   UNL     1     -17.130 -42.511  25.845  1.00  0.00     0.013 A 
ATOM     19  C   UNL     1     -14.941 -43.552  24.461  1.00  0.00     0.021 A 
ATOM     20  C   UNL     1     -15.959 -42.840  26.534  1.00  0.00     0.021 A 
ATOM     21  C   UNL     1     -14.870 -43.360  25.839  1.00  0.00     0.041 A 
ATOM     22  Cl  UNL     1     -13.427 -43.763  26.685  1.00  0.00    -0.084 Cl
ENDBRANCH   4  16
TORSDOF 2
ENDMDL
MODEL 7
REMARK VINA RESULT:    -8.000      3.831      5.444
REMARK INTER + INTRA:          -8.984
REMARK INTER:                  -9.084
REMARK INTRA:                   0.101
REMARK UNBOUND:                -0.282
REMARK SMILES O=c1c(O)c(-c2ccc(Cl)cc2)oc2cc(F)c(I)cc12
REMARK SMILES IDX 1 1 2 2 3 3 5 4 13 5 14 6 15 7 16 8 17 9 18 10 19 11 20 12
REMARK SMILES IDX 21 13 4 14 6 16 7 17 12 18 8 19 11 20 9 21 10 22
REMARK H PARENT 4 15
ROOT
ATOM      1  O   UNL     1     -19.111 -39.670  19.834  1.00  0.00    -0.285 OA
ATOM      2  C   UNL     1     -19.391 -40.345  20.817  1.00  0.00     0.235 A 
ATOM      3  C   UNL     1     -18.312 -40.871  21.687  1.00  0.00     0.208 A 
ATOM      4  C   UNL     1     -18.647 -41.605  22.764  1.00  0.00     0.180 A 
ATOM      5  O   UNL     1     -19.957 -41.898  23.125  1.00  0.00    -0.452 OA
ATOM      6  C   UNL     1     -20.980 -41.438  22.339  1.00  0.00     0.141 A 
ATOM      7  C   UNL     1     -22.278 -41.766  22.726  1.00  0.00     0.088 A 
ATOM      8  C   UNL     1     -23.355 -41.321  21.962  1.00  0.00     0.140 A 
ATOM      9  F   UNL     1     -24.593 -41.649  22.357  1.00  0.00    -0.206 F 
ATOM     10  C   UNL     1     -23.148 -40.552  20.813  1.00  0.00     0.050 A 
ATOM     11  I   UNL     1     -24.754 -39.889  19.675  1.00  0.00    -0.041 I 
ATOM     12  C   UNL     1     -21.848 -40.222  20.424  1.00  0.00     0.034 A 
ATOM     13  C   UNL     1     -20.770 -40.672  21.194  1.00  0.00     0.070 A 
ENDROOT
BRANCH   3  14
ATOM     14  O   UNL     1     -17.014 -40.551  21.336  1.00  0.00    -0.502 OA
ATOM     15  H   UNL     1     -16.549 -40.399  22.188  1.00  0.00     0.293 HD
ENDBRANCH   3  14
BRANCH   4  16
ATOM     16  C   UNL     1     -17.653 -42.168  23.702  1.00  0.00     0.021 A 
ATOM     17  C   UNL     1     -17.943 -42.224  25.075  1.00  0.00     0.013 A 
ATOM     18  C   UNL     1     -16.429 -42.690  23.254  1.00  0.00     0.013 A 
ATOM     19  C   UNL     1     -17.028 -42.773  25.979  1.00  0.00     0.021 A 
ATOM     20  C   UNL     1     -15.512 -43.238  24.156  1.00  0.00     0.021 A 
ATOM     21  C   UNL     1     -15.816 -43.277  25.514  1.00  0.00     0.041 A 
ATOM     22  Cl  UNL     1     -14.689 -43.954  26.625  1.00  0.00    -0.084 Cl
ENDBRANCH   4  16
TORSDOF 2
ENDMDL
MODEL 8
REMARK VINA RESULT:    -7.908      4.838      6.685
REMARK INTER + INTRA:          -8.883
REMARK INTER:                  -8.687
REMARK INTRA:                  -0.196
REMARK UNBOUND:                -0.282
REMARK SMILES O=c1c(O)c(-c2ccc(Cl)cc2)oc2cc(F)c(I)cc12
REMARK SMILES IDX 1 1 2 2 3 3 5 4 13 5 14 6 15 7 16 8 17 9 18 10 19 11 20 12
REMARK SMILES IDX 21 13 4 14 6 16 7 17 12 18 8 19 11 20 9 21 10 22
REMARK H PARENT 4 15
ROOT
ATOM      1  O   UNL     1     -22.939 -42.894  21.387  1.00  0.00    -0.285 OA
ATOM      2  C   UNL     1     -21.938 -42.205  21.539  1.00  0.00     0.235 A 
ATOM      3  C   UNL     1     -20.900 -42.612  22.517  1.00  0.00     0.208 A 
ATOM      4  C   UNL     1     -19.807 -41.840  22.662  1.00  0.00     0.180 A 
ATOM      5  O   UNL     1     -19.578 -40.676  21.936  1.00  0.00    -0.452 OA
ATOM      6  C   UNL     1     -20.520 -40.263  21.031  1.00  0.00     0.141 A 
ATOM      7  C   UNL     1     -20.261 -39.084  20.336  1.00  0.00     0.088 A 
ATOM      8  C   UNL     1     -21.186 -38.621  19.403  1.00  0.00     0.140 A 
ATOM      9  F   UNL     1     -20.913 -37.484  18.747  1.00  0.00    -0.206 F 
ATOM     10  C   UNL     1     -22.369 -39.324  19.158  1.00  0.00     0.050 A 
ATOM     11  I   UNL     1     -23.747 -38.633  17.765  1.00  0.00    -0.041 I 
ATOM     12  C   UNL     1     -22.630 -40.507  19.853  1.00  0.00     0.034 A 
ATOM     13  C   UNL     1     -21.698 -40.967  20.790  1.00  0.00     0.070 A 
ENDROOT
BRANCH   3  14
ATOM     14  O   UNL     1     -21.122 -43.786  23.213  1.00  0.00    -0.502 OA
ATOM     15  H   UNL     1     -21.435 -44.427  22.538  1.00  0.00     0.293 HD
ENDBRANCH   3  14
BRANCH   4  16
ATOM     16  C   UNL     1     -18.708 -42.158  23.598  1.00  0.00     0.021 A 
ATOM     17  C   UNL     1     -18.925 -42.073  24.983  1.00  0.00     0.013 A 
ATOM     18  C   UNL     1     -17.450 -42.584  23.142  1.00  0.00     0.013 A 
ATOM     19  C   UNL     1     -17.909 -42.391  25.889  1.00  0.00     0.021 A 
ATOM     20  C   UNL     1     -16.432 -42.902  24.046  1.00  0.00     0.021 A 
ATOM     21  C   UNL     1     -16.665 -42.803  25.415  1.00  0.00     0.041 A 
ATOM     22  Cl  UNL     1     -15.414 -43.196  26.528  1.00  0.00    -0.084 Cl
ENDBRANCH   4  16
TORSDOF 2
ENDMDL
MODEL 9
REMARK VINA RESULT:    -7.726      5.232      8.253
REMARK INTER + INTRA:          -8.686
REMARK INTER:                  -8.400
REMARK INTRA:                  -0.285
REMARK UNBOUND:                -0.282
REMARK SMILES O=c1c(O)c(-c2ccc(Cl)cc2)oc2cc(F)c(I)cc12
REMARK SMILES IDX 1 1 2 2 3 3 5 4 13 5 14 6 15 7 16 8 17 9 18 10 19 11 20 12
REMARK SMILES IDX 21 13 4 14 6 16 7 17 12 18 8 19 11 20 9 21 10 22
REMARK H PARENT 4 15
ROOT
ATOM      1  O   UNL     1     -19.447 -41.589  23.332  1.00  0.00    -0.285 OA
ATOM      2  C   UNL     1     -19.661 -41.617  24.538  1.00  0.00     0.235 A 
ATOM      3  C   UNL     1     -20.994 -41.234  25.063  1.00  0.00     0.208 A 
ATOM      4  C   UNL     1     -21.205 -41.278  26.392  1.00  0.00     0.180 A 
ATOM      5  O   UNL     1     -20.245 -41.677  27.316  1.00  0.00    -0.452 OA
ATOM      6  C   UNL     1     -18.999 -42.028  26.868  1.00  0.00     0.141 A 
ATOM      7  C   UNL     1     -18.061 -42.405  27.827  1.00  0.00     0.088 A 
ATOM      8  C   UNL     1     -16.779 -42.773  27.424  1.00  0.00     0.140 A 
ATOM      9  F   UNL     1     -15.896 -43.134  28.366  1.00  0.00    -0.206 F 
ATOM     10  C   UNL     1     -16.425 -42.767  26.073  1.00  0.00     0.050 A 
ATOM     11  I   UNL     1     -14.512 -43.317  25.473  1.00  0.00    -0.041 I 
ATOM     12  C   UNL     1     -17.363 -42.389  25.110  1.00  0.00     0.034 A 
ATOM     13  C   UNL     1     -18.649 -42.019  25.520  1.00  0.00     0.070 A 
ENDROOT
BRANCH   3  14
ATOM     14  O   UNL     1     -21.951 -40.867  24.135  1.00  0.00    -0.502 OA
ATOM     15  H   UNL     1     -22.678 -40.469  24.662  1.00  0.00     0.293 HD
ENDBRANCH   3  14
BRANCH   4  16
ATOM     16  C   UNL     1     -22.496 -40.928  27.020  1.00  0.00     0.021 A 
ATOM     17  C   UNL     1     -23.450 -41.930  27.260  1.00  0.00     0.013 A 
ATOM     18  C   UNL     1     -22.788 -39.615  27.424  1.00  0.00     0.013 A 
ATOM     19  C   UNL     1     -24.669 -41.627  27.874  1.00  0.00     0.021 A 
ATOM     20  C   UNL     1     -24.007 -39.309  28.037  1.00  0.00     0.021 A 
ATOM     21  C   UNL     1     -24.942 -40.316  28.258  1.00  0.00     0.041 A 
ATOM     22  Cl  UNL     1     -26.441 -39.942  29.015  1.00  0.00    -0.084 Cl
ENDBRANCH   4  16
TORSDOF 2
ENDMDL
