MODEL 1
REMARK VINA RESULT:   -11.758      0.000      0.000
REMARK INTER + INTRA:         -16.752
REMARK INTER:                 -15.882
REMARK INTRA:                  -0.870
REMARK UNBOUND:                -0.870
REMARK SMILES COc1cc2c(cc1OC)C(=O)[C@@H](C[C@H]1CC[N@@H+](Cc3ccccc3)CC1)C2
REMARK SMILES IDX 14 1 15 2 17 3 18 4 16 5 26 6 27 7 19 9 20 10 21 11 25 12
REMARK SMILES IDX 22 13 24 14 23 15 13 16 11 17 28 18 6 19 5 20 7 21 4 22 8 23
REMARK SMILES IDX 3 24 12 25 9 26 10 27 2 28 1 29
REMARK H PARENT 18 8
ROOT
ATOM      1  C   UNL     1     -13.849 -44.877  26.972  1.00  0.00     0.016 C 
ENDROOT
BRANCH   1   2
ATOM      2  C   UNL     1     -12.367 -45.057  27.368  1.00  0.00     0.001 C 
ATOM      3  C   UNL     1     -10.450 -44.056  28.681  1.00  0.00     0.262 C 
ATOM      4  N   UNL     1     -10.195 -45.394  29.320  1.00  0.00    -0.331 N 
ATOM      5  C   UNL     1     -11.916 -43.913  28.291  1.00  0.00     0.065 C 
ATOM      6  C   UNL     1     -10.606 -46.535  28.419  1.00  0.00     0.262 C 
ATOM      7  C   UNL     1     -12.073 -46.414  28.023  1.00  0.00     0.065 C 
ATOM      8  H   UNL     1      -9.174 -45.479  29.403  1.00  0.00     0.348 HD
BRANCH   4   9
ATOM      9  C   UNL     1     -10.698 -45.489  30.746  1.00  0.00     0.299 C 
BRANCH   9  10
ATOM     10  C   UNL     1      -9.961 -44.584  31.693  1.00  0.00     0.006 A 
ATOM     11  C   UNL     1      -8.559 -44.605  31.755  1.00  0.00     0.009 A 
ATOM     12  C   UNL     1     -10.664 -43.689  32.517  1.00  0.00     0.009 A 
ATOM     13  C   UNL     1      -7.876 -43.745  32.615  1.00  0.00     0.001 A 
ATOM     14  C   UNL     1      -9.976 -42.831  33.375  1.00  0.00     0.001 A 
ATOM     15  C   UNL     1      -8.584 -42.858  33.422  1.00  0.00     0.000 A 
ENDBRANCH   9  10
ENDBRANCH   4   9
ENDBRANCH   1   2
BRANCH   1  16
ATOM     16  C   UNL     1     -14.290 -43.437  26.661  1.00  0.00     0.066 C 
ATOM     17  C   UNL     1     -15.640 -43.095  27.267  1.00  0.00     0.166 C 
ATOM     18  C   UNL     1     -14.485 -43.211  25.138  1.00  0.00     0.048 C 
ATOM     19  C   UNL     1     -16.581 -42.745  26.213  1.00  0.00     0.025 A 
ATOM     20  C   UNL     1     -15.923 -42.824  24.996  1.00  0.00    -0.033 A 
ATOM     21  C   UNL     1     -17.912 -42.396  26.337  1.00  0.00     0.062 A 
ATOM     22  C   UNL     1     -16.609 -42.542  23.824  1.00  0.00     0.055 A 
ATOM     23  C   UNL     1     -18.617 -42.110  25.165  1.00  0.00     0.161 A 
ATOM     24  C   UNL     1     -17.964 -42.183  23.902  1.00  0.00     0.161 A 
ATOM     25  O   UNL     1     -15.915 -43.107  28.456  1.00  0.00    -0.294 OA
BRANCH  23  26
ATOM     26  O   UNL     1     -19.943 -41.754  25.129  1.00  0.00    -0.493 OA
ATOM     27  C   UNL     1     -20.531 -41.269  26.329  1.00  0.00     0.278 C 
ENDBRANCH  23  26
BRANCH  24  28
ATOM     28  O   UNL     1     -18.745 -41.888  22.812  1.00  0.00    -0.493 OA
ATOM     29  C   UNL     1     -18.411 -40.743  22.043  1.00  0.00     0.278 C 
ENDBRANCH  24  28
ENDBRANCH   1  16
TORSDOF 6
ENDMDL
MODEL 2
REMARK VINA RESULT:   -10.922      1.116      2.229
REMARK INTER + INTRA:         -15.623
REMARK INTER:                 -14.994
REMARK INTRA:                  -0.629
REMARK UNBOUND:                -0.870
REMARK SMILES COc1cc2c(cc1OC)C(=O)[C@@H](C[C@H]1CC[N@@H+](Cc3ccccc3)CC1)C2
REMARK SMILES IDX 14 1 15 2 17 3 18 4 16 5 26 6 27 7 19 9 20 10 21 11 25 12
REMARK SMILES IDX 22 13 24 14 23 15 13 16 11 17 28 18 6 19 5 20 7 21 4 22 8 23
REMARK SMILES IDX 3 24 12 25 9 26 10 27 2 28 1 29
REMARK H PARENT 18 8
ROOT
ATOM      1  C   UNL     1     -13.183 -42.882  26.734  1.00  0.00     0.016 C 
ENDROOT
BRANCH   1   2
ATOM      2  C   UNL     1     -11.994 -43.694  27.292  1.00  0.00     0.001 C 
ATOM      3  C   UNL     1      -9.978 -43.608  28.819  1.00  0.00     0.262 C 
ATOM      4  N   UNL     1     -10.425 -44.888  29.472  1.00  0.00    -0.331 N 
ATOM      5  C   UNL     1     -11.171 -42.837  28.269  1.00  0.00     0.065 C 
ATOM      6  C   UNL     1     -11.212 -45.759  28.522  1.00  0.00     0.262 C 
ATOM      7  C   UNL     1     -12.415 -45.007  27.966  1.00  0.00     0.065 C 
ATOM      8  H   UNL     1      -9.567 -45.421  29.668  1.00  0.00     0.348 HD
BRANCH   4   9
ATOM      9  C   UNL     1     -11.061 -44.684  30.832  1.00  0.00     0.299 C 
BRANCH   9  10
ATOM     10  C   UNL     1     -10.135 -44.036  31.825  1.00  0.00     0.006 A 
ATOM     11  C   UNL     1      -8.754 -44.278  31.776  1.00  0.00     0.009 A 
ATOM     12  C   UNL     1     -10.638 -43.163  32.803  1.00  0.00     0.009 A 
ATOM     13  C   UNL     1      -7.894 -43.655  32.681  1.00  0.00     0.001 A 
ATOM     14  C   UNL     1      -9.774 -42.542  33.706  1.00  0.00     0.001 A 
ATOM     15  C   UNL     1      -8.404 -42.787  33.643  1.00  0.00     0.000 A 
ENDBRANCH   9  10
ENDBRANCH   4   9
ENDBRANCH   1   2
BRANCH   1  16
ATOM     16  C   UNL     1     -14.420 -43.697  26.326  1.00  0.00     0.066 C 
ATOM     17  C   UNL     1     -14.871 -43.405  24.905  1.00  0.00     0.166 C 
ATOM     18  C   UNL     1     -15.654 -43.348  27.199  1.00  0.00     0.048 C 
ATOM     19  C   UNL     1     -16.228 -42.879  24.916  1.00  0.00     0.025 A 
ATOM     20  C   UNL     1     -16.670 -42.835  26.228  1.00  0.00    -0.033 A 
ATOM     21  C   UNL     1     -16.995 -42.468  23.841  1.00  0.00     0.062 A 
ATOM     22  C   UNL     1     -17.943 -42.361  26.510  1.00  0.00     0.055 A 
ATOM     23  C   UNL     1     -18.279 -41.987  24.109  1.00  0.00     0.161 A 
ATOM     24  C   UNL     1     -18.756 -41.932  25.449  1.00  0.00     0.161 A 
ATOM     25  O   UNL     1     -14.210 -43.576  23.894  1.00  0.00    -0.294 OA
BRANCH  23  26
ATOM     26  O   UNL     1     -19.152 -41.540  23.147  1.00  0.00    -0.493 OA
ATOM     27  C   UNL     1     -18.624 -40.757  22.086  1.00  0.00     0.278 C 
ENDBRANCH  23  26
BRANCH  24  28
ATOM     28  O   UNL     1     -20.028 -41.440  25.606  1.00  0.00    -0.493 OA
ATOM     29  C   UNL     1     -20.512 -41.251  26.927  1.00  0.00     0.278 C 
ENDBRANCH  24  28
ENDBRANCH   1  16
TORSDOF 6
ENDMDL
MODEL 3
REMARK VINA RESULT:   -10.246      1.496      2.647
REMARK INTER + INTRA:         -14.710
REMARK INTER:                 -13.891
REMARK INTRA:                  -0.820
REMARK UNBOUND:                -0.870
REMARK SMILES COc1cc2c(cc1OC)C(=O)[C@@H](C[C@H]1CC[N@@H+](Cc3ccccc3)CC1)C2
REMARK SMILES IDX 14 1 15 2 17 3 18 4 16 5 26 6 27 7 19 9 20 10 21 11 25 12
REMARK SMILES IDX 22 13 24 14 23 15 13 16 11 17 28 18 6 19 5 20 7 21 4 22 8 23
REMARK SMILES IDX 3 24 12 25 9 26 10 27 2 28 1 29
REMARK H PARENT 18 8
ROOT
ATOM      1  C   UNL     1     -14.513 -42.648  26.290  1.00  0.00     0.016 C 
ENDROOT
BRANCH   1   2
ATOM      2  C   UNL     1     -13.304 -43.548  26.627  1.00  0.00     0.001 C 
ATOM      3  C   UNL     1     -11.088 -43.648  27.844  1.00  0.00     0.262 C 
ATOM      4  N   UNL     1     -11.508 -44.940  28.492  1.00  0.00    -0.331 N 
ATOM      5  C   UNL     1     -12.302 -42.789  27.513  1.00  0.00     0.065 C 
ATOM      6  C   UNL     1     -12.473 -45.715  27.627  1.00  0.00     0.262 C 
ATOM      7  C   UNL     1     -13.698 -44.875  27.291  1.00  0.00     0.065 C 
ATOM      8  H   UNL     1     -10.663 -45.524  28.535  1.00  0.00     0.348 HD
BRANCH   4   9
ATOM      9  C   UNL     1     -11.928 -44.781  29.939  1.00  0.00     0.299 C 
BRANCH   9  10
ATOM     10  C   UNL     1     -10.767 -44.583  30.874  1.00  0.00     0.006 A 
ATOM     11  C   UNL     1      -9.715 -45.510  30.910  1.00  0.00     0.009 A 
ATOM     12  C   UNL     1     -10.707 -43.455  31.708  1.00  0.00     0.009 A 
ATOM     13  C   UNL     1      -8.625 -45.311  31.758  1.00  0.00     0.001 A 
ATOM     14  C   UNL     1      -9.615 -43.260  32.554  1.00  0.00     0.001 A 
ATOM     15  C   UNL     1      -8.575 -44.185  32.577  1.00  0.00     0.000 A 
ENDBRANCH   9  10
ENDBRANCH   4   9
ENDBRANCH   1   2
BRANCH   1  16
ATOM     16  C   UNL     1     -15.785 -43.377  25.828  1.00  0.00     0.066 C 
ATOM     17  C   UNL     1     -16.081 -43.161  24.354  1.00  0.00     0.166 C 
ATOM     18  C   UNL     1     -17.049 -42.847  26.554  1.00  0.00     0.048 C 
ATOM     19  C   UNL     1     -17.374 -42.515  24.199  1.00  0.00     0.025 A 
ATOM     20  C   UNL     1     -17.922 -42.324  25.458  1.00  0.00    -0.033 A 
ATOM     21  C   UNL     1     -18.001 -42.124  23.031  1.00  0.00     0.062 A 
ATOM     22  C   UNL     1     -19.161 -41.714  25.584  1.00  0.00     0.055 A 
ATOM     23  C   UNL     1     -19.250 -41.507  23.141  1.00  0.00     0.161 A 
ATOM     24  C   UNL     1     -19.834 -41.300  24.423  1.00  0.00     0.161 A 
ATOM     25  O   UNL     1     -15.354 -43.474  23.424  1.00  0.00    -0.294 OA
BRANCH  23  26
ATOM     26  O   UNL     1     -19.989 -41.062  22.072  1.00  0.00    -0.493 OA
ATOM     27  C   UNL     1     -20.662 -42.033  21.282  1.00  0.00     0.278 C 
ENDBRANCH  23  26
BRANCH  24  28
ATOM     28  O   UNL     1     -21.060 -40.683  24.424  1.00  0.00    -0.493 OA
ATOM     29  C   UNL     1     -21.776 -40.622  25.648  1.00  0.00     0.278 C 
ENDBRANCH  24  28
ENDBRANCH   1  16
TORSDOF 6
ENDMDL
MODEL 4
REMARK VINA RESULT:   -10.149      1.497      2.007
REMARK INTER + INTRA:         -14.578
REMARK INTER:                 -14.250
REMARK INTRA:                  -0.328
REMARK UNBOUND:                -0.870
REMARK SMILES COc1cc2c(cc1OC)C(=O)[C@@H](C[C@H]1CC[N@@H+](Cc3ccccc3)CC1)C2
REMARK SMILES IDX 14 1 15 2 17 3 18 4 16 5 26 6 27 7 19 9 20 10 21 11 25 12
REMARK SMILES IDX 22 13 24 14 23 15 13 16 11 17 28 18 6 19 5 20 7 21 4 22 8 23
REMARK SMILES IDX 3 24 12 25 9 26 10 27 2 28 1 29
REMARK H PARENT 18 8
ROOT
ATOM      1  C   UNL     1     -14.177 -44.458  25.842  1.00  0.00     0.016 C 
ENDROOT
BRANCH   1   2
ATOM      2  C   UNL     1     -13.736 -44.807  27.280  1.00  0.00     0.001 C 
ATOM      3  C   UNL     1     -12.611 -46.555  28.723  1.00  0.00     0.262 C 
ATOM      4  N   UNL     1     -11.730 -45.489  29.317  1.00  0.00    -0.331 N 
ATOM      5  C   UNL     1     -13.038 -46.176  27.310  1.00  0.00     0.065 C 
ATOM      6  C   UNL     1     -12.407 -44.139  29.324  1.00  0.00     0.262 C 
ATOM      7  C   UNL     1     -12.836 -43.739  27.917  1.00  0.00     0.065 C 
ATOM      8  H   UNL     1     -11.620 -45.734  30.310  1.00  0.00     0.348 HD
BRANCH   4   9
ATOM      9  C   UNL     1     -10.318 -45.496  28.769  1.00  0.00     0.299 C 
BRANCH   9  10
ATOM     10  C   UNL     1      -9.272 -45.282  29.829  1.00  0.00     0.006 A 
ATOM     11  C   UNL     1      -8.804 -46.359  30.597  1.00  0.00     0.009 A 
ATOM     12  C   UNL     1      -8.732 -44.004  30.050  1.00  0.00     0.009 A 
ATOM     13  C   UNL     1      -7.813 -46.163  31.560  1.00  0.00     0.001 A 
ATOM     14  C   UNL     1      -7.743 -43.814  31.015  1.00  0.00     0.001 A 
ATOM     15  C   UNL     1      -7.283 -44.892  31.766  1.00  0.00     0.000 A 
ENDBRANCH   9  10
ENDBRANCH   4   9
ENDBRANCH   1   2
BRANCH   1  16
ATOM     16  C   UNL     1     -14.738 -43.042  25.636  1.00  0.00     0.066 C 
ATOM     17  C   UNL     1     -15.964 -42.767  26.490  1.00  0.00     0.166 C 
ATOM     18  C   UNL     1     -15.227 -42.822  24.180  1.00  0.00     0.048 C 
ATOM     19  C   UNL     1     -17.102 -42.463  25.636  1.00  0.00     0.025 A 
ATOM     20  C   UNL     1     -16.683 -42.507  24.316  1.00  0.00    -0.033 A 
ATOM     21  C   UNL     1     -18.402 -42.180  26.012  1.00  0.00     0.062 A 
ATOM     22  C   UNL     1     -17.591 -42.256  23.297  1.00  0.00     0.055 A 
ATOM     23  C   UNL     1     -19.328 -41.927  24.997  1.00  0.00     0.161 A 
ATOM     24  C   UNL     1     -18.922 -41.965  23.633  1.00  0.00     0.161 A 
ATOM     25  O   UNL     1     -16.009 -42.796  27.709  1.00  0.00    -0.294 OA
BRANCH  23  26
ATOM     26  O   UNL     1     -20.653 -41.636  25.216  1.00  0.00    -0.493 OA
ATOM     27  C   UNL     1     -21.047 -41.301  26.540  1.00  0.00     0.278 C 
ENDBRANCH  23  26
BRANCH  24  28
ATOM     28  O   UNL     1     -19.909 -41.706  22.713  1.00  0.00    -0.493 OA
ATOM     29  C   UNL     1     -20.655 -42.803  22.209  1.00  0.00     0.278 C 
ENDBRANCH  24  28
ENDBRANCH   1  16
TORSDOF 6
ENDMDL
MODEL 5
REMARK VINA RESULT:    -9.754      2.622      4.733
REMARK INTER + INTRA:         -14.046
REMARK INTER:                 -13.213
REMARK INTRA:                  -0.832
REMARK UNBOUND:                -0.870
REMARK SMILES COc1cc2c(cc1OC)C(=O)[C@@H](C[C@H]1CC[N@@H+](Cc3ccccc3)CC1)C2
REMARK SMILES IDX 14 1 15 2 17 3 18 4 16 5 26 6 27 7 19 9 20 10 21 11 25 12
REMARK SMILES IDX 22 13 24 14 23 15 13 16 11 17 28 18 6 19 5 20 7 21 4 22 8 23
REMARK SMILES IDX 3 24 12 25 9 26 10 27 2 28 1 29
REMARK H PARENT 18 8
ROOT
ATOM      1  C   UNL     1     -15.516 -42.067  24.017  1.00  0.00     0.016 C 
ENDROOT
BRANCH   1   2
ATOM      2  C   UNL     1     -15.424 -43.105  25.156  1.00  0.00     0.001 C 
ATOM      3  C   UNL     1     -14.135 -45.103  26.022  1.00  0.00     0.262 C 
ATOM      4  N   UNL     1     -14.043 -44.451  27.375  1.00  0.00    -0.331 N 
ATOM      5  C   UNL     1     -14.237 -44.054  24.922  1.00  0.00     0.065 C 
ATOM      6  C   UNL     1     -15.214 -43.535  27.638  1.00  0.00     0.262 C 
ATOM      7  C   UNL     1     -15.329 -42.473  26.551  1.00  0.00     0.065 C 
ATOM      8  H   UNL     1     -14.141 -45.209  28.062  1.00  0.00     0.348 HD
BRANCH   4   9
ATOM      9  C   UNL     1     -12.682 -43.853  27.666  1.00  0.00     0.299 C 
BRANCH   9  10
ATOM     10  C   UNL     1     -11.884 -44.655  28.657  1.00  0.00     0.006 A 
ATOM     11  C   UNL     1     -11.137 -45.766  28.238  1.00  0.00     0.009 A 
ATOM     12  C   UNL     1     -11.858 -44.291  30.013  1.00  0.00     0.009 A 
ATOM     13  C   UNL     1     -10.375 -46.493  29.155  1.00  0.00     0.001 A 
ATOM     14  C   UNL     1     -11.095 -45.021  30.925  1.00  0.00     0.001 A 
ATOM     15  C   UNL     1     -10.354 -46.118  30.496  1.00  0.00     0.000 A 
ENDBRANCH   9  10
ENDBRANCH   4   9
ENDBRANCH   1   2
BRANCH   1  16
ATOM     16  C   UNL     1     -16.561 -42.356  22.927  1.00  0.00     0.066 C 
ATOM     17  C   UNL     1     -16.841 -41.149  22.049  1.00  0.00     0.166 C 
ATOM     18  C   UNL     1     -17.943 -42.717  23.535  1.00  0.00     0.048 C 
ATOM     19  C   UNL     1     -18.244 -40.777  22.152  1.00  0.00     0.025 A 
ATOM     20  C   UNL     1     -18.870 -41.667  23.011  1.00  0.00    -0.033 A 
ATOM     21  C   UNL     1     -18.899 -39.727  21.536  1.00  0.00     0.062 A 
ATOM     22  C   UNL     1     -20.222 -41.522  23.285  1.00  0.00     0.055 A 
ATOM     23  C   UNL     1     -20.261 -39.568  21.802  1.00  0.00     0.161 A 
ATOM     24  C   UNL     1     -20.927 -40.469  22.681  1.00  0.00     0.161 A 
ATOM     25  O   UNL     1     -16.025 -40.563  21.355  1.00  0.00    -0.294 OA
BRANCH  23  26
ATOM     26  O   UNL     1     -21.041 -38.572  21.268  1.00  0.00    -0.493 OA
ATOM     27  C   UNL     1     -21.235 -38.566  19.860  1.00  0.00     0.278 C 
ENDBRANCH  23  26
BRANCH  24  28
ATOM     28  O   UNL     1     -22.263 -40.224  22.880  1.00  0.00    -0.493 OA
ATOM     29  C   UNL     1     -23.195 -41.187  22.411  1.00  0.00     0.278 C 
ENDBRANCH  24  28
ENDBRANCH   1  16
TORSDOF 6
ENDMDL
MODEL 6
REMARK VINA RESULT:    -9.375      2.988      5.944
REMARK INTER + INTRA:         -13.533
REMARK INTER:                 -12.762
REMARK INTRA:                  -0.771
REMARK UNBOUND:                -0.870
REMARK SMILES COc1cc2c(cc1OC)C(=O)[C@@H](C[C@H]1CC[N@@H+](Cc3ccccc3)CC1)C2
REMARK SMILES IDX 14 1 15 2 17 3 18 4 16 5 26 6 27 7 19 9 20 10 21 11 25 12
REMARK SMILES IDX 22 13 24 14 23 15 13 16 11 17 28 18 6 19 5 20 7 21 4 22 8 23
REMARK SMILES IDX 3 24 12 25 9 26 10 27 2 28 1 29
REMARK H PARENT 18 8
ROOT
ATOM      1  C   UNL     1     -17.956 -42.905  23.731  1.00  0.00     0.016 C 
ENDROOT
BRANCH   1   2
ATOM      2  C   UNL     1     -16.658 -42.538  24.484  1.00  0.00     0.001 C 
ATOM      3  C   UNL     1     -15.536 -42.488  26.751  1.00  0.00     0.262 C 
ATOM      4  N   UNL     1     -14.330 -43.170  26.164  1.00  0.00    -0.331 N 
ATOM      5  C   UNL     1     -16.796 -42.861  25.981  1.00  0.00     0.065 C 
ATOM      6  C   UNL     1     -14.158 -42.845  24.699  1.00  0.00     0.262 C 
ATOM      7  C   UNL     1     -15.407 -43.217  23.909  1.00  0.00     0.065 C 
ATOM      8  H   UNL     1     -13.514 -42.749  26.625  1.00  0.00     0.348 HD
BRANCH   4   9
ATOM      9  C   UNL     1     -14.240 -44.643  26.509  1.00  0.00     0.299 C 
BRANCH   9  10
ATOM     10  C   UNL     1     -12.987 -44.997  27.261  1.00  0.00     0.006 A 
ATOM     11  C   UNL     1     -12.586 -46.335  27.390  1.00  0.00     0.009 A 
ATOM     12  C   UNL     1     -12.187 -43.991  27.828  1.00  0.00     0.009 A 
ATOM     13  C   UNL     1     -11.409 -46.660  28.065  1.00  0.00     0.001 A 
ATOM     14  C   UNL     1     -11.010 -44.320  28.501  1.00  0.00     0.001 A 
ATOM     15  C   UNL     1     -10.621 -45.652  28.617  1.00  0.00     0.000 A 
ENDBRANCH   9  10
ENDBRANCH   4   9
ENDBRANCH   1   2
BRANCH   1  16
ATOM     16  C   UNL     1     -19.047 -41.822  23.706  1.00  0.00     0.066 C 
ATOM     17  C   UNL     1     -20.368 -42.334  23.158  1.00  0.00     0.166 C 
ATOM     18  C   UNL     1     -18.671 -40.647  22.765  1.00  0.00     0.048 C 
ATOM     19  C   UNL     1     -20.734 -41.581  21.968  1.00  0.00     0.025 A 
ATOM     20  C   UNL     1     -19.757 -40.626  21.737  1.00  0.00    -0.033 A 
ATOM     21  C   UNL     1     -21.843 -41.746  21.160  1.00  0.00     0.062 A 
ATOM     22  C   UNL     1     -19.872 -39.775  20.647  1.00  0.00     0.055 A 
ATOM     23  C   UNL     1     -21.972 -40.897  20.057  1.00  0.00     0.161 A 
ATOM     24  C   UNL     1     -20.982 -39.907  19.798  1.00  0.00     0.161 A 
ATOM     25  O   UNL     1     -21.035 -43.242  23.629  1.00  0.00    -0.294 OA
BRANCH  23  26
ATOM     26  O   UNL     1     -23.014 -40.944  19.164  1.00  0.00    -0.493 OA
ATOM     27  C   UNL     1     -24.311 -40.615  19.643  1.00  0.00     0.278 C 
ENDBRANCH  23  26
BRANCH  24  28
ATOM     28  O   UNL     1     -21.199 -39.127  18.689  1.00  0.00    -0.493 OA
ATOM     29  C   UNL     1     -21.644 -37.794  18.888  1.00  0.00     0.278 C 
ENDBRANCH  24  28
ENDBRANCH   1  16
TORSDOF 6
ENDMDL
MODEL 7
REMARK VINA RESULT:    -9.242      3.678      9.875
REMARK INTER + INTRA:         -13.354
REMARK INTER:                 -12.845
REMARK INTRA:                  -0.508
REMARK UNBOUND:                -0.870
REMARK SMILES COc1cc2c(cc1OC)C(=O)[C@@H](C[C@H]1CC[N@@H+](Cc3ccccc3)CC1)C2
REMARK SMILES IDX 14 1 15 2 17 3 18 4 16 5 26 6 27 7 19 9 20 10 21 11 25 12
REMARK SMILES IDX 22 13 24 14 23 15 13 16 11 17 28 18 6 19 5 20 7 21 4 22 8 23
REMARK SMILES IDX 3 24 12 25 9 26 10 27 2 28 1 29
REMARK H PARENT 18 8
ROOT
ATOM      1  C   UNL     1     -17.115 -42.923  24.764  1.00  0.00     0.016 C 
ENDROOT
BRANCH   1   2
ATOM      2  C   UNL     1     -18.317 -42.038  25.156  1.00  0.00     0.001 C 
ATOM      3  C   UNL     1     -20.506 -41.061  24.346  1.00  0.00     0.262 C 
ATOM      4  N   UNL     1     -21.182 -41.550  25.599  1.00  0.00    -0.331 N 
ATOM      5  C   UNL     1     -19.318 -41.946  23.992  1.00  0.00     0.065 C 
ATOM      6  C   UNL     1     -20.224 -41.622  26.763  1.00  0.00     0.262 C 
ATOM      7  C   UNL     1     -19.031 -42.510  26.431  1.00  0.00     0.065 C 
ATOM      8  H   UNL     1     -21.859 -40.820  25.858  1.00  0.00     0.348 HD
BRANCH   4   9
ATOM      9  C   UNL     1     -22.028 -42.789  25.385  1.00  0.00     0.299 C 
BRANCH   9  10
ATOM     10  C   UNL     1     -22.528 -43.390  26.670  1.00  0.00     0.006 A 
ATOM     11  C   UNL     1     -23.626 -42.830  27.339  1.00  0.00     0.009 A 
ATOM     12  C   UNL     1     -21.917 -44.535  27.206  1.00  0.00     0.009 A 
ATOM     13  C   UNL     1     -24.107 -43.406  28.516  1.00  0.00     0.001 A 
ATOM     14  C   UNL     1     -22.401 -45.108  28.383  1.00  0.00     0.001 A 
ATOM     15  C   UNL     1     -23.495 -44.545  29.035  1.00  0.00     0.000 A 
ENDBRANCH   9  10
ENDBRANCH   4   9
ENDBRANCH   1   2
BRANCH   1  16
ATOM     16  C   UNL     1     -15.790 -42.613  25.480  1.00  0.00     0.066 C 
ATOM     17  C   UNL     1     -14.722 -43.660  25.215  1.00  0.00     0.166 C 
ATOM     18  C   UNL     1     -15.955 -42.616  27.023  1.00  0.00     0.048 C 
ATOM     19  C   UNL     1     -14.314 -44.278  26.467  1.00  0.00     0.025 A 
ATOM     20  C   UNL     1     -15.029 -43.690  27.499  1.00  0.00    -0.033 A 
ATOM     21  C   UNL     1     -13.389 -45.287  26.662  1.00  0.00     0.062 A 
ATOM     22  C   UNL     1     -14.825 -44.112  28.804  1.00  0.00     0.055 A 
ATOM     23  C   UNL     1     -13.174 -45.723  27.972  1.00  0.00     0.161 A 
ATOM     24  C   UNL     1     -13.896 -45.135  29.049  1.00  0.00     0.161 A 
ATOM     25  O   UNL     1     -14.263 -43.954  24.123  1.00  0.00    -0.294 OA
BRANCH  23  26
ATOM     26  O   UNL     1     -12.292 -46.717  28.319  1.00  0.00    -0.493 OA
ATOM     27  C   UNL     1     -10.906 -46.404  28.313  1.00  0.00     0.278 C 
ENDBRANCH  23  26
BRANCH  24  28
ATOM     28  O   UNL     1     -13.615 -45.637  30.295  1.00  0.00    -0.493 OA
ATOM     29  C   UNL     1     -13.097 -44.747  31.272  1.00  0.00     0.278 C 
ENDBRANCH  24  28
ENDBRANCH   1  16
TORSDOF 6
ENDMDL
MODEL 8
REMARK VINA RESULT:    -9.224      2.976      5.819
REMARK INTER + INTRA:         -13.330
REMARK INTER:                 -12.873
REMARK INTRA:                  -0.457
REMARK UNBOUND:                -0.870
REMARK SMILES COc1cc2c(cc1OC)C(=O)[C@@H](C[C@H]1CC[N@@H+](Cc3ccccc3)CC1)C2
REMARK SMILES IDX 14 1 15 2 17 3 18 4 16 5 26 6 27 7 19 9 20 10 21 11 25 12
REMARK SMILES IDX 22 13 24 14 23 15 13 16 11 17 28 18 6 19 5 20 7 21 4 22 8 23
REMARK SMILES IDX 3 24 12 25 9 26 10 27 2 28 1 29
REMARK H PARENT 18 8
ROOT
ATOM      1  C   UNL     1     -18.375 -42.799  24.709  1.00  0.00     0.016 C 
ENDROOT
BRANCH   1   2
ATOM      2  C   UNL     1     -16.874 -42.542  24.968  1.00  0.00     0.001 C 
ATOM      3  C   UNL     1     -15.092 -42.381  26.757  1.00  0.00     0.262 C 
ATOM      4  N   UNL     1     -14.214 -43.307  25.958  1.00  0.00    -0.331 N 
ATOM      5  C   UNL     1     -16.564 -42.651  26.470  1.00  0.00     0.065 C 
ATOM      6  C   UNL     1     -14.483 -43.197  24.476  1.00  0.00     0.262 C 
ATOM      7  C   UNL     1     -15.950 -43.471  24.168  1.00  0.00     0.065 C 
ATOM      8  H   UNL     1     -13.254 -42.960  26.079  1.00  0.00     0.348 HD
BRANCH   4   9
ATOM      9  C   UNL     1     -14.175 -44.721  26.501  1.00  0.00     0.299 C 
BRANCH   9  10
ATOM     10  C   UNL     1     -12.910 -45.030  27.253  1.00  0.00     0.006 A 
ATOM     11  C   UNL     1     -12.183 -44.006  27.879  1.00  0.00     0.009 A 
ATOM     12  C   UNL     1     -12.448 -46.352  27.357  1.00  0.00     0.009 A 
ATOM     13  C   UNL     1     -11.025 -44.299  28.599  1.00  0.00     0.001 A 
ATOM     14  C   UNL     1     -11.289 -46.640  28.078  1.00  0.00     0.001 A 
ATOM     15  C   UNL     1     -10.580 -45.615  28.699  1.00  0.00     0.000 A 
ENDBRANCH   9  10
ENDBRANCH   4   9
ENDBRANCH   1   2
BRANCH   1  16
ATOM     16  C   UNL     1     -19.255 -42.960  25.959  1.00  0.00     0.066 C 
ATOM     17  C   UNL     1     -20.595 -43.606  25.652  1.00  0.00     0.166 C 
ATOM     18  C   UNL     1     -19.623 -41.590  26.585  1.00  0.00     0.048 C 
ATOM     19  C   UNL     1     -21.674 -42.696  26.007  1.00  0.00     0.025 A 
ATOM     20  C   UNL     1     -21.117 -41.539  26.529  1.00  0.00    -0.033 A 
ATOM     21  C   UNL     1     -23.036 -42.887  25.865  1.00  0.00     0.062 A 
ATOM     22  C   UNL     1     -21.942 -40.503  26.940  1.00  0.00     0.055 A 
ATOM     23  C   UNL     1     -23.880 -41.852  26.275  1.00  0.00     0.161 A 
ATOM     24  C   UNL     1     -23.332 -40.653  26.814  1.00  0.00     0.161 A 
ATOM     25  O   UNL     1     -20.763 -44.717  25.177  1.00  0.00    -0.294 OA
BRANCH  23  26
ATOM     26  O   UNL     1     -25.251 -41.895  26.192  1.00  0.00    -0.493 OA
ATOM     27  C   UNL     1     -25.934 -42.834  27.011  1.00  0.00     0.278 C 
ENDBRANCH  23  26
BRANCH  24  28
ATOM     28  O   UNL     1     -24.246 -39.697  27.182  1.00  0.00    -0.493 OA
ATOM     29  C   UNL     1     -24.258 -38.474  26.461  1.00  0.00     0.278 C 
ENDBRANCH  24  28
ENDBRANCH   1  16
TORSDOF 6
ENDMDL
MODEL 9
REMARK VINA RESULT:    -9.136      3.847     11.465
REMARK INTER + INTRA:         -13.211
REMARK INTER:                 -12.539
REMARK INTRA:                  -0.672
REMARK UNBOUND:                -0.870
REMARK SMILES COc1cc2c(cc1OC)C(=O)[C@@H](C[C@H]1CC[N@@H+](Cc3ccccc3)CC1)C2
REMARK SMILES IDX 14 1 15 2 17 3 18 4 16 5 26 6 27 7 19 9 20 10 21 11 25 12
REMARK SMILES IDX 22 13 24 14 23 15 13 16 11 17 28 18 6 19 5 20 7 21 4 22 8 23
REMARK SMILES IDX 3 24 12 25 9 26 10 27 2 28 1 29
REMARK H PARENT 18 8
ROOT
ATOM      1  C   UNL     1     -17.158 -43.100  24.613  1.00  0.00     0.016 C 
ENDROOT
BRANCH   1   2
ATOM      2  C   UNL     1     -17.991 -41.920  24.067  1.00  0.00     0.001 C 
ATOM      3  C   UNL     1     -18.440 -40.485  22.032  1.00  0.00     0.262 C 
ATOM      4  N   UNL     1     -19.918 -40.707  22.208  1.00  0.00    -0.331 N 
ATOM      5  C   UNL     1     -17.647 -41.659  22.591  1.00  0.00     0.065 C 
ATOM      6  C   UNL     1     -20.283 -40.938  23.655  1.00  0.00     0.262 C 
ATOM      7  C   UNL     1     -19.505 -42.114  24.231  1.00  0.00     0.065 C 
ATOM      8  H   UNL     1     -20.369 -39.817  21.961  1.00  0.00     0.348 HD
BRANCH   4   9
ATOM      9  C   UNL     1     -20.500 -41.708  21.231  1.00  0.00     0.299 C 
BRANCH   9  10
ATOM     10  C   UNL     1     -21.398 -41.077  20.203  1.00  0.00     0.006 A 
ATOM     11  C   UNL     1     -22.432 -41.816  19.610  1.00  0.00     0.009 A 
ATOM     12  C   UNL     1     -21.229 -39.731  19.838  1.00  0.00     0.009 A 
ATOM     13  C   UNL     1     -23.282 -41.221  18.677  1.00  0.00     0.001 A 
ATOM     14  C   UNL     1     -22.082 -39.141  18.906  1.00  0.00     0.001 A 
ATOM     15  C   UNL     1     -23.107 -39.884  18.328  1.00  0.00     0.000 A 
ENDBRANCH   9  10
ENDBRANCH   4   9
ENDBRANCH   1   2
BRANCH   1  16
ATOM     16  C   UNL     1     -15.851 -42.725  25.331  1.00  0.00     0.066 C 
ATOM     17  C   UNL     1     -14.753 -43.754  25.123  1.00  0.00     0.166 C 
ATOM     18  C   UNL     1     -16.035 -42.666  26.870  1.00  0.00     0.048 C 
ATOM     19  C   UNL     1     -14.345 -44.306  26.405  1.00  0.00     0.025 A 
ATOM     20  C   UNL     1     -15.087 -43.693  27.402  1.00  0.00    -0.033 A 
ATOM     21  C   UNL     1     -13.397 -45.281  26.654  1.00  0.00     0.062 A 
ATOM     22  C   UNL     1     -14.889 -44.053  28.727  1.00  0.00     0.055 A 
ATOM     23  C   UNL     1     -13.187 -45.655  27.984  1.00  0.00     0.161 A 
ATOM     24  C   UNL     1     -13.936 -45.040  29.026  1.00  0.00     0.161 A 
ATOM     25  O   UNL     1     -14.273 -44.082  24.049  1.00  0.00    -0.294 OA
BRANCH  23  26
ATOM     26  O   UNL     1     -12.283 -46.609  28.383  1.00  0.00    -0.493 OA
ATOM     27  C   UNL     1     -10.910 -46.246  28.422  1.00  0.00     0.278 C 
ENDBRANCH  23  26
BRANCH  24  28
ATOM     28  O   UNL     1     -13.658 -45.481  30.296  1.00  0.00    -0.493 OA
ATOM     29  C   UNL     1     -13.315 -44.514  31.277  1.00  0.00     0.278 C 
ENDBRANCH  24  28
ENDBRANCH   1  16
TORSDOF 6
ENDMDL
