MODEL 1
REMARK VINA RESULT:    -8.997      0.000      0.000
REMARK INTER + INTRA:          -9.260
REMARK INTER:                  -9.260
REMARK INTRA:                   0.000
REMARK UNBOUND:                 0.000
REMARK SMILES N=c1c2c([nH]c3cc(Cl)ccc13)CCCC2
REMARK SMILES IDX 5 1 4 2 3 3 2 4 12 5 11 6 10 7 8 8 9 9 7 10 6 11 16 12 15 13
REMARK SMILES IDX 14 14 13 15 1 17
REMARK H PARENT 5 16 1 18
ROOT
ATOM      1  N   UNL     1     -17.668 -42.399  26.800  1.00  0.00    -0.358 N 
ATOM      2  C   UNL     1     -16.579 -42.836  26.078  1.00  0.00     0.020 A 
ATOM      3  C   UNL     1     -16.575 -42.932  24.730  1.00  0.00    -0.003 A 
ATOM      4  C   UNL     1     -17.831 -42.560  23.985  1.00  0.00     0.068 A 
ATOM      5  C   UNL     1     -18.965 -42.016  24.786  1.00  0.00     0.023 A 
ATOM      6  C   UNL     1     -20.143 -41.592  24.156  1.00  0.00     0.014 A 
ATOM      7  C   UNL     1     -21.199 -41.094  24.920  1.00  0.00     0.021 A 
ATOM      8  C   UNL     1     -21.076 -41.031  26.307  1.00  0.00     0.043 A 
ATOM      9  Cl  UNL     1     -22.381 -40.427  27.252  1.00  0.00    -0.084 Cl
ATOM     10  C   UNL     1     -19.904 -41.455  26.939  1.00  0.00     0.047 A 
ATOM     11  C   UNL     1     -18.835 -41.942  26.180  1.00  0.00     0.049 A 
ATOM     12  C   UNL     1     -15.375 -43.377  23.938  1.00  0.00     0.039 C 
ATOM     13  C   UNL     1     -14.082 -43.432  24.752  1.00  0.00     0.005 C 
ATOM     14  C   UNL     1     -14.329 -44.040  26.124  1.00  0.00     0.007 C 
ATOM     15  C   UNL     1     -15.362 -43.221  26.896  1.00  0.00     0.054 C 
ATOM     16  H   UNL     1     -17.552 -42.240  27.794  1.00  0.00     0.166 HD
ENDROOT
BRANCH   4  17
ATOM     17  N   UNL     1     -17.974 -42.691  22.702  1.00  0.00    -0.300 NA
ATOM     18  H   UNL     1     -18.930 -42.940  22.446  1.00  0.00     0.188 HD
ENDBRANCH   4  17
TORSDOF 1
ENDMDL
MODEL 2
REMARK VINA RESULT:    -8.874      7.019      9.610
REMARK INTER + INTRA:          -9.133
REMARK INTER:                  -9.133
REMARK INTRA:                   0.000
REMARK UNBOUND:                 0.000
REMARK SMILES N=c1c2c([nH]c3cc(Cl)ccc13)CCCC2
REMARK SMILES IDX 5 1 4 2 3 3 2 4 12 5 11 6 10 7 8 8 9 9 7 10 6 11 16 12 15 13
REMARK SMILES IDX 14 14 13 15 1 17
REMARK H PARENT 5 16 1 18
ROOT
ATOM      1  N   UNL     1     -12.533 -43.793  30.217  1.00  0.00    -0.358 N 
ATOM      2  C   UNL     1     -12.457 -44.708  29.189  1.00  0.00     0.020 A 
ATOM      3  C   UNL     1     -11.401 -45.531  29.008  1.00  0.00    -0.003 A 
ATOM      4  C   UNL     1     -10.244 -45.430  29.968  1.00  0.00     0.068 A 
ATOM      5  C   UNL     1     -10.389 -44.488  31.115  1.00  0.00     0.023 A 
ATOM      6  C   UNL     1      -9.381 -44.383  32.083  1.00  0.00     0.014 A 
ATOM      7  C   UNL     1      -9.526 -43.489  33.145  1.00  0.00     0.021 A 
ATOM      8  C   UNL     1     -10.673 -42.702  33.230  1.00  0.00     0.043 A 
ATOM      9  Cl  UNL     1     -10.849 -41.593  34.533  1.00  0.00    -0.084 Cl
ATOM     10  C   UNL     1     -11.679 -42.801  32.266  1.00  0.00     0.047 A 
ATOM     11  C   UNL     1     -11.548 -43.704  31.206  1.00  0.00     0.049 A 
ATOM     12  C   UNL     1     -11.333 -46.554  27.907  1.00  0.00     0.039 C 
ATOM     13  C   UNL     1     -12.664 -46.784  27.192  1.00  0.00     0.005 C 
ATOM     14  C   UNL     1     -13.376 -45.466  26.933  1.00  0.00     0.007 C 
ATOM     15  C   UNL     1     -13.644 -44.733  28.246  1.00  0.00     0.054 C 
ATOM     16  H   UNL     1     -13.406 -43.299  30.356  1.00  0.00     0.166 HD
ENDROOT
BRANCH   4  17
ATOM     17  N   UNL     1      -9.145 -46.107  29.847  1.00  0.00    -0.300 NA
ATOM     18  H   UNL     1      -8.989 -46.417  28.886  1.00  0.00     0.188 HD
ENDBRANCH   4  17
TORSDOF 1
ENDMDL
MODEL 3
REMARK VINA RESULT:    -8.843      6.675      9.251
REMARK INTER + INTRA:          -9.101
REMARK INTER:                  -9.101
REMARK INTRA:                   0.000
REMARK UNBOUND:                 0.000
REMARK SMILES N=c1c2c([nH]c3cc(Cl)ccc13)CCCC2
REMARK SMILES IDX 5 1 4 2 3 3 2 4 12 5 11 6 10 7 8 8 9 9 7 10 6 11 16 12 15 13
REMARK SMILES IDX 14 14 13 15 1 17
REMARK H PARENT 5 16 1 18
ROOT
ATOM      1  N   UNL     1     -10.673 -45.627  29.521  1.00  0.00    -0.358 N 
ATOM      2  C   UNL     1      -9.497 -45.387  30.196  1.00  0.00     0.020 A 
ATOM      3  C   UNL     1      -8.775 -44.254  30.046  1.00  0.00    -0.003 A 
ATOM      4  C   UNL     1      -9.275 -43.212  29.081  1.00  0.00     0.068 A 
ATOM      5  C   UNL     1     -10.591 -43.464  28.425  1.00  0.00     0.023 A 
ATOM      6  C   UNL     1     -11.150 -42.513  27.561  1.00  0.00     0.014 A 
ATOM      7  C   UNL     1     -12.377 -42.767  26.947  1.00  0.00     0.021 A 
ATOM      8  C   UNL     1     -13.034 -43.971  27.193  1.00  0.00     0.043 A 
ATOM      9  Cl  UNL     1     -14.542 -44.291  26.430  1.00  0.00    -0.084 Cl
ATOM     10  C   UNL     1     -12.479 -44.923  28.052  1.00  0.00     0.047 A 
ATOM     11  C   UNL     1     -11.256 -44.671  28.683  1.00  0.00     0.049 A 
ATOM     12  C   UNL     1      -7.507 -43.977  30.809  1.00  0.00     0.039 C 
ATOM     13  C   UNL     1      -7.259 -44.942  31.968  1.00  0.00     0.005 C 
ATOM     14  C   UNL     1      -7.580 -46.372  31.563  1.00  0.00     0.007 C 
ATOM     15  C   UNL     1      -9.040 -46.492  31.128  1.00  0.00     0.054 C 
ATOM     16  H   UNL     1     -11.216 -46.443  29.777  1.00  0.00     0.166 HD
ENDROOT
BRANCH   4  17
ATOM     17  N   UNL     1      -8.628 -42.126  28.792  1.00  0.00    -0.300 NA
ATOM     18  H   UNL     1      -9.253 -41.330  28.659  1.00  0.00     0.188 HD
ENDBRANCH   4  17
TORSDOF 1
ENDMDL
MODEL 4
REMARK VINA RESULT:    -8.683      6.159      8.670
REMARK INTER + INTRA:          -8.937
REMARK INTER:                  -8.937
REMARK INTRA:                   0.000
REMARK UNBOUND:                 0.000
REMARK SMILES N=c1c2c([nH]c3cc(Cl)ccc13)CCCC2
REMARK SMILES IDX 5 1 4 2 3 3 2 4 12 5 11 6 10 7 8 8 9 9 7 10 6 11 16 12 15 13
REMARK SMILES IDX 14 14 13 15 1 17
REMARK H PARENT 5 16 1 18
ROOT
ATOM      1  N   UNL     1     -10.287 -43.391  28.767  1.00  0.00    -0.358 N 
ATOM      2  C   UNL     1      -9.628 -44.044  29.785  1.00  0.00     0.020 A 
ATOM      3  C   UNL     1     -10.167 -45.074  30.475  1.00  0.00    -0.003 A 
ATOM      4  C   UNL     1     -11.564 -45.515  30.123  1.00  0.00     0.068 A 
ATOM      5  C   UNL     1     -12.222 -44.842  28.965  1.00  0.00     0.023 A 
ATOM      6  C   UNL     1     -13.496 -45.240  28.540  1.00  0.00     0.014 A 
ATOM      7  C   UNL     1     -14.102 -44.594  27.462  1.00  0.00     0.021 A 
ATOM      8  C   UNL     1     -13.436 -43.552  26.820  1.00  0.00     0.043 A 
ATOM      9  Cl  UNL     1     -14.186 -42.748  25.497  1.00  0.00    -0.084 Cl
ATOM     10  C   UNL     1     -12.166 -43.150  27.242  1.00  0.00     0.047 A 
ATOM     11  C   UNL     1     -11.545 -43.801  28.314  1.00  0.00     0.049 A 
ATOM     12  C   UNL     1      -9.435 -45.810  31.564  1.00  0.00     0.039 C 
ATOM     13  C   UNL     1      -7.941 -45.493  31.630  1.00  0.00     0.005 C 
ATOM     14  C   UNL     1      -7.694 -44.003  31.449  1.00  0.00     0.007 C 
ATOM     15  C   UNL     1      -8.239 -43.527  30.104  1.00  0.00     0.054 C 
ATOM     16  H   UNL     1      -9.772 -42.712  28.220  1.00  0.00     0.166 HD
ENDROOT
BRANCH   4  17
ATOM     17  N   UNL     1     -12.215 -46.433  30.768  1.00  0.00    -0.300 NA
ATOM     18  H   UNL     1     -11.593 -47.042  31.300  1.00  0.00     0.188 HD
ENDBRANCH   4  17
TORSDOF 1
ENDMDL
MODEL 5
REMARK VINA RESULT:    -8.666      8.567     10.113
REMARK INTER + INTRA:          -8.919
REMARK INTER:                  -8.919
REMARK INTRA:                   0.000
REMARK UNBOUND:                 0.000
REMARK SMILES N=c1c2c([nH]c3cc(Cl)ccc13)CCCC2
REMARK SMILES IDX 5 1 4 2 3 3 2 4 12 5 11 6 10 7 8 8 9 9 7 10 6 11 16 12 15 13
REMARK SMILES IDX 14 14 13 15 1 17
REMARK H PARENT 5 16 1 18
ROOT
ATOM      1  N   UNL     1     -10.219 -43.051  32.904  1.00  0.00    -0.358 N 
ATOM      2  C   UNL     1      -9.245 -43.910  32.444  1.00  0.00     0.020 A 
ATOM      3  C   UNL     1      -9.522 -45.066  31.801  1.00  0.00    -0.003 A 
ATOM      4  C   UNL     1     -10.967 -45.439  31.592  1.00  0.00     0.068 A 
ATOM      5  C   UNL     1     -11.997 -44.452  32.029  1.00  0.00     0.023 A 
ATOM      6  C   UNL     1     -13.359 -44.701  31.813  1.00  0.00     0.014 A 
ATOM      7  C   UNL     1     -14.311 -43.773  32.236  1.00  0.00     0.021 A 
ATOM      8  C   UNL     1     -13.898 -42.607  32.878  1.00  0.00     0.043 A 
ATOM      9  Cl  UNL     1     -15.071 -41.465  33.409  1.00  0.00    -0.084 Cl
ATOM     10  C   UNL     1     -12.541 -42.355  33.097  1.00  0.00     0.047 A 
ATOM     11  C   UNL     1     -11.579 -43.274  32.664  1.00  0.00     0.049 A 
ATOM     12  C   UNL     1      -8.459 -45.989  31.269  1.00  0.00     0.039 C 
ATOM     13  C   UNL     1      -7.058 -45.378  31.258  1.00  0.00     0.005 C 
ATOM     14  C   UNL     1      -6.792 -44.606  32.541  1.00  0.00     0.007 C 
ATOM     15  C   UNL     1      -7.816 -43.485  32.716  1.00  0.00     0.054 C 
ATOM     16  H   UNL     1      -9.932 -42.150  33.266  1.00  0.00     0.166 HD
ENDROOT
BRANCH   4  17
ATOM     17  N   UNL     1     -11.354 -46.559  31.065  1.00  0.00    -0.300 NA
ATOM     18  H   UNL     1     -10.819 -46.794  30.228  1.00  0.00     0.188 HD
ENDBRANCH   4  17
TORSDOF 1
ENDMDL
MODEL 6
REMARK VINA RESULT:    -8.634      7.670      9.673
REMARK INTER + INTRA:          -8.886
REMARK INTER:                  -8.886
REMARK INTRA:                   0.000
REMARK UNBOUND:                 0.000
REMARK SMILES N=c1c2c([nH]c3cc(Cl)ccc13)CCCC2
REMARK SMILES IDX 5 1 4 2 3 3 2 4 12 5 11 6 10 7 8 8 9 9 7 10 6 11 16 12 15 13
REMARK SMILES IDX 14 14 13 15 1 17
REMARK H PARENT 5 16 1 18
ROOT
ATOM      1  N   UNL     1     -10.248 -44.825  30.540  1.00  0.00    -0.358 N 
ATOM      2  C   UNL     1     -11.148 -45.272  29.597  1.00  0.00     0.020 A 
ATOM      3  C   UNL     1     -12.476 -45.036  29.672  1.00  0.00    -0.003 A 
ATOM      4  C   UNL     1     -12.998 -44.261  30.855  1.00  0.00     0.068 A 
ATOM      5  C   UNL     1     -11.992 -43.724  31.816  1.00  0.00     0.023 A 
ATOM      6  C   UNL     1     -12.396 -42.943  32.907  1.00  0.00     0.014 A 
ATOM      7  C   UNL     1     -11.444 -42.455  33.804  1.00  0.00     0.021 A 
ATOM      8  C   UNL     1     -10.098 -42.756  33.610  1.00  0.00     0.043 A 
ATOM      9  Cl  UNL     1      -8.924 -42.164  34.720  1.00  0.00    -0.084 Cl
ATOM     10  C   UNL     1      -9.690 -43.536  32.525  1.00  0.00     0.047 A 
ATOM     11  C   UNL     1     -10.636 -44.018  31.613  1.00  0.00     0.049 A 
ATOM     12  C   UNL     1     -13.456 -45.493  28.625  1.00  0.00     0.039 C 
ATOM     13  C   UNL     1     -12.799 -45.989  27.338  1.00  0.00     0.005 C 
ATOM     14  C   UNL     1     -11.587 -46.855  27.645  1.00  0.00     0.007 C 
ATOM     15  C   UNL     1     -10.555 -46.069  28.451  1.00  0.00     0.054 C 
ATOM     16  H   UNL     1      -9.259 -44.938  30.350  1.00  0.00     0.166 HD
ENDROOT
BRANCH   4  17
ATOM     17  N   UNL     1     -14.257 -44.046  31.078  1.00  0.00    -0.300 NA
ATOM     18  H   UNL     1     -14.852 -44.735  30.616  1.00  0.00     0.188 HD
ENDBRANCH   4  17
TORSDOF 1
ENDMDL
MODEL 7
REMARK VINA RESULT:    -8.610      1.059      2.607
REMARK INTER + INTRA:          -8.862
REMARK INTER:                  -8.862
REMARK INTRA:                   0.000
REMARK UNBOUND:                 0.000
REMARK SMILES N=c1c2c([nH]c3cc(Cl)ccc13)CCCC2
REMARK SMILES IDX 5 1 4 2 3 3 2 4 12 5 11 6 10 7 8 8 9 9 7 10 6 11 16 12 15 13
REMARK SMILES IDX 14 14 13 15 1 17
REMARK H PARENT 5 16 1 18
ROOT
ATOM      1  N   UNL     1     -17.597 -42.366  24.385  1.00  0.00    -0.358 N 
ATOM      2  C   UNL     1     -16.469 -42.881  24.985  1.00  0.00     0.020 A 
ATOM      3  C   UNL     1     -16.319 -42.969  26.325  1.00  0.00    -0.003 A 
ATOM      4  C   UNL     1     -17.434 -42.464  27.203  1.00  0.00     0.068 A 
ATOM      5  C   UNL     1     -18.674 -41.986  26.526  1.00  0.00     0.023 A 
ATOM      6  C   UNL     1     -19.776 -41.557  27.278  1.00  0.00     0.014 A 
ATOM      7  C   UNL     1     -20.925 -41.104  26.629  1.00  0.00     0.021 A 
ATOM      8  C   UNL     1     -20.964 -41.073  25.236  1.00  0.00     0.043 A 
ATOM      9  Cl  UNL     1     -22.377 -40.505  24.436  1.00  0.00    -0.084 Cl
ATOM     10  C   UNL     1     -19.867 -41.497  24.483  1.00  0.00     0.047 A 
ATOM     11  C   UNL     1     -18.716 -41.967  25.125  1.00  0.00     0.049 A 
ATOM     12  C   UNL     1     -15.101 -43.563  26.981  1.00  0.00     0.039 C 
ATOM     13  C   UNL     1     -14.184 -44.315  26.017  1.00  0.00     0.005 C 
ATOM     14  C   UNL     1     -14.022 -43.550  24.713  1.00  0.00     0.007 C 
ATOM     15  C   UNL     1     -15.378 -43.342  24.040  1.00  0.00     0.054 C 
ATOM     16  H   UNL     1     -17.684 -42.445  23.379  1.00  0.00     0.166 HD
ENDROOT
BRANCH   4  17
ATOM     17  N   UNL     1     -17.369 -42.420  28.498  1.00  0.00    -0.300 NA
ATOM     18  H   UNL     1     -17.427 -43.349  28.917  1.00  0.00     0.188 HD
ENDBRANCH   4  17
TORSDOF 1
ENDMDL
MODEL 8
REMARK VINA RESULT:    -8.494      2.551      5.299
REMARK INTER + INTRA:          -8.742
REMARK INTER:                  -8.742
REMARK INTRA:                   0.000
REMARK UNBOUND:                 0.000
REMARK SMILES N=c1c2c([nH]c3cc(Cl)ccc13)CCCC2
REMARK SMILES IDX 5 1 4 2 3 3 2 4 12 5 11 6 10 7 8 8 9 9 7 10 6 11 16 12 15 13
REMARK SMILES IDX 14 14 13 15 1 17
REMARK H PARENT 5 16 1 18
ROOT
ATOM      1  N   UNL     1     -17.732 -42.348  26.824  1.00  0.00    -0.358 N 
ATOM      2  C   UNL     1     -18.858 -42.000  26.111  1.00  0.00     0.020 A 
ATOM      3  C   UNL     1     -18.904 -41.988  24.761  1.00  0.00    -0.003 A 
ATOM      4  C   UNL     1     -17.656 -42.358  24.001  1.00  0.00     0.068 A 
ATOM      5  C   UNL     1     -16.479 -42.807  24.799  1.00  0.00     0.023 A 
ATOM      6  C   UNL     1     -15.303 -43.225  24.160  1.00  0.00     0.014 A 
ATOM      7  C   UNL     1     -14.206 -43.633  24.920  1.00  0.00     0.021 A 
ATOM      8  C   UNL     1     -14.287 -43.614  26.311  1.00  0.00     0.043 A 
ATOM      9  Cl  UNL     1     -12.932 -44.108  27.250  1.00  0.00    -0.084 Cl
ATOM     10  C   UNL     1     -15.456 -43.196  26.952  1.00  0.00     0.047 A 
ATOM     11  C   UNL     1     -16.565 -42.799  26.198  1.00  0.00     0.049 A 
ATOM     12  C   UNL     1     -20.143 -41.641  23.981  1.00  0.00     0.039 C 
ATOM     13  C   UNL     1     -21.413 -41.584  24.829  1.00  0.00     0.005 C 
ATOM     14  C   UNL     1     -21.151 -40.882  26.153  1.00  0.00     0.007 C 
ATOM     15  C   UNL     1     -20.065 -41.611  26.942  1.00  0.00     0.054 C 
ATOM     16  H   UNL     1     -17.813 -42.449  27.829  1.00  0.00     0.166 HD
ENDROOT
BRANCH   4  17
ATOM     17  N   UNL     1     -17.555 -42.303  22.709  1.00  0.00    -0.300 NA
ATOM     18  H   UNL     1     -16.911 -43.006  22.344  1.00  0.00     0.188 HD
ENDBRANCH   4  17
TORSDOF 1
ENDMDL
MODEL 9
REMARK VINA RESULT:    -8.410      7.489      9.875
REMARK INTER + INTRA:          -8.655
REMARK INTER:                  -8.655
REMARK INTRA:                   0.000
REMARK UNBOUND:                 0.000
REMARK SMILES N=c1c2c([nH]c3cc(Cl)ccc13)CCCC2
REMARK SMILES IDX 5 1 4 2 3 3 2 4 12 5 11 6 10 7 8 8 9 9 7 10 6 11 16 12 15 13
REMARK SMILES IDX 14 14 13 15 1 17
REMARK H PARENT 5 16 1 18
ROOT
ATOM      1  N   UNL     1      -9.511 -45.028  30.046  1.00  0.00    -0.358 N 
ATOM      2  C   UNL     1      -9.237 -44.287  31.174  1.00  0.00     0.020 A 
ATOM      3  C   UNL     1     -10.182 -43.602  31.856  1.00  0.00    -0.003 A 
ATOM      4  C   UNL     1     -11.600 -43.640  31.346  1.00  0.00     0.068 A 
ATOM      5  C   UNL     1     -11.879 -44.514  30.170  1.00  0.00     0.023 A 
ATOM      6  C   UNL     1     -13.183 -44.648  29.676  1.00  0.00     0.014 A 
ATOM      7  C   UNL     1     -13.427 -45.462  28.569  1.00  0.00     0.021 A 
ATOM      8  C   UNL     1     -12.367 -46.130  27.958  1.00  0.00     0.043 A 
ATOM      9  Cl  UNL     1     -12.665 -47.126  26.587  1.00  0.00    -0.084 Cl
ATOM     10  C   UNL     1     -11.065 -45.998  28.446  1.00  0.00     0.047 A 
ATOM     11  C   UNL     1     -10.813 -45.195  29.564  1.00  0.00     0.049 A 
ATOM     12  C   UNL     1      -9.891 -42.820  33.109  1.00  0.00     0.039 C 
ATOM     13  C   UNL     1      -8.510 -43.095  33.704  1.00  0.00     0.005 C 
ATOM     14  C   UNL     1      -7.453 -43.166  32.613  1.00  0.00     0.007 C 
ATOM     15  C   UNL     1      -7.786 -44.270  31.612  1.00  0.00     0.054 C 
ATOM     16  H   UNL     1      -8.774 -45.608  29.663  1.00  0.00     0.166 HD
ENDROOT
BRANCH   4  17
ATOM     17  N   UNL     1     -12.572 -42.958  31.867  1.00  0.00    -0.300 NA
ATOM     18  H   UNL     1     -12.235 -42.208  32.472  1.00  0.00     0.188 HD
ENDBRANCH   4  17
TORSDOF 1
ENDMDL
