MODEL 1
REMARK VINA RESULT:    -9.959      0.000      0.000
REMARK INTER + INTRA:         -10.250
REMARK INTER:                 -10.250
REMARK INTRA:                   0.000
REMARK UNBOUND:                 0.000
REMARK SMILES CC1=C[C@H]2Cc3[nH]c4cc(Cl)ccc4c(=N)c3[C@@H](C1)C2
REMARK SMILES IDX 7 1 6 2 17 3 15 4 14 5 13 6 12 7 10 8 11 9 9 10 8 11 18 12
REMARK SMILES IDX 19 13 2 14 1 15 3 16 4 17 5 18 20 19 16 21
REMARK H PARENT 7 20 16 22
ROOT
ATOM      1  N   UNL     1     -15.115 -43.687  28.730  1.00  0.00    -0.358 N 
ATOM      2  C   UNL     1     -14.360 -44.440  29.604  1.00  0.00     0.021 A 
ATOM      3  C   UNL     1     -13.479 -45.386  29.200  1.00  0.00     0.000 A 
ATOM      4  C   UNL     1     -13.299 -45.606  27.719  1.00  0.00     0.068 A 
ATOM      5  C   UNL     1     -14.106 -44.751  26.798  1.00  0.00     0.023 A 
ATOM      6  C   UNL     1     -13.988 -44.893  25.409  1.00  0.00     0.014 A 
ATOM      7  C   UNL     1     -14.749 -44.091  24.559  1.00  0.00     0.021 A 
ATOM      8  C   UNL     1     -15.627 -43.154  25.101  1.00  0.00     0.043 A 
ATOM      9  Cl  UNL     1     -16.574 -42.168  24.055  1.00  0.00    -0.084 Cl
ATOM     10  C   UNL     1     -15.749 -43.008  26.484  1.00  0.00     0.047 A 
ATOM     11  C   UNL     1     -14.978 -43.800  27.344  1.00  0.00     0.049 A 
ATOM     12  C   UNL     1     -12.684 -46.232  30.182  1.00  0.00     0.028 C 
ATOM     13  C   UNL     1     -11.254 -45.670  30.366  1.00  0.00     0.039 C 
ATOM     14  C   UNL     1     -11.184 -44.478  31.302  1.00  0.00    -0.076 C 
ATOM     15  C   UNL     1      -9.871 -43.751  31.347  1.00  0.00     0.039 C 
ATOM     16  C   UNL     1     -12.244 -44.095  32.038  1.00  0.00    -0.024 C 
ATOM     17  C   UNL     1     -13.569 -44.832  32.022  1.00  0.00     0.018 C 
ATOM     18  C   UNL     1     -14.571 -44.135  31.082  1.00  0.00     0.062 C 
ATOM     19  C   UNL     1     -13.377 -46.276  31.550  1.00  0.00     0.017 C 
ATOM     20  H   UNL     1     -15.652 -42.914  29.104  1.00  0.00     0.166 HD
ENDROOT
BRANCH   4  21
ATOM     21  N   UNL     1     -12.487 -46.477  27.206  1.00  0.00    -0.300 NA
ATOM     22  H   UNL     1     -12.304 -46.305  26.218  1.00  0.00     0.188 HD
ENDBRANCH   4  21
TORSDOF 1
ENDMDL
MODEL 2
REMARK VINA RESULT:    -9.534      4.396      8.031
REMARK INTER + INTRA:          -9.813
REMARK INTER:                  -9.813
REMARK INTRA:                   0.000
REMARK UNBOUND:                 0.000
REMARK SMILES CC1=C[C@H]2Cc3[nH]c4cc(Cl)ccc4c(=N)c3[C@@H](C1)C2
REMARK SMILES IDX 7 1 6 2 17 3 15 4 14 5 13 6 12 7 10 8 11 9 9 10 8 11 18 12
REMARK SMILES IDX 19 13 2 14 1 15 3 16 4 17 5 18 20 19 16 21
REMARK H PARENT 7 20 16 22
ROOT
ATOM      1  N   UNL     1     -17.611 -42.283  26.881  1.00  0.00    -0.358 N 
ATOM      2  C   UNL     1     -18.796 -42.023  26.227  1.00  0.00     0.021 A 
ATOM      3  C   UNL     1     -18.952 -42.155  24.888  1.00  0.00     0.000 A 
ATOM      4  C   UNL     1     -17.774 -42.636  24.078  1.00  0.00     0.068 A 
ATOM      5  C   UNL     1     -16.515 -42.943  24.820  1.00  0.00     0.023 A 
ATOM      6  C   UNL     1     -15.380 -43.401  24.137  1.00  0.00     0.014 A 
ATOM      7  C   UNL     1     -14.209 -43.682  24.840  1.00  0.00     0.021 A 
ATOM      8  C   UNL     1     -14.176 -43.499  26.221  1.00  0.00     0.043 A 
ATOM      9  Cl  UNL     1     -12.729 -43.836  27.091  1.00  0.00    -0.084 Cl
ATOM     10  C   UNL     1     -15.302 -43.043  26.907  1.00  0.00     0.047 A 
ATOM     11  C   UNL     1     -16.486 -42.772  26.211  1.00  0.00     0.049 A 
ATOM     12  C   UNL     1     -20.257 -41.825  24.182  1.00  0.00     0.028 C 
ATOM     13  C   UNL     1     -21.082 -43.106  23.916  1.00  0.00     0.039 C 
ATOM     14  C   UNL     1     -21.840 -43.606  25.132  1.00  0.00    -0.076 C 
ATOM     15  C   UNL     1     -22.474 -44.961  25.003  1.00  0.00     0.039 C 
ATOM     16  C   UNL     1     -21.925 -42.876  26.260  1.00  0.00    -0.024 C 
ATOM     17  C   UNL     1     -21.311 -41.497  26.398  1.00  0.00     0.018 C 
ATOM     18  C   UNL     1     -19.950 -41.575  27.117  1.00  0.00     0.062 C 
ATOM     19  C   UNL     1     -21.103 -40.859  25.023  1.00  0.00     0.017 C 
ATOM     20  H   UNL     1     -17.613 -42.286  27.893  1.00  0.00     0.166 HD
ENDROOT
BRANCH   4  21
ATOM     21  N   UNL     1     -17.795 -42.806  22.793  1.00  0.00    -0.300 NA
ATOM     22  H   UNL     1     -18.665 -42.484  22.371  1.00  0.00     0.188 HD
ENDBRANCH   4  21
TORSDOF 1
ENDMDL
MODEL 3
REMARK VINA RESULT:    -9.317      1.973      2.467
REMARK INTER + INTRA:          -9.590
REMARK INTER:                  -9.590
REMARK INTRA:                   0.000
REMARK UNBOUND:                 0.000
REMARK SMILES CC1=C[C@H]2Cc3[nH]c4cc(Cl)ccc4c(=N)c3[C@@H](C1)C2
REMARK SMILES IDX 7 1 6 2 17 3 15 4 14 5 13 6 12 7 10 8 11 9 9 10 8 11 18 12
REMARK SMILES IDX 19 13 2 14 1 15 3 16 4 17 5 18 20 19 16 21
REMARK H PARENT 7 20 16 22
ROOT
ATOM      1  N   UNL     1     -15.762 -43.645  29.435  1.00  0.00    -0.358 N 
ATOM      2  C   UNL     1     -14.540 -44.282  29.400  1.00  0.00     0.021 A 
ATOM      3  C   UNL     1     -13.890 -44.582  28.251  1.00  0.00     0.000 A 
ATOM      4  C   UNL     1     -14.524 -44.173  26.946  1.00  0.00     0.068 A 
ATOM      5  C   UNL     1     -15.831 -43.453  27.018  1.00  0.00     0.023 A 
ATOM      6  C   UNL     1     -16.478 -43.036  25.847  1.00  0.00     0.014 A 
ATOM      7  C   UNL     1     -17.700 -42.367  25.926  1.00  0.00     0.021 A 
ATOM      8  C   UNL     1     -18.269 -42.122  27.175  1.00  0.00     0.043 A 
ATOM      9  Cl  UNL     1     -19.781 -41.304  27.276  1.00  0.00    -0.084 Cl
ATOM     10  C   UNL     1     -17.629 -42.535  28.344  1.00  0.00     0.047 A 
ATOM     11  C   UNL     1     -16.397 -43.195  28.273  1.00  0.00     0.049 A 
ATOM     12  C   UNL     1     -12.560 -45.321  28.235  1.00  0.00     0.028 C 
ATOM     13  C   UNL     1     -11.380 -44.334  28.077  1.00  0.00     0.039 C 
ATOM     14  C   UNL     1     -10.998 -43.629  29.365  1.00  0.00    -0.076 C 
ATOM     15  C   UNL     1     -10.017 -42.501  29.234  1.00  0.00     0.039 C 
ATOM     16  C   UNL     1     -11.521 -43.994  30.550  1.00  0.00    -0.024 C 
ATOM     17  C   UNL     1     -12.494 -45.146  30.703  1.00  0.00     0.018 C 
ATOM     18  C   UNL     1     -13.945 -44.631  30.760  1.00  0.00     0.062 C 
ATOM     19  C   UNL     1     -12.365 -46.120  29.530  1.00  0.00     0.017 C 
ATOM     20  H   UNL     1     -16.118 -43.341  30.332  1.00  0.00     0.166 HD
ENDROOT
BRANCH   4  21
ATOM     21  N   UNL     1     -14.003 -44.399  25.780  1.00  0.00    -0.300 NA
ATOM     22  H   UNL     1     -13.136 -44.932  25.838  1.00  0.00     0.188 HD
ENDBRANCH   4  21
TORSDOF 1
ENDMDL
MODEL 4
REMARK VINA RESULT:    -9.287      3.676      6.832
REMARK INTER + INTRA:          -9.559
REMARK INTER:                  -9.559
REMARK INTRA:                   0.000
REMARK UNBOUND:                 0.000
REMARK SMILES CC1=C[C@H]2Cc3[nH]c4cc(Cl)ccc4c(=N)c3[C@@H](C1)C2
REMARK SMILES IDX 7 1 6 2 17 3 15 4 14 5 13 6 12 7 10 8 11 9 9 10 8 11 18 12
REMARK SMILES IDX 19 13 2 14 1 15 3 16 4 17 5 18 20 19 16 21
REMARK H PARENT 7 20 16 22
ROOT
ATOM      1  N   UNL     1      -9.559 -45.279  30.107  1.00  0.00    -0.358 N 
ATOM      2  C   UNL     1     -10.831 -45.569  29.662  1.00  0.00     0.021 A 
ATOM      3  C   UNL     1     -11.953 -45.135  30.283  1.00  0.00     0.000 A 
ATOM      4  C   UNL     1     -11.799 -44.269  31.508  1.00  0.00     0.068 A 
ATOM      5  C   UNL     1     -10.409 -43.945  31.945  1.00  0.00     0.023 A 
ATOM      6  C   UNL     1     -10.187 -43.140  33.071  1.00  0.00     0.014 A 
ATOM      7  C   UNL     1      -8.883 -42.845  33.471  1.00  0.00     0.021 A 
ATOM      8  C   UNL     1      -7.809 -43.359  32.746  1.00  0.00     0.043 A 
ATOM      9  Cl  UNL     1      -6.199 -43.005  33.243  1.00  0.00    -0.084 Cl
ATOM     10  C   UNL     1      -8.024 -44.161  31.625  1.00  0.00     0.047 A 
ATOM     11  C   UNL     1      -9.329 -44.450  31.209  1.00  0.00     0.049 A 
ATOM     12  C   UNL     1     -13.347 -45.499  29.797  1.00  0.00     0.028 C 
ATOM     13  C   UNL     1     -13.955 -44.355  28.951  1.00  0.00     0.039 C 
ATOM     14  C   UNL     1     -13.444 -44.315  27.524  1.00  0.00    -0.076 C 
ATOM     15  C   UNL     1     -13.820 -43.103  26.722  1.00  0.00     0.039 C 
ATOM     16  C   UNL     1     -12.689 -45.308  27.017  1.00  0.00    -0.024 C 
ATOM     17  C   UNL     1     -12.320 -46.549  27.804  1.00  0.00     0.018 C 
ATOM     18  C   UNL     1     -10.904 -46.418  28.398  1.00  0.00     0.062 C 
ATOM     19  C   UNL     1     -13.312 -46.777  28.948  1.00  0.00     0.017 C 
ATOM     20  H   UNL     1      -8.776 -45.530  29.516  1.00  0.00     0.166 HD
ENDROOT
BRANCH   4  21
ATOM     21  N   UNL     1     -12.793 -43.790  32.190  1.00  0.00    -0.300 NA
ATOM     22  H   UNL     1     -12.667 -42.805  32.423  1.00  0.00     0.188 HD
ENDBRANCH   4  21
TORSDOF 1
ENDMDL
MODEL 5
REMARK VINA RESULT:    -9.165      4.323      6.017
REMARK INTER + INTRA:          -9.433
REMARK INTER:                  -9.433
REMARK INTRA:                   0.000
REMARK UNBOUND:                 0.000
REMARK SMILES CC1=C[C@H]2Cc3[nH]c4cc(Cl)ccc4c(=N)c3[C@@H](C1)C2
REMARK SMILES IDX 7 1 6 2 17 3 15 4 14 5 13 6 12 7 10 8 11 9 9 10 8 11 18 12
REMARK SMILES IDX 19 13 2 14 1 15 3 16 4 17 5 18 20 19 16 21
REMARK H PARENT 7 20 16 22
ROOT
ATOM      1  N   UNL     1     -11.069 -42.969  33.150  1.00  0.00    -0.358 N 
ATOM      2  C   UNL     1     -10.466 -43.724  32.166  1.00  0.00     0.021 A 
ATOM      3  C   UNL     1     -11.150 -44.326  31.165  1.00  0.00     0.000 A 
ATOM      4  C   UNL     1     -12.646 -44.138  31.111  1.00  0.00     0.068 A 
ATOM      5  C   UNL     1     -13.266 -43.287  32.170  1.00  0.00     0.023 A 
ATOM      6  C   UNL     1     -14.649 -43.061  32.182  1.00  0.00     0.014 A 
ATOM      7  C   UNL     1     -15.217 -42.266  33.178  1.00  0.00     0.021 A 
ATOM      8  C   UNL     1     -14.401 -41.705  34.159  1.00  0.00     0.043 A 
ATOM      9  Cl  UNL     1     -15.100 -40.731  35.395  1.00  0.00    -0.084 Cl
ATOM     10  C   UNL     1     -13.023 -41.927  34.153  1.00  0.00     0.047 A 
ATOM     11  C   UNL     1     -12.443 -42.712  33.149  1.00  0.00     0.049 A 
ATOM     12  C   UNL     1     -10.469 -45.186  30.112  1.00  0.00     0.028 C 
ATOM     13  C   UNL     1     -10.228 -44.383  28.812  1.00  0.00     0.039 C 
ATOM     14  C   UNL     1      -9.020 -43.466  28.877  1.00  0.00    -0.076 C 
ATOM     15  C   UNL     1      -8.865 -42.499  27.739  1.00  0.00     0.039 C 
ATOM     16  C   UNL     1      -8.151 -43.516  29.904  1.00  0.00    -0.024 C 
ATOM     17  C   UNL     1      -8.281 -44.501  31.048  1.00  0.00     0.018 C 
ATOM     18  C   UNL     1      -8.949 -43.838  32.267  1.00  0.00     0.062 C 
ATOM     19  C   UNL     1      -9.121 -45.710  30.626  1.00  0.00     0.017 C 
ATOM     20  H   UNL     1     -10.478 -42.447  33.784  1.00  0.00     0.166 HD
ENDROOT
BRANCH   4  21
ATOM     21  N   UNL     1     -13.413 -44.658  30.205  1.00  0.00    -0.300 NA
ATOM     22  H   UNL     1     -14.198 -44.054  29.965  1.00  0.00     0.188 HD
ENDBRANCH   4  21
TORSDOF 1
ENDMDL
MODEL 6
REMARK VINA RESULT:    -9.129      1.991      3.098
REMARK INTER + INTRA:          -9.396
REMARK INTER:                  -9.396
REMARK INTRA:                   0.000
REMARK UNBOUND:                 0.000
REMARK SMILES CC1=C[C@H]2Cc3[nH]c4cc(Cl)ccc4c(=N)c3[C@@H](C1)C2
REMARK SMILES IDX 7 1 6 2 17 3 15 4 14 5 13 6 12 7 10 8 11 9 9 10 8 11 18 12
REMARK SMILES IDX 19 13 2 14 1 15 3 16 4 17 5 18 20 19 16 21
REMARK H PARENT 7 20 16 22
ROOT
ATOM      1  N   UNL     1     -11.310 -42.830  28.456  1.00  0.00    -0.358 N 
ATOM      2  C   UNL     1     -10.993 -43.331  29.700  1.00  0.00     0.021 A 
ATOM      3  C   UNL     1     -11.744 -44.256  30.342  1.00  0.00     0.000 A 
ATOM      4  C   UNL     1     -12.974 -44.784  29.647  1.00  0.00     0.068 A 
ATOM      5  C   UNL     1     -13.271 -44.247  28.285  1.00  0.00     0.023 A 
ATOM      6  C   UNL     1     -14.393 -44.694  27.573  1.00  0.00     0.014 A 
ATOM      7  C   UNL     1     -14.661 -44.183  26.303  1.00  0.00     0.021 A 
ATOM      8  C   UNL     1     -13.810 -43.226  25.753  1.00  0.00     0.043 A 
ATOM      9  Cl  UNL     1     -14.143 -42.588  24.189  1.00  0.00    -0.084 Cl
ATOM     10  C   UNL     1     -12.692 -42.778  26.457  1.00  0.00     0.047 A 
ATOM     11  C   UNL     1     -12.407 -43.295  27.726  1.00  0.00     0.049 A 
ATOM     12  C   UNL     1     -11.398 -44.767  31.733  1.00  0.00     0.028 C 
ATOM     13  C   UNL     1     -10.660 -46.125  31.656  1.00  0.00     0.039 C 
ATOM     14  C   UNL     1      -9.188 -45.999  31.311  1.00  0.00    -0.076 C 
ATOM     15  C   UNL     1      -8.471 -47.282  31.001  1.00  0.00     0.039 C 
ATOM     16  C   UNL     1      -8.571 -44.803  31.276  1.00  0.00    -0.024 C 
ATOM     17  C   UNL     1      -9.273 -43.502  31.608  1.00  0.00     0.018 C 
ATOM     18  C   UNL     1      -9.717 -42.777  30.324  1.00  0.00     0.062 C 
ATOM     19  C   UNL     1     -10.508 -43.762  32.476  1.00  0.00     0.017 C 
ATOM     20  H   UNL     1     -10.631 -42.241  27.990  1.00  0.00     0.166 HD
ENDROOT
BRANCH   4  21
ATOM     21  N   UNL     1     -13.773 -45.671  30.152  1.00  0.00    -0.300 NA
ATOM     22  H   UNL     1     -13.316 -46.570  30.296  1.00  0.00     0.188 HD
ENDBRANCH   4  21
TORSDOF 1
ENDMDL
MODEL 7
REMARK VINA RESULT:    -8.965      5.556     10.061
REMARK INTER + INTRA:          -9.227
REMARK INTER:                  -9.227
REMARK INTRA:                   0.000
REMARK UNBOUND:                 0.000
REMARK SMILES CC1=C[C@H]2Cc3[nH]c4cc(Cl)ccc4c(=N)c3[C@@H](C1)C2
REMARK SMILES IDX 7 1 6 2 17 3 15 4 14 5 13 6 12 7 10 8 11 9 9 10 8 11 18 12
REMARK SMILES IDX 19 13 2 14 1 15 3 16 4 17 5 18 20 19 16 21
REMARK H PARENT 7 20 16 22
ROOT
ATOM      1  N   UNL     1     -18.986 -41.801  24.616  1.00  0.00    -0.358 N 
ATOM      2  C   UNL     1     -19.632 -41.104  23.617  1.00  0.00     0.021 A 
ATOM      3  C   UNL     1     -19.004 -40.634  22.513  1.00  0.00     0.000 A 
ATOM      4  C   UNL     1     -17.530 -40.912  22.359  1.00  0.00     0.068 A 
ATOM      5  C   UNL     1     -16.867 -41.699  23.441  1.00  0.00     0.023 A 
ATOM      6  C   UNL     1     -15.501 -42.003  23.365  1.00  0.00     0.014 A 
ATOM      7  C   UNL     1     -14.892 -42.737  24.383  1.00  0.00     0.021 A 
ATOM      8  C   UNL     1     -15.650 -43.160  25.474  1.00  0.00     0.043 A 
ATOM      9  Cl  UNL     1     -14.900 -44.058  26.736  1.00  0.00    -0.084 Cl
ATOM     10  C   UNL     1     -17.010 -42.860  25.555  1.00  0.00     0.047 A 
ATOM     11  C   UNL     1     -17.632 -42.136  24.531  1.00  0.00     0.049 A 
ATOM     12  C   UNL     1     -19.727 -39.833  21.442  1.00  0.00     0.028 C 
ATOM     13  C   UNL     1     -20.117 -40.734  20.246  1.00  0.00     0.039 C 
ATOM     14  C   UNL     1     -21.359 -41.570  20.491  1.00  0.00    -0.076 C 
ATOM     15  C   UNL     1     -21.658 -42.625  19.465  1.00  0.00     0.039 C 
ATOM     16  C   UNL     1     -22.135 -41.379  21.574  1.00  0.00    -0.024 C 
ATOM     17  C   UNL     1     -21.861 -40.304  22.607  1.00  0.00     0.018 C 
ATOM     18  C   UNL     1     -21.127 -40.894  23.826  1.00  0.00     0.062 C 
ATOM     19  C   UNL     1     -20.999 -39.189  22.009  1.00  0.00     0.017 C 
ATOM     20  H   UNL     1     -19.548 -42.229  25.342  1.00  0.00     0.166 HD
ENDROOT
BRANCH   4  21
ATOM     21  N   UNL     1     -16.816 -40.520  21.350  1.00  0.00    -0.300 NA
ATOM     22  H   UNL     1     -17.029 -41.037  20.498  1.00  0.00     0.188 HD
ENDBRANCH   4  21
TORSDOF 1
ENDMDL
MODEL 8
REMARK VINA RESULT:    -8.680      1.658      2.179
REMARK INTER + INTRA:          -8.934
REMARK INTER:                  -8.934
REMARK INTRA:                   0.000
REMARK UNBOUND:                 0.000
REMARK SMILES CC1=C[C@H]2Cc3[nH]c4cc(Cl)ccc4c(=N)c3[C@@H](C1)C2
REMARK SMILES IDX 7 1 6 2 17 3 15 4 14 5 13 6 12 7 10 8 11 9 9 10 8 11 18 12
REMARK SMILES IDX 19 13 2 14 1 15 3 16 4 17 5 18 20 19 16 21
REMARK H PARENT 7 20 16 22
ROOT
ATOM      1  N   UNL     1     -14.165 -44.891  28.552  1.00  0.00    -0.358 N 
ATOM      2  C   UNL     1     -12.937 -45.092  29.146  1.00  0.00     0.021 A 
ATOM      3  C   UNL     1     -11.810 -44.451  28.757  1.00  0.00     0.000 A 
ATOM      4  C   UNL     1     -11.911 -43.447  27.636  1.00  0.00     0.068 A 
ATOM      5  C   UNL     1     -13.261 -43.226  27.037  1.00  0.00     0.023 A 
ATOM      6  C   UNL     1     -13.435 -42.304  25.996  1.00  0.00     0.014 A 
ATOM      7  C   UNL     1     -14.700 -42.108  25.443  1.00  0.00     0.021 A 
ATOM      8  C   UNL     1     -15.784 -42.837  25.930  1.00  0.00     0.043 A 
ATOM      9  Cl  UNL     1     -17.346 -42.604  25.244  1.00  0.00    -0.084 Cl
ATOM     10  C   UNL     1     -15.617 -43.756  26.967  1.00  0.00     0.047 A 
ATOM     11  C   UNL     1     -14.353 -43.949  27.537  1.00  0.00     0.049 A 
ATOM     12  C   UNL     1     -10.457 -44.717  29.400  1.00  0.00     0.028 C 
ATOM     13  C   UNL     1     -10.126 -43.639  30.459  1.00  0.00     0.039 C 
ATOM     14  C   UNL     1     -10.825 -43.855  31.788  1.00  0.00    -0.076 C 
ATOM     15  C   UNL     1     -10.724 -42.730  32.777  1.00  0.00     0.039 C 
ATOM     16  C   UNL     1     -11.502 -44.988  32.053  1.00  0.00    -0.024 C 
ATOM     17  C   UNL     1     -11.594 -46.142  31.075  1.00  0.00     0.018 C 
ATOM     18  C   UNL     1     -12.921 -46.094  30.295  1.00  0.00     0.062 C 
ATOM     19  C   UNL     1     -10.436 -46.095  30.074  1.00  0.00     0.017 C 
ATOM     20  H   UNL     1     -14.980 -45.308  28.984  1.00  0.00     0.166 HD
ENDROOT
BRANCH   4  21
ATOM     21  N   UNL     1     -10.908 -42.768  27.174  1.00  0.00    -0.300 NA
ATOM     22  H   UNL     1     -10.015 -43.086  27.549  1.00  0.00     0.188 HD
ENDBRANCH   4  21
TORSDOF 1
ENDMDL
MODEL 9
REMARK VINA RESULT:    -8.666      3.386      6.000
REMARK INTER + INTRA:          -8.920
REMARK INTER:                  -8.920
REMARK INTRA:                   0.000
REMARK UNBOUND:                 0.000
REMARK SMILES CC1=C[C@H]2Cc3[nH]c4cc(Cl)ccc4c(=N)c3[C@@H](C1)C2
REMARK SMILES IDX 7 1 6 2 17 3 15 4 14 5 13 6 12 7 10 8 11 9 9 10 8 11 18 12
REMARK SMILES IDX 19 13 2 14 1 15 3 16 4 17 5 18 20 19 16 21
REMARK H PARENT 7 20 16 22
ROOT
ATOM      1  N   UNL     1     -12.024 -42.865  31.447  1.00  0.00    -0.358 N 
ATOM      2  C   UNL     1     -11.726 -43.866  30.548  1.00  0.00     0.021 A 
ATOM      3  C   UNL     1     -12.303 -45.091  30.581  1.00  0.00     0.000 A 
ATOM      4  C   UNL     1     -13.342 -45.361  31.639  1.00  0.00     0.068 A 
ATOM      5  C   UNL     1     -13.668 -44.245  32.577  1.00  0.00     0.023 A 
ATOM      6  C   UNL     1     -14.629 -44.418  33.583  1.00  0.00     0.014 A 
ATOM      7  C   UNL     1     -14.923 -43.369  34.454  1.00  0.00     0.021 A 
ATOM      8  C   UNL     1     -14.253 -42.155  34.318  1.00  0.00     0.043 A 
ATOM      9  Cl  UNL     1     -14.608 -40.861  35.397  1.00  0.00    -0.084 Cl
ATOM     10  C   UNL     1     -13.296 -41.976  33.319  1.00  0.00     0.047 A 
ATOM     11  C   UNL     1     -13.005 -43.019  32.431  1.00  0.00     0.049 A 
ATOM     12  C   UNL     1     -11.931 -46.195  29.603  1.00  0.00     0.028 C 
ATOM     13  C   UNL     1     -12.954 -46.277  28.445  1.00  0.00     0.039 C 
ATOM     14  C   UNL     1     -12.746 -45.225  27.372  1.00  0.00    -0.076 C 
ATOM     15  C   UNL     1     -13.834 -45.108  26.344  1.00  0.00     0.039 C 
ATOM     16  C   UNL     1     -11.653 -44.439  27.357  1.00  0.00    -0.024 C 
ATOM     17  C   UNL     1     -10.536 -44.560  28.373  1.00  0.00     0.018 C 
ATOM     18  C   UNL     1     -10.693 -43.507  29.486  1.00  0.00     0.062 C 
ATOM     19  C   UNL     1     -10.535 -45.951  29.012  1.00  0.00     0.017 C 
ATOM     20  H   UNL     1     -11.648 -41.940  31.277  1.00  0.00     0.166 HD
ENDROOT
BRANCH   4  21
ATOM     21  N   UNL     1     -13.968 -46.489  31.775  1.00  0.00    -0.300 NA
ATOM     22  H   UNL     1     -13.903 -47.073  30.942  1.00  0.00     0.188 HD
ENDBRANCH   4  21
TORSDOF 1
ENDMDL
