MODEL 1
REMARK VINA RESULT:   -12.014      0.000      0.000
REMARK INTER + INTRA:         -16.393
REMARK INTER:                 -15.878
REMARK INTRA:                  -0.516
REMARK UNBOUND:                -0.516
REMARK SMILES O=c1nc2ccccc2c(O)n1CC[C@H]1CC[N@H+](Cc2ccccc2)CC1
REMARK SMILES IDX 13 1 12 2 10 3 9 4 8 5 4 6 2 7 7 8 5 9 3 10 6 11 1 12 11 13
REMARK SMILES IDX 14 15 15 16 27 17 16 18 26 19 17 20 18 21 19 23 20 24 21 25
REMARK SMILES IDX 25 26 22 27 24 28 23 29
REMARK H PARENT 11 14 18 22
ROOT
ATOM      1  C   UNL     1     -14.094 -43.524  26.550  1.00  0.00     0.131 C 
ENDROOT
BRANCH   1   2
ATOM      2  N   UNL     1     -15.418 -43.154  26.042  1.00  0.00    -0.262 N 
ATOM      3  C   UNL     1     -16.421 -42.789  26.921  1.00  0.00     0.204 A 
ATOM      4  C   UNL     1     -17.631 -42.399  26.486  1.00  0.00     0.061 A 
ATOM      5  C   UNL     1     -18.777 -42.017  27.291  1.00  0.00     0.016 A 
ATOM      6  C   UNL     1     -17.750 -42.393  24.997  1.00  0.00     0.081 A 
ATOM      7  C   UNL     1     -15.619 -43.158  24.657  1.00  0.00     0.350 A 
ATOM      8  C   UNL     1     -19.922 -41.632  26.710  1.00  0.00     0.001 A 
ATOM      9  C   UNL     1     -19.060 -41.935  24.453  1.00  0.00     0.029 A 
ATOM     10  N   UNL     1     -16.829 -42.753  24.168  1.00  0.00    -0.193 NA
ATOM     11  C   UNL     1     -20.057 -41.581  25.275  1.00  0.00     0.002 A 
ATOM     12  O   UNL     1     -14.750 -43.569  23.889  1.00  0.00    -0.246 OA
BRANCH   3  13
ATOM     13  O   UNL     1     -16.080 -42.870  28.255  1.00  0.00    -0.494 OA
ATOM     14  H   UNL     1     -15.236 -43.340  28.346  1.00  0.00     0.295 HD
ENDBRANCH   3  13
ENDBRANCH   1   2
BRANCH   1  15
ATOM     15  C   UNL     1     -13.811 -45.038  26.563  1.00  0.00     0.026 C 
BRANCH  15  16
ATOM     16  C   UNL     1     -13.187 -45.547  27.878  1.00  0.00     0.002 C 
ATOM     17  C   UNL     1     -11.729 -45.986  27.676  1.00  0.00     0.065 C 
ATOM     18  C   UNL     1     -13.219 -44.491  28.991  1.00  0.00     0.065 C 
ATOM     19  C   UNL     1     -11.140 -46.542  28.968  1.00  0.00     0.262 C 
ATOM     20  C   UNL     1     -12.664 -45.053  30.292  1.00  0.00     0.262 C 
ATOM     21  N   UNL     1     -11.241 -45.517  30.068  1.00  0.00    -0.331 N 
ATOM     22  H   UNL     1     -10.701 -44.692  29.780  1.00  0.00     0.348 HD
BRANCH  21  23
ATOM     23  C   UNL     1     -10.594 -46.018  31.343  1.00  0.00     0.299 C 
BRANCH  23  24
ATOM     24  C   UNL     1      -9.432 -45.171  31.786  1.00  0.00     0.006 A 
ATOM     25  C   UNL     1      -8.114 -45.611  31.593  1.00  0.00     0.009 A 
ATOM     26  C   UNL     1      -9.652 -43.937  32.419  1.00  0.00     0.009 A 
ATOM     27  C   UNL     1      -7.040 -44.835  32.028  1.00  0.00     0.001 A 
ATOM     28  C   UNL     1      -8.573 -43.164  32.852  1.00  0.00     0.001 A 
ATOM     29  C   UNL     1      -7.270 -43.614  32.660  1.00  0.00     0.000 A 
ENDBRANCH  23  24
ENDBRANCH  21  23
ENDBRANCH  15  16
ENDBRANCH   1  15
TORSDOF 6
ENDMDL
MODEL 2
REMARK VINA RESULT:   -11.784      0.813      2.213
REMARK INTER + INTRA:         -16.088
REMARK INTER:                 -15.553
REMARK INTRA:                  -0.536
REMARK UNBOUND:                -0.516
REMARK SMILES O=c1nc2ccccc2c(O)n1CC[C@H]1CC[N@H+](Cc2ccccc2)CC1
REMARK SMILES IDX 13 1 12 2 10 3 9 4 8 5 4 6 2 7 7 8 5 9 3 10 6 11 1 12 11 13
REMARK SMILES IDX 14 15 15 16 27 17 16 18 26 19 17 20 18 21 19 23 20 24 21 25
REMARK SMILES IDX 25 26 22 27 24 28 23 29
REMARK H PARENT 11 14 18 22
ROOT
ATOM      1  C   UNL     1     -14.098 -43.540  26.544  1.00  0.00     0.131 C 
ENDROOT
BRANCH   1   2
ATOM      2  N   UNL     1     -15.431 -43.085  26.144  1.00  0.00    -0.262 N 
ATOM      3  C   UNL     1     -15.743 -42.944  24.804  1.00  0.00     0.204 A 
ATOM      4  C   UNL     1     -16.971 -42.575  24.401  1.00  0.00     0.061 A 
ATOM      5  C   UNL     1     -17.427 -42.362  23.040  1.00  0.00     0.016 A 
ATOM      6  C   UNL     1     -17.923 -42.358  25.532  1.00  0.00     0.081 A 
ATOM      7  C   UNL     1     -16.370 -42.828  27.149  1.00  0.00     0.350 A 
ATOM      8  C   UNL     1     -18.695 -42.009  22.791  1.00  0.00     0.001 A 
ATOM      9  C   UNL     1     -19.312 -41.980  25.147  1.00  0.00     0.029 A 
ATOM     10  N   UNL     1     -17.637 -42.464  26.786  1.00  0.00    -0.193 NA
ATOM     11  C   UNL     1     -19.648 -41.827  23.859  1.00  0.00     0.002 A 
ATOM     12  O   UNL     1     -16.058 -42.870  28.338  1.00  0.00    -0.246 OA
BRANCH   3  13
ATOM     13  O   UNL     1     -14.701 -43.200  23.937  1.00  0.00    -0.494 OA
ATOM     14  H   UNL     1     -14.167 -42.398  23.827  1.00  0.00     0.295 HD
ENDBRANCH   3  13
ENDBRANCH   1   2
BRANCH   1  15
ATOM     15  C   UNL     1     -13.899 -45.067  26.498  1.00  0.00     0.026 C 
BRANCH  15  16
ATOM     16  C   UNL     1     -13.261 -45.655  27.773  1.00  0.00     0.002 C 
ATOM     17  C   UNL     1     -11.751 -45.873  27.598  1.00  0.00     0.065 C 
ATOM     18  C   UNL     1     -13.477 -44.762  29.002  1.00  0.00     0.065 C 
ATOM     19  C   UNL     1     -11.141 -46.509  28.842  1.00  0.00     0.262 C 
ATOM     20  C   UNL     1     -12.899 -45.409  30.253  1.00  0.00     0.262 C 
ATOM     21  N   UNL     1     -11.419 -45.654  30.051  1.00  0.00    -0.331 N 
ATOM     22  H   UNL     1     -10.985 -44.736  29.895  1.00  0.00     0.348 HD
BRANCH  21  23
ATOM     23  C   UNL     1     -10.759 -46.225  31.290  1.00  0.00     0.299 C 
BRANCH  23  24
ATOM     24  C   UNL     1      -9.497 -45.502  31.671  1.00  0.00     0.006 A 
ATOM     25  C   UNL     1      -9.552 -44.215  32.227  1.00  0.00     0.009 A 
ATOM     26  C   UNL     1      -8.243 -46.097  31.457  1.00  0.00     0.009 A 
ATOM     27  C   UNL     1      -8.378 -43.536  32.556  1.00  0.00     0.001 A 
ATOM     28  C   UNL     1      -7.072 -45.414  31.788  1.00  0.00     0.001 A 
ATOM     29  C   UNL     1      -7.140 -44.134  32.333  1.00  0.00     0.000 A 
ENDBRANCH  23  24
ENDBRANCH  21  23
ENDBRANCH  15  16
ENDBRANCH   1  15
TORSDOF 6
ENDMDL
MODEL 3
REMARK VINA RESULT:   -11.200      2.273      8.790
REMARK INTER + INTRA:         -15.316
REMARK INTER:                 -14.720
REMARK INTRA:                  -0.596
REMARK UNBOUND:                -0.516
REMARK SMILES O=c1nc2ccccc2c(O)n1CC[C@H]1CC[N@H+](Cc2ccccc2)CC1
REMARK SMILES IDX 13 1 12 2 10 3 9 4 8 5 4 6 2 7 7 8 5 9 3 10 6 11 1 12 11 13
REMARK SMILES IDX 14 15 15 16 27 17 16 18 26 19 17 20 18 21 19 23 20 24 21 25
REMARK SMILES IDX 25 26 22 27 24 28 23 29
REMARK H PARENT 11 14 18 22
ROOT
ATOM      1  C   UNL     1     -11.533 -46.368  30.173  1.00  0.00     0.131 C 
ENDROOT
BRANCH   1   2
ATOM      2  N   UNL     1     -11.460 -45.285  31.157  1.00  0.00    -0.262 N 
ATOM      3  C   UNL     1     -10.243 -44.930  31.709  1.00  0.00     0.204 A 
ATOM      4  C   UNL     1     -10.134 -43.911  32.578  1.00  0.00     0.061 A 
ATOM      5  C   UNL     1      -8.934 -43.449  33.251  1.00  0.00     0.016 A 
ATOM      6  C   UNL     1     -11.434 -43.228  32.853  1.00  0.00     0.081 A 
ATOM      7  C   UNL     1     -12.644 -44.618  31.493  1.00  0.00     0.350 A 
ATOM      8  C   UNL     1      -8.978 -42.401  34.085  1.00  0.00     0.001 A 
ATOM      9  C   UNL     1     -11.371 -42.065  33.784  1.00  0.00     0.029 A 
ATOM     10  N   UNL     1     -12.579 -43.564  32.362  1.00  0.00    -0.193 NA
ATOM     11  C   UNL     1     -10.211 -41.698  34.343  1.00  0.00     0.002 A 
ATOM     12  O   UNL     1     -13.733 -44.998  31.066  1.00  0.00    -0.246 OA
BRANCH   3  13
ATOM     13  O   UNL     1      -9.176 -45.705  31.305  1.00  0.00    -0.494 OA
ATOM     14  H   UNL     1      -9.278 -46.605  31.653  1.00  0.00     0.295 HD
ENDBRANCH   3  13
ENDBRANCH   1   2
BRANCH   1  15
ATOM     15  C   UNL     1     -10.796 -46.085  28.850  1.00  0.00     0.026 C 
BRANCH  15  16
ATOM     16  C   UNL     1     -11.618 -45.262  27.838  1.00  0.00     0.002 C 
ATOM     17  C   UNL     1     -13.073 -45.746  27.769  1.00  0.00     0.065 C 
ATOM     18  C   UNL     1     -11.627 -43.763  28.169  1.00  0.00     0.065 C 
ATOM     19  C   UNL     1     -13.862 -44.965  26.724  1.00  0.00     0.262 C 
ATOM     20  C   UNL     1     -12.384 -42.976  27.110  1.00  0.00     0.262 C 
ATOM     21  N   UNL     1     -13.805 -43.490  27.026  1.00  0.00    -0.331 N 
ATOM     22  H   UNL     1     -14.230 -43.341  27.949  1.00  0.00     0.348 HD
BRANCH  21  23
ATOM     23  C   UNL     1     -14.644 -42.697  26.044  1.00  0.00     0.299 C 
BRANCH  23  24
ATOM     24  C   UNL     1     -16.092 -42.612  26.441  1.00  0.00     0.006 A 
ATOM     25  C   UNL     1     -17.098 -42.563  25.464  1.00  0.00     0.009 A 
ATOM     26  C   UNL     1     -16.456 -42.560  27.796  1.00  0.00     0.009 A 
ATOM     27  C   UNL     1     -18.439 -42.457  25.836  1.00  0.00     0.001 A 
ATOM     28  C   UNL     1     -17.799 -42.455  28.162  1.00  0.00     0.001 A 
ATOM     29  C   UNL     1     -18.788 -42.401  27.183  1.00  0.00     0.000 A 
ENDBRANCH  23  24
ENDBRANCH  21  23
ENDBRANCH  15  16
ENDBRANCH   1  15
TORSDOF 6
ENDMDL
MODEL 4
REMARK VINA RESULT:   -10.417      2.022      9.789
REMARK INTER + INTRA:         -14.283
REMARK INTER:                 -13.903
REMARK INTRA:                  -0.380
REMARK UNBOUND:                -0.516
REMARK SMILES O=c1nc2ccccc2c(O)n1CC[C@H]1CC[N@H+](Cc2ccccc2)CC1
REMARK SMILES IDX 13 1 12 2 10 3 9 4 8 5 4 6 2 7 7 8 5 9 3 10 6 11 1 12 11 13
REMARK SMILES IDX 14 15 15 16 27 17 16 18 26 19 17 20 18 21 19 23 20 24 21 25
REMARK SMILES IDX 25 26 22 27 24 28 23 29
REMARK H PARENT 11 14 18 22
ROOT
ATOM      1  C   UNL     1     -13.195 -44.791  28.941  1.00  0.00     0.131 C 
ENDROOT
BRANCH   1   2
ATOM      2  N   UNL     1     -11.809 -44.569  29.361  1.00  0.00    -0.262 N 
ATOM      3  C   UNL     1     -11.176 -45.488  30.177  1.00  0.00     0.204 A 
ATOM      4  C   UNL     1      -9.891 -45.340  30.542  1.00  0.00     0.061 A 
ATOM      5  C   UNL     1      -9.114 -46.205  31.410  1.00  0.00     0.016 A 
ATOM      6  C   UNL     1      -9.252 -44.117  29.969  1.00  0.00     0.081 A 
ATOM      7  C   UNL     1     -11.152 -43.425  28.894  1.00  0.00     0.350 A 
ATOM      8  C   UNL     1      -7.827 -45.935  31.671  1.00  0.00     0.001 A 
ATOM      9  C   UNL     1      -7.815 -43.915  30.310  1.00  0.00     0.029 A 
ATOM     10  N   UNL     1      -9.839 -43.240  29.226  1.00  0.00    -0.193 NA
ATOM     11  C   UNL     1      -7.172 -44.781  31.104  1.00  0.00     0.002 A 
ATOM     12  O   UNL     1     -11.749 -42.569  28.242  1.00  0.00    -0.246 OA
BRANCH   3  13
ATOM     13  O   UNL     1     -11.966 -46.543  30.584  1.00  0.00    -0.494 OA
ATOM     14  H   UNL     1     -11.540 -46.999  31.328  1.00  0.00     0.295 HD
ENDBRANCH   3  13
ENDBRANCH   1   2
BRANCH   1  15
ATOM     15  C   UNL     1     -13.350 -45.419  27.544  1.00  0.00     0.026 C 
BRANCH  15  16
ATOM     16  C   UNL     1     -13.801 -44.424  26.455  1.00  0.00     0.002 C 
ATOM     17  C   UNL     1     -14.304 -45.154  25.201  1.00  0.00     0.065 C 
ATOM     18  C   UNL     1     -14.914 -43.486  26.943  1.00  0.00     0.065 C 
ATOM     19  C   UNL     1     -14.693 -44.162  24.110  1.00  0.00     0.262 C 
ATOM     20  C   UNL     1     -15.281 -42.473  25.868  1.00  0.00     0.262 C 
ATOM     21  N   UNL     1     -15.737 -43.206  24.625  1.00  0.00    -0.331 N 
ATOM     22  H   UNL     1     -16.564 -43.755  24.890  1.00  0.00     0.348 HD
BRANCH  21  23
ATOM     23  C   UNL     1     -16.195 -42.256  23.536  1.00  0.00     0.299 C 
BRANCH  23  24
ATOM     24  C   UNL     1     -17.650 -41.892  23.647  1.00  0.00     0.006 A 
ATOM     25  C   UNL     1     -18.302 -41.229  22.596  1.00  0.00     0.009 A 
ATOM     26  C   UNL     1     -18.373 -42.193  24.812  1.00  0.00     0.009 A 
ATOM     27  C   UNL     1     -19.644 -40.869  22.712  1.00  0.00     0.001 A 
ATOM     28  C   UNL     1     -19.716 -41.831  24.924  1.00  0.00     0.001 A 
ATOM     29  C   UNL     1     -20.350 -41.167  23.876  1.00  0.00     0.000 A 
ENDBRANCH  23  24
ENDBRANCH  21  23
ENDBRANCH  15  16
ENDBRANCH   1  15
TORSDOF 6
ENDMDL
MODEL 5
REMARK VINA RESULT:   -10.250      2.007      9.909
REMARK INTER + INTRA:         -14.062
REMARK INTER:                 -13.769
REMARK INTRA:                  -0.293
REMARK UNBOUND:                -0.516
REMARK SMILES O=c1nc2ccccc2c(O)n1CC[C@H]1CC[N@H+](Cc2ccccc2)CC1
REMARK SMILES IDX 13 1 12 2 10 3 9 4 8 5 4 6 2 7 7 8 5 9 3 10 6 11 1 12 11 13
REMARK SMILES IDX 14 15 15 16 27 17 16 18 26 19 17 20 18 21 19 23 20 24 21 25
REMARK SMILES IDX 25 26 22 27 24 28 23 29
REMARK H PARENT 11 14 18 22
ROOT
ATOM      1  C   UNL     1     -13.573 -44.488  28.717  1.00  0.00     0.131 C 
ENDROOT
BRANCH   1   2
ATOM      2  N   UNL     1     -12.348 -44.771  29.469  1.00  0.00    -0.262 N 
ATOM      3  C   UNL     1     -11.242 -43.953  29.325  1.00  0.00     0.204 A 
ATOM      4  C   UNL     1     -10.119 -44.156  30.035  1.00  0.00     0.061 A 
ATOM      5  C   UNL     1      -8.882 -43.400  29.966  1.00  0.00     0.016 A 
ATOM      6  C   UNL     1     -10.213 -45.317  30.970  1.00  0.00     0.081 A 
ATOM      7  C   UNL     1     -12.346 -45.865  30.341  1.00  0.00     0.350 A 
ATOM      8  C   UNL     1      -7.845 -43.713  30.755  1.00  0.00     0.001 A 
ATOM      9  C   UNL     1      -9.009 -45.572  31.812  1.00  0.00     0.029 A 
ATOM     10  N   UNL     1     -11.231 -46.101  31.096  1.00  0.00    -0.193 NA
ATOM     11  C   UNL     1      -7.917 -44.806  31.694  1.00  0.00     0.002 A 
ATOM     12  O   UNL     1     -13.302 -46.638  30.396  1.00  0.00    -0.246 OA
BRANCH   3  13
ATOM     13  O   UNL     1     -11.386 -42.939  28.402  1.00  0.00    -0.494 OA
ATOM     14  H   UNL     1     -10.511 -42.608  28.145  1.00  0.00     0.295 HD
ENDBRANCH   3  13
ENDBRANCH   1   2
BRANCH   1  15
ATOM     15  C   UNL     1     -13.632 -45.131  27.319  1.00  0.00     0.026 C 
BRANCH  15  16
ATOM     16  C   UNL     1     -14.065 -44.161  26.201  1.00  0.00     0.002 C 
ATOM     17  C   UNL     1     -14.468 -44.916  24.926  1.00  0.00     0.065 C 
ATOM     18  C   UNL     1     -15.241 -43.269  26.620  1.00  0.00     0.065 C 
ATOM     19  C   UNL     1     -14.838 -43.947  23.808  1.00  0.00     0.262 C 
ATOM     20  C   UNL     1     -15.592 -42.276  25.521  1.00  0.00     0.262 C 
ATOM     21  N   UNL     1     -15.948 -43.034  24.260  1.00  0.00    -0.331 N 
ATOM     22  H   UNL     1     -16.764 -43.616  24.483  1.00  0.00     0.348 HD
BRANCH  21  23
ATOM     23  C   UNL     1     -16.386 -42.110  23.141  1.00  0.00     0.299 C 
BRANCH  23  24
ATOM     24  C   UNL     1     -17.815 -41.660  23.274  1.00  0.00     0.006 A 
ATOM     25  C   UNL     1     -18.587 -42.053  24.378  1.00  0.00     0.009 A 
ATOM     26  C   UNL     1     -18.404 -40.858  22.284  1.00  0.00     0.009 A 
ATOM     27  C   UNL     1     -19.920 -41.655  24.485  1.00  0.00     0.001 A 
ATOM     28  C   UNL     1     -19.738 -40.462  22.396  1.00  0.00     0.001 A 
ATOM     29  C   UNL     1     -20.495 -40.864  23.494  1.00  0.00     0.000 A 
ENDBRANCH  23  24
ENDBRANCH  21  23
ENDBRANCH  15  16
ENDBRANCH   1  15
TORSDOF 6
ENDMDL
MODEL 6
REMARK VINA RESULT:   -10.107      1.907      9.532
REMARK INTER + INTRA:         -13.872
REMARK INTER:                 -14.291
REMARK INTRA:                   0.418
REMARK UNBOUND:                -0.516
REMARK SMILES O=c1nc2ccccc2c(O)n1CC[C@H]1CC[N@H+](Cc2ccccc2)CC1
REMARK SMILES IDX 13 1 12 2 10 3 9 4 8 5 4 6 2 7 7 8 5 9 3 10 6 11 1 12 11 13
REMARK SMILES IDX 14 15 15 16 27 17 16 18 26 19 17 20 18 21 19 23 20 24 21 25
REMARK SMILES IDX 25 26 22 27 24 28 23 29
REMARK H PARENT 11 14 18 22
ROOT
ATOM      1  C   UNL     1     -12.975 -45.727  29.731  1.00  0.00     0.131 C 
ENDROOT
BRANCH   1   2
ATOM      2  N   UNL     1     -11.932 -45.106  30.551  1.00  0.00    -0.262 N 
ATOM      3  C   UNL     1     -10.643 -45.606  30.530  1.00  0.00     0.204 A 
ATOM      4  C   UNL     1      -9.653 -45.031  31.233  1.00  0.00     0.061 A 
ATOM      5  C   UNL     1      -8.270 -45.462  31.325  1.00  0.00     0.016 A 
ATOM      6  C   UNL     1     -10.094 -43.826  31.998  1.00  0.00     0.081 A 
ATOM      7  C   UNL     1     -12.276 -43.991  31.324  1.00  0.00     0.350 A 
ATOM      8  C   UNL     1      -7.386 -44.772  32.058  1.00  0.00     0.001 A 
ATOM      9  C   UNL     1      -9.031 -43.123  32.771  1.00  0.00     0.029 A 
ATOM     10  N   UNL     1     -11.298 -43.364  32.044  1.00  0.00    -0.193 NA
ATOM     11  C   UNL     1      -7.773 -43.584  32.780  1.00  0.00     0.002 A 
ATOM     12  O   UNL     1     -13.443 -43.608  31.406  1.00  0.00    -0.246 OA
BRANCH   3  13
ATOM     13  O   UNL     1     -10.470 -46.729  29.749  1.00  0.00    -0.494 OA
ATOM     14  H   UNL     1     -10.960 -47.472  30.136  1.00  0.00     0.295 HD
ENDBRANCH   3  13
ENDBRANCH   1   2
BRANCH   1  15
ATOM     15  C   UNL     1     -12.635 -45.836  28.233  1.00  0.00     0.026 C 
BRANCH  15  16
ATOM     16  C   UNL     1     -13.345 -44.789  27.351  1.00  0.00     0.002 C 
ATOM     17  C   UNL     1     -13.820 -45.400  26.025  1.00  0.00     0.065 C 
ATOM     18  C   UNL     1     -14.558 -44.159  28.050  1.00  0.00     0.065 C 
ATOM     19  C   UNL     1     -14.469 -44.344  25.136  1.00  0.00     0.262 C 
ATOM     20  C   UNL     1     -15.188 -43.080  27.180  1.00  0.00     0.262 C 
ATOM     21  N   UNL     1     -15.615 -43.688  25.861  1.00  0.00    -0.331 N 
ATOM     22  H   UNL     1     -16.307 -44.415  26.080  1.00  0.00     0.348 HD
BRANCH  21  23
ATOM     23  C   UNL     1     -16.325 -42.687  24.972  1.00  0.00     0.299 C 
BRANCH  23  24
ATOM     24  C   UNL     1     -17.696 -42.324  25.472  1.00  0.00     0.006 A 
ATOM     25  C   UNL     1     -17.992 -42.369  26.843  1.00  0.00     0.009 A 
ATOM     26  C   UNL     1     -18.707 -41.955  24.570  1.00  0.00     0.009 A 
ATOM     27  C   UNL     1     -19.272 -42.057  27.300  1.00  0.00     0.001 A 
ATOM     28  C   UNL     1     -19.987 -41.643  25.032  1.00  0.00     0.001 A 
ATOM     29  C   UNL     1     -20.269 -41.697  26.395  1.00  0.00     0.000 A 
ENDBRANCH  23  24
ENDBRANCH  21  23
ENDBRANCH  15  16
ENDBRANCH   1  15
TORSDOF 6
ENDMDL
MODEL 7
REMARK VINA RESULT:   -10.059      2.298      3.744
REMARK INTER + INTRA:         -13.809
REMARK INTER:                 -13.184
REMARK INTRA:                  -0.625
REMARK UNBOUND:                -0.516
REMARK SMILES O=c1nc2ccccc2c(O)n1CC[C@H]1CC[N@H+](Cc2ccccc2)CC1
REMARK SMILES IDX 13 1 12 2 10 3 9 4 8 5 4 6 2 7 7 8 5 9 3 10 6 11 1 12 11 13
REMARK SMILES IDX 14 15 15 16 27 17 16 18 26 19 17 20 18 21 19 23 20 24 21 25
REMARK SMILES IDX 25 26 22 27 24 28 23 29
REMARK H PARENT 11 14 18 22
ROOT
ATOM      1  C   UNL     1     -16.006 -42.830  23.509  1.00  0.00     0.131 C 
ENDROOT
BRANCH   1   2
ATOM      2  N   UNL     1     -17.103 -41.985  23.032  1.00  0.00    -0.262 N 
ATOM      3  C   UNL     1     -18.374 -42.140  23.553  1.00  0.00     0.204 A 
ATOM      4  C   UNL     1     -19.393 -41.350  23.173  1.00  0.00     0.061 A 
ATOM      5  C   UNL     1     -20.774 -41.417  23.613  1.00  0.00     0.016 A 
ATOM      6  C   UNL     1     -18.996 -40.318  22.169  1.00  0.00     0.081 A 
ATOM      7  C   UNL     1     -16.818 -41.016  22.064  1.00  0.00     0.350 A 
ATOM      8  C   UNL     1     -21.681 -40.544  23.154  1.00  0.00     0.001 A 
ATOM      9  C   UNL     1     -20.077 -39.387  21.733  1.00  0.00     0.029 A 
ATOM     10  N   UNL     1     -17.819 -40.179  21.658  1.00  0.00    -0.193 NA
ATOM     11  C   UNL     1     -21.322 -39.513  22.212  1.00  0.00     0.002 A 
ATOM     12  O   UNL     1     -15.706 -40.945  21.542  1.00  0.00    -0.246 OA
BRANCH   3  13
ATOM     13  O   UNL     1     -18.504 -43.161  24.471  1.00  0.00    -0.494 OA
ATOM     14  H   UNL     1     -18.646 -42.786  25.355  1.00  0.00     0.295 HD
ENDBRANCH   3  13
ENDBRANCH   1   2
BRANCH   1  15
ATOM     15  C   UNL     1     -15.249 -42.273  24.730  1.00  0.00     0.026 C 
BRANCH  15  16
ATOM     16  C   UNL     1     -15.188 -43.244  25.926  1.00  0.00     0.002 C 
ATOM     17  C   UNL     1     -13.774 -43.813  26.116  1.00  0.00     0.065 C 
ATOM     18  C   UNL     1     -15.618 -42.583  27.242  1.00  0.00     0.065 C 
ATOM     19  C   UNL     1     -13.737 -44.817  27.263  1.00  0.00     0.262 C 
ATOM     20  C   UNL     1     -15.615 -43.589  28.384  1.00  0.00     0.262 C 
ATOM     21  N   UNL     1     -14.226 -44.170  28.533  1.00  0.00    -0.331 N 
ATOM     22  H   UNL     1     -13.597 -43.387  28.751  1.00  0.00     0.348 HD
BRANCH  21  23
ATOM     23  C   UNL     1     -14.128 -45.125  29.706  1.00  0.00     0.299 C 
BRANCH  23  24
ATOM     24  C   UNL     1     -12.781 -45.099  30.376  1.00  0.00     0.006 A 
ATOM     25  C   UNL     1     -11.912 -46.197  30.274  1.00  0.00     0.009 A 
ATOM     26  C   UNL     1     -12.382 -43.984  31.129  1.00  0.00     0.009 A 
ATOM     27  C   UNL     1     -10.675 -46.180  30.918  1.00  0.00     0.001 A 
ATOM     28  C   UNL     1     -11.143 -43.972  31.771  1.00  0.00     0.001 A 
ATOM     29  C   UNL     1     -10.292 -45.070  31.668  1.00  0.00     0.000 A 
ENDBRANCH  23  24
ENDBRANCH  21  23
ENDBRANCH  15  16
ENDBRANCH   1  15
TORSDOF 6
ENDMDL
MODEL 8
REMARK VINA RESULT:    -9.997      1.400      2.453
REMARK INTER + INTRA:         -13.728
REMARK INTER:                 -13.930
REMARK INTRA:                   0.202
REMARK UNBOUND:                -0.516
REMARK SMILES O=c1nc2ccccc2c(O)n1CC[C@H]1CC[N@H+](Cc2ccccc2)CC1
REMARK SMILES IDX 13 1 12 2 10 3 9 4 8 5 4 6 2 7 7 8 5 9 3 10 6 11 1 12 11 13
REMARK SMILES IDX 14 15 15 16 27 17 16 18 26 19 17 20 18 21 19 23 20 24 21 25
REMARK SMILES IDX 25 26 22 27 24 28 23 29
REMARK H PARENT 11 14 18 22
ROOT
ATOM      1  C   UNL     1     -15.298 -43.565  25.774  1.00  0.00     0.131 C 
ENDROOT
BRANCH   1   2
ATOM      2  N   UNL     1     -16.592 -42.933  26.042  1.00  0.00    -0.262 N 
ATOM      3  C   UNL     1     -17.420 -42.577  24.994  1.00  0.00     0.204 A 
ATOM      4  C   UNL     1     -18.633 -42.039  25.205  1.00  0.00     0.061 A 
ATOM      5  C   UNL     1     -19.589 -41.596  24.207  1.00  0.00     0.016 A 
ATOM      6  C   UNL     1     -18.969 -41.893  26.654  1.00  0.00     0.081 A 
ATOM      7  C   UNL     1     -16.964 -42.730  27.375  1.00  0.00     0.350 A 
ATOM      8  C   UNL     1     -20.775 -41.091  24.574  1.00  0.00     0.001 A 
ATOM      9  C   UNL     1     -20.319 -41.334  26.953  1.00  0.00     0.029 A 
ATOM     10  N   UNL     1     -18.196 -42.200  27.640  1.00  0.00    -0.193 NA
ATOM     11  C   UNL     1     -21.144 -40.970  25.963  1.00  0.00     0.002 A 
ATOM     12  O   UNL     1     -16.185 -42.968  28.297  1.00  0.00    -0.246 OA
BRANCH   3  13
ATOM     13  O   UNL     1     -16.898 -42.808  23.738  1.00  0.00    -0.494 OA
ATOM     14  H   UNL     1     -17.206 -43.669  23.412  1.00  0.00     0.295 HD
ENDBRANCH   3  13
ENDBRANCH   1   2
BRANCH   1  15
ATOM     15  C   UNL     1     -14.077 -42.764  26.264  1.00  0.00     0.026 C 
BRANCH  15  16
ATOM     16  C   UNL     1     -13.255 -43.480  27.355  1.00  0.00     0.002 C 
ATOM     17  C   UNL     1     -13.379 -45.007  27.243  1.00  0.00     0.065 C 
ATOM     18  C   UNL     1     -11.765 -43.115  27.301  1.00  0.00     0.065 C 
ATOM     19  C   UNL     1     -12.611 -45.703  28.360  1.00  0.00     0.262 C 
ATOM     20  C   UNL     1     -11.000 -43.782  28.436  1.00  0.00     0.262 C 
ATOM     21  N   UNL     1     -11.164 -45.283  28.335  1.00  0.00    -0.331 N 
ATOM     22  H   UNL     1     -10.769 -45.565  27.430  1.00  0.00     0.348 HD
BRANCH  21  23
ATOM     23  C   UNL     1     -10.362 -46.018  29.390  1.00  0.00     0.299 C 
BRANCH  23  24
ATOM     24  C   UNL     1      -9.906 -45.127  30.512  1.00  0.00     0.006 A 
ATOM     25  C   UNL     1      -8.558 -44.755  30.626  1.00  0.00     0.009 A 
ATOM     26  C   UNL     1     -10.821 -44.669  31.474  1.00  0.00     0.009 A 
ATOM     27  C   UNL     1      -8.134 -43.949  31.683  1.00  0.00     0.001 A 
ATOM     28  C   UNL     1     -10.392 -43.863  32.529  1.00  0.00     0.001 A 
ATOM     29  C   UNL     1      -9.050 -43.506  32.635  1.00  0.00     0.000 A 
ENDBRANCH  23  24
ENDBRANCH  21  23
ENDBRANCH  15  16
ENDBRANCH   1  15
TORSDOF 6
ENDMDL
MODEL 9
REMARK VINA RESULT:    -9.897      2.667      8.343
REMARK INTER + INTRA:         -13.596
REMARK INTER:                 -13.253
REMARK INTRA:                  -0.343
REMARK UNBOUND:                -0.516
REMARK SMILES O=c1nc2ccccc2c(O)n1CC[C@H]1CC[N@H+](Cc2ccccc2)CC1
REMARK SMILES IDX 13 1 12 2 10 3 9 4 8 5 4 6 2 7 7 8 5 9 3 10 6 11 1 12 11 13
REMARK SMILES IDX 14 15 15 16 27 17 16 18 26 19 17 20 18 21 19 23 20 24 21 25
REMARK SMILES IDX 25 26 22 27 24 28 23 29
REMARK H PARENT 11 14 18 22
ROOT
ATOM      1  C   UNL     1     -10.734 -46.492  29.961  1.00  0.00     0.131 C 
ENDROOT
BRANCH   1   2
ATOM      2  N   UNL     1     -11.211 -45.402  30.815  1.00  0.00    -0.262 N 
ATOM      3  C   UNL     1     -12.480 -45.454  31.362  1.00  0.00     0.204 A 
ATOM      4  C   UNL     1     -12.931 -44.494  32.188  1.00  0.00     0.061 A 
ATOM      5  C   UNL     1     -14.240 -44.407  32.808  1.00  0.00     0.016 A 
ATOM      6  C   UNL     1     -11.929 -43.416  32.443  1.00  0.00     0.081 A 
ATOM      7  C   UNL     1     -10.341 -44.336  31.074  1.00  0.00     0.350 A 
ATOM      8  C   UNL     1     -14.541 -43.391  33.629  1.00  0.00     0.001 A 
ATOM      9  C   UNL     1     -12.359 -42.340  33.381  1.00  0.00     0.029 A 
ATOM     10  N   UNL     1     -10.751 -43.345  31.921  1.00  0.00    -0.193 NA
ATOM     11  C   UNL     1     -13.584 -42.354  33.924  1.00  0.00     0.002 A 
ATOM     12  O   UNL     1      -9.249 -44.255  30.512  1.00  0.00    -0.246 OA
BRANCH   3  13
ATOM     13  O   UNL     1     -13.229 -46.549  30.985  1.00  0.00    -0.494 OA
ATOM     14  H   UNL     1     -12.883 -46.907  30.152  1.00  0.00     0.295 HD
ENDBRANCH   3  13
ENDBRANCH   1   2
BRANCH   1  15
ATOM     15  C   UNL     1     -11.179 -46.398  28.489  1.00  0.00     0.026 C 
BRANCH  15  16
ATOM     16  C   UNL     1     -12.135 -45.223  28.197  1.00  0.00     0.002 C 
ATOM     17  C   UNL     1     -11.382 -44.014  27.625  1.00  0.00     0.065 C 
ATOM     18  C   UNL     1     -13.248 -45.604  27.212  1.00  0.00     0.065 C 
ATOM     19  C   UNL     1     -12.326 -42.839  27.395  1.00  0.00     0.262 C 
ATOM     20  C   UNL     1     -14.213 -44.445  27.006  1.00  0.00     0.262 C 
ATOM     21  N   UNL     1     -13.450 -43.248  26.480  1.00  0.00    -0.331 N 
ATOM     22  H   UNL     1     -13.039 -43.530  25.581  1.00  0.00     0.348 HD
BRANCH  21  23
ATOM     23  C   UNL     1     -14.362 -42.077  26.174  1.00  0.00     0.299 C 
BRANCH  23  24
ATOM     24  C   UNL     1     -15.526 -42.449  25.297  1.00  0.00     0.006 A 
ATOM     25  C   UNL     1     -16.830 -42.474  25.814  1.00  0.00     0.009 A 
ATOM     26  C   UNL     1     -15.321 -42.797  23.952  1.00  0.00     0.009 A 
ATOM     27  C   UNL     1     -17.904 -42.845  25.004  1.00  0.00     0.001 A 
ATOM     28  C   UNL     1     -16.398 -43.167  23.146  1.00  0.00     0.001 A 
ATOM     29  C   UNL     1     -17.687 -43.194  23.673  1.00  0.00     0.000 A 
ENDBRANCH  23  24
ENDBRANCH  21  23
ENDBRANCH  15  16
ENDBRANCH   1  15
TORSDOF 6
ENDMDL
