MODEL 1
REMARK VINA RESULT:   -13.009      0.000      0.000
REMARK INTER + INTRA:         -19.763
REMARK INTER:                 -18.713
REMARK INTRA:                  -1.050
REMARK UNBOUND:                -1.050
REMARK SMILES Cc1cc(=O)[nH]c2c1C(=O)C(=NCCCCN=c1c3c([nH]c4cc(Cl)ccc14)CCCC3)C=C2O
REMARK SMILES IDX 14 1 13 2 12 3 11 4 34 5 33 6 7 7 6 8 8 9 9 10 4 11 2 12
REMARK SMILES IDX 3 13 10 15 5 16 1 17 35 18 15 20 16 21 17 22 18 23 19 24
REMARK SMILES IDX 28 25 20 26 32 27 27 28 22 29 21 30 29 31 31 32 26 33 23 34
REMARK SMILES IDX 30 35 24 36 25 38
REMARK H PARENT 6 14 35 19 21 37
ROOT
ATOM      1  C   UNL     1     -12.842 -46.083  27.596  1.00  0.00     0.025 C 
ENDROOT
BRANCH   1   2
ATOM      2  C   UNL     1     -13.042 -44.564  27.541  1.00  0.00     0.143 C 
BRANCH   2   3
ATOM      3  N   UNL     1     -14.447 -44.241  27.762  1.00  0.00    -0.281 NA
BRANCH   3   4
ATOM      4  C   UNL     1     -15.047 -43.418  26.968  1.00  0.00     0.109 C 
ATOM      5  C   UNL     1     -15.162 -42.543  24.721  1.00  0.00     0.142 C 
ATOM      6  C   UNL     1     -14.403 -43.065  25.687  1.00  0.00     0.080 C 
ATOM      7  C   UNL     1     -16.601 -42.390  24.849  1.00  0.00     0.095 A 
ATOM      8  N   UNL     1     -17.324 -42.191  23.693  1.00  0.00    -0.319 N 
ATOM      9  C   UNL     1     -17.239 -42.456  26.035  1.00  0.00     0.055 A 
ATOM     10  C   UNL     1     -16.391 -42.734  27.235  1.00  0.00     0.213 C 
ATOM     11  C   UNL     1     -18.685 -42.034  23.651  1.00  0.00     0.248 A 
ATOM     12  C   UNL     1     -18.690 -42.257  26.099  1.00  0.00    -0.032 A 
ATOM     13  C   UNL     1     -19.377 -42.050  24.960  1.00  0.00     0.075 A 
ATOM     14  H   UNL     1     -16.877 -42.265  22.788  1.00  0.00     0.170 HD
ATOM     15  O   UNL     1     -16.705 -42.399  28.367  1.00  0.00    -0.287 OA
ATOM     16  O   UNL     1     -19.300 -41.889  22.603  1.00  0.00    -0.270 OA
ATOM     17  C   UNL     1     -19.399 -42.302  27.422  1.00  0.00     0.045 C 
BRANCH   5  18
ATOM     18  O   UNL     1     -14.588 -42.130  23.537  1.00  0.00    -0.506 OA
ATOM     19  H   UNL     1     -14.702 -41.165  23.471  1.00  0.00     0.293 HD
ENDBRANCH   5  18
ENDBRANCH   3   4
ENDBRANCH   2   3
ENDBRANCH   1   2
BRANCH   1  20
ATOM     20  C   UNL     1     -11.401 -46.523  27.891  1.00  0.00     0.025 C 
BRANCH  20  21
ATOM     21  C   UNL     1     -10.590 -45.551  28.752  1.00  0.00     0.143 C 
BRANCH  21  22
ATOM     22  N   UNL     1     -10.979 -45.720  30.137  1.00  0.00    -0.284 NA
BRANCH  22  23
ATOM     23  C   UNL     1     -10.649 -44.949  31.109  1.00  0.00     0.072 A 
ATOM     24  C   UNL     1      -9.274 -44.632  31.674  1.00  0.00    -0.003 A 
ATOM     25  C   UNL     1     -11.794 -44.235  31.777  1.00  0.00     0.024 A 
ATOM     26  C   UNL     1      -9.146 -43.539  32.462  1.00  0.00     0.021 A 
ATOM     27  C   UNL     1      -8.124 -45.568  31.418  1.00  0.00     0.039 C 
ATOM     28  C   UNL     1     -13.120 -44.629  31.536  1.00  0.00     0.014 A 
ATOM     29  C   UNL     1     -11.525 -43.141  32.610  1.00  0.00     0.049 A 
ATOM     30  N   UNL     1     -10.203 -42.727  32.815  1.00  0.00    -0.358 N 
ATOM     31  C   UNL     1      -7.808 -43.132  33.051  1.00  0.00     0.054 C 
ATOM     32  C   UNL     1      -6.922 -45.354  32.340  1.00  0.00     0.005 C 
ATOM     33  C   UNL     1     -14.176 -43.928  32.118  1.00  0.00     0.021 A 
ATOM     34  C   UNL     1     -12.592 -42.426  33.168  1.00  0.00     0.047 A 
ATOM     35  C   UNL     1      -6.610 -43.873  32.467  1.00  0.00     0.007 C 
ATOM     36  C   UNL     1     -13.906 -42.827  32.927  1.00  0.00     0.043 A 
ATOM     37  H   UNL     1     -10.042 -42.067  33.568  1.00  0.00     0.166 HD
ATOM     38  Cl  UNL     1     -15.208 -41.949  33.633  1.00  0.00    -0.084 Cl
ENDBRANCH  22  23
ENDBRANCH  21  22
ENDBRANCH  20  21
ENDBRANCH   1  20
TORSDOF 8
ENDMDL
MODEL 2
REMARK VINA RESULT:   -12.428      1.623      2.585
REMARK INTER + INTRA:         -18.928
REMARK INTER:                 -17.884
REMARK INTRA:                  -1.044
REMARK UNBOUND:                -1.050
REMARK SMILES Cc1cc(=O)[nH]c2c1C(=O)C(=NCCCCN=c1c3c([nH]c4cc(Cl)ccc14)CCCC3)C=C2O
REMARK SMILES IDX 14 1 13 2 12 3 11 4 34 5 33 6 7 7 6 8 8 9 9 10 4 11 2 12
REMARK SMILES IDX 3 13 10 15 5 16 1 17 35 18 15 20 16 21 17 22 18 23 19 24
REMARK SMILES IDX 28 25 20 26 32 27 27 28 22 29 21 30 29 31 31 32 26 33 23 34
REMARK SMILES IDX 30 35 24 36 25 38
REMARK H PARENT 6 14 35 19 21 37
ROOT
ATOM      1  C   UNL     1     -12.845 -43.970  27.297  1.00  0.00     0.025 C 
ENDROOT
BRANCH   1   2
ATOM      2  C   UNL     1     -13.737 -43.560  26.120  1.00  0.00     0.143 C 
BRANCH   2   3
ATOM      3  N   UNL     1     -14.599 -42.452  26.515  1.00  0.00    -0.281 NA
BRANCH   3   4
ATOM      4  C   UNL     1     -15.867 -42.648  26.663  1.00  0.00     0.109 C 
ATOM      5  C   UNL     1     -17.704 -42.704  28.228  1.00  0.00     0.142 C 
ATOM      6  C   UNL     1     -16.397 -42.883  28.021  1.00  0.00     0.080 C 
ATOM      7  C   UNL     1     -18.602 -42.207  27.200  1.00  0.00     0.095 A 
ATOM      8  N   UNL     1     -19.825 -41.720  27.605  1.00  0.00    -0.319 N 
ATOM      9  C   UNL     1     -18.274 -42.190  25.891  1.00  0.00     0.055 A 
ATOM     10  C   UNL     1     -16.906 -42.681  25.539  1.00  0.00     0.213 C 
ATOM     11  C   UNL     1     -20.775 -41.216  26.756  1.00  0.00     0.248 A 
ATOM     12  C   UNL     1     -19.241 -41.710  24.900  1.00  0.00    -0.032 A 
ATOM     13  C   UNL     1     -20.436 -41.250  25.315  1.00  0.00     0.075 A 
ATOM     14  H   UNL     1     -20.034 -41.610  28.590  1.00  0.00     0.170 HD
ATOM     15  O   UNL     1     -16.622 -43.136  24.441  1.00  0.00    -0.287 OA
ATOM     16  O   UNL     1     -21.840 -40.762  27.153  1.00  0.00    -0.270 OA
ATOM     17  C   UNL     1     -18.889 -41.716  23.440  1.00  0.00     0.045 C 
BRANCH   5  18
ATOM     18  O   UNL     1     -18.254 -42.985  29.461  1.00  0.00    -0.506 OA
ATOM     19  H   UNL     1     -18.338 -43.952  29.537  1.00  0.00     0.293 HD
ENDBRANCH   5  18
ENDBRANCH   3   4
ENDBRANCH   2   3
ENDBRANCH   1   2
BRANCH   1  20
ATOM     20  C   UNL     1     -13.206 -45.325  27.924  1.00  0.00     0.025 C 
BRANCH  20  21
ATOM     21  C   UNL     1     -12.065 -46.014  28.679  1.00  0.00     0.143 C 
BRANCH  21  22
ATOM     22  N   UNL     1     -12.332 -45.932  30.101  1.00  0.00    -0.284 NA
BRANCH  22  23
ATOM     23  C   UNL     1     -11.641 -45.272  30.957  1.00  0.00     0.072 A 
ATOM     24  C   UNL     1     -10.144 -45.292  31.221  1.00  0.00    -0.003 A 
ATOM     25  C   UNL     1     -12.428 -44.320  31.818  1.00  0.00     0.024 A 
ATOM     26  C   UNL     1      -9.608 -44.269  31.927  1.00  0.00     0.021 A 
ATOM     27  C   UNL     1      -9.318 -46.467  30.771  1.00  0.00     0.039 C 
ATOM     28  C   UNL     1     -13.829 -44.391  31.864  1.00  0.00     0.014 A 
ATOM     29  C   UNL     1     -11.749 -43.330  32.540  1.00  0.00     0.049 A 
ATOM     30  N   UNL     1     -10.354 -43.237  32.457  1.00  0.00    -0.358 N 
ATOM     31  C   UNL     1      -8.121 -44.192  32.218  1.00  0.00     0.054 C 
ATOM     32  C   UNL     1      -7.936 -46.550  31.422  1.00  0.00     0.005 C 
ATOM     33  C   UNL     1     -14.553 -43.471  32.622  1.00  0.00     0.021 A 
ATOM     34  C   UNL     1     -12.484 -42.393  33.276  1.00  0.00     0.047 A 
ATOM     35  C   UNL     1      -7.272 -45.185  31.431  1.00  0.00     0.007 C 
ATOM     36  C   UNL     1     -13.877 -42.474  33.321  1.00  0.00     0.043 A 
ATOM     37  H   UNL     1      -9.894 -42.643  33.139  1.00  0.00     0.166 HD
ATOM     38  Cl  UNL     1     -14.767 -41.325  34.244  1.00  0.00    -0.084 Cl
ENDBRANCH  22  23
ENDBRANCH  21  22
ENDBRANCH  20  21
ENDBRANCH   1  20
TORSDOF 8
ENDMDL
MODEL 3
REMARK VINA RESULT:   -11.987      1.717      3.567
REMARK INTER + INTRA:         -18.293
REMARK INTER:                 -17.742
REMARK INTRA:                  -0.551
REMARK UNBOUND:                -1.050
REMARK SMILES Cc1cc(=O)[nH]c2c1C(=O)C(=NCCCCN=c1c3c([nH]c4cc(Cl)ccc14)CCCC3)C=C2O
REMARK SMILES IDX 14 1 13 2 12 3 11 4 34 5 33 6 7 7 6 8 8 9 9 10 4 11 2 12
REMARK SMILES IDX 3 13 10 15 5 16 1 17 35 18 15 20 16 21 17 22 18 23 19 24
REMARK SMILES IDX 28 25 20 26 32 27 27 28 22 29 21 30 29 31 31 32 26 33 23 34
REMARK SMILES IDX 30 35 24 36 25 38
REMARK H PARENT 6 14 35 19 21 37
ROOT
ATOM      1  C   UNL     1     -12.682 -46.129  28.227  1.00  0.00     0.025 C 
ENDROOT
BRANCH   1   2
ATOM      2  C   UNL     1     -13.432 -45.357  27.137  1.00  0.00     0.143 C 
BRANCH   2   3
ATOM      3  N   UNL     1     -14.151 -44.235  27.729  1.00  0.00    -0.281 NA
BRANCH   3   4
ATOM      4  C   UNL     1     -14.804 -43.420  26.970  1.00  0.00     0.109 C 
ATOM      5  C   UNL     1     -14.994 -42.481  24.754  1.00  0.00     0.142 C 
ATOM      6  C   UNL     1     -14.196 -42.993  25.693  1.00  0.00     0.080 C 
ATOM      7  C   UNL     1     -16.437 -42.408  24.903  1.00  0.00     0.095 A 
ATOM      8  N   UNL     1     -17.185 -42.210  23.763  1.00  0.00    -0.319 N 
ATOM      9  C   UNL     1     -17.055 -42.545  26.095  1.00  0.00     0.055 A 
ATOM     10  C   UNL     1     -16.177 -42.816  27.275  1.00  0.00     0.213 C 
ATOM     11  C   UNL     1     -18.552 -42.123  23.743  1.00  0.00     0.248 A 
ATOM     12  C   UNL     1     -18.513 -42.423  26.182  1.00  0.00    -0.032 A 
ATOM     13  C   UNL     1     -19.226 -42.217  25.059  1.00  0.00     0.075 A 
ATOM     14  H   UNL     1     -16.747 -42.231  22.851  1.00  0.00     0.170 HD
ATOM     15  O   UNL     1     -16.493 -42.534  28.421  1.00  0.00    -0.287 OA
ATOM     16  O   UNL     1     -19.188 -41.977  22.707  1.00  0.00    -0.270 OA
ATOM     17  C   UNL     1     -19.201 -42.547  27.511  1.00  0.00     0.045 C 
BRANCH   5  18
ATOM     18  O   UNL     1     -14.459 -42.001  23.577  1.00  0.00    -0.506 OA
ATOM     19  H   UNL     1     -15.130 -42.105  22.879  1.00  0.00     0.293 HD
ENDBRANCH   5  18
ENDBRANCH   3   4
ENDBRANCH   2   3
ENDBRANCH   1   2
BRANCH   1  20
ATOM     20  C   UNL     1     -11.248 -45.641  28.479  1.00  0.00     0.025 C 
BRANCH  20  21
ATOM     21  C   UNL     1     -10.499 -46.376  29.593  1.00  0.00     0.143 C 
BRANCH  21  22
ATOM     22  N   UNL     1     -11.182 -46.139  30.849  1.00  0.00    -0.284 NA
BRANCH  22  23
ATOM     23  C   UNL     1     -11.210 -45.027  31.489  1.00  0.00     0.072 A 
ATOM     24  C   UNL     1     -12.400 -44.191  31.932  1.00  0.00    -0.003 A 
ATOM     25  C   UNL     1      -9.864 -44.478  31.877  1.00  0.00     0.024 A 
ATOM     26  C   UNL     1     -12.197 -43.248  32.881  1.00  0.00     0.021 A 
ATOM     27  C   UNL     1     -13.734 -44.368  31.258  1.00  0.00     0.039 C 
ATOM     28  C   UNL     1      -8.689 -45.001  31.313  1.00  0.00     0.014 A 
ATOM     29  C   UNL     1      -9.791 -43.466  32.844  1.00  0.00     0.049 A 
ATOM     30  N   UNL     1     -10.963 -42.977  33.434  1.00  0.00    -0.358 N 
ATOM     31  C   UNL     1     -13.330 -42.382  33.402  1.00  0.00     0.054 C 
ATOM     32  C   UNL     1     -14.723 -43.229  31.512  1.00  0.00     0.005 C 
ATOM     33  C   UNL     1      -7.444 -44.522  31.719  1.00  0.00     0.021 A 
ATOM     34  C   UNL     1      -8.536 -43.011  33.266  1.00  0.00     0.047 A 
ATOM     35  C   UNL     1     -14.721 -42.843  32.980  1.00  0.00     0.007 C 
ATOM     36  C   UNL     1      -7.373 -43.532  32.696  1.00  0.00     0.043 A 
ATOM     37  H   UNL     1     -10.881 -42.122  33.974  1.00  0.00     0.166 HD
ATOM     38  Cl  UNL     1      -5.838 -42.950  33.212  1.00  0.00    -0.084 Cl
ENDBRANCH  22  23
ENDBRANCH  21  22
ENDBRANCH  20  21
ENDBRANCH   1  20
TORSDOF 8
ENDMDL
MODEL 4
REMARK VINA RESULT:   -11.953      1.334      1.787
REMARK INTER + INTRA:         -18.244
REMARK INTER:                 -17.527
REMARK INTRA:                  -0.717
REMARK UNBOUND:                -1.050
REMARK SMILES Cc1cc(=O)[nH]c2c1C(=O)C(=NCCCCN=c1c3c([nH]c4cc(Cl)ccc14)CCCC3)C=C2O
REMARK SMILES IDX 14 1 13 2 12 3 11 4 34 5 33 6 7 7 6 8 8 9 9 10 4 11 2 12
REMARK SMILES IDX 3 13 10 15 5 16 1 17 35 18 15 20 16 21 17 22 18 23 19 24
REMARK SMILES IDX 28 25 20 26 32 27 27 28 22 29 21 30 29 31 31 32 26 33 23 34
REMARK SMILES IDX 30 35 24 36 25 38
REMARK H PARENT 6 14 35 19 21 37
ROOT
ATOM      1  C   UNL     1     -12.990 -43.627  26.812  1.00  0.00     0.025 C 
ENDROOT
BRANCH   1   2
ATOM      2  C   UNL     1     -14.514 -43.570  26.962  1.00  0.00     0.143 C 
BRANCH   2   3
ATOM      3  N   UNL     1     -15.150 -43.889  25.689  1.00  0.00    -0.281 NA
BRANCH   3   4
ATOM      4  C   UNL     1     -15.836 -42.985  25.072  1.00  0.00     0.109 C 
ATOM      5  C   UNL     1     -16.017 -41.639  23.076  1.00  0.00     0.142 C 
ATOM      6  C   UNL     1     -15.216 -42.271  23.937  1.00  0.00     0.080 C 
ATOM      7  C   UNL     1     -17.466 -41.697  23.161  1.00  0.00     0.095 A 
ATOM      8  N   UNL     1     -18.183 -41.328  22.045  1.00  0.00    -0.319 N 
ATOM      9  C   UNL     1     -18.115 -42.112  24.269  1.00  0.00     0.055 A 
ATOM     10  C   UNL     1     -17.263 -42.552  25.417  1.00  0.00     0.213 C 
ATOM     11  C   UNL     1     -19.552 -41.334  21.971  1.00  0.00     0.248 A 
ATOM     12  C   UNL     1     -19.580 -42.112  24.302  1.00  0.00    -0.032 A 
ATOM     13  C   UNL     1     -20.264 -41.736  23.205  1.00  0.00     0.075 A 
ATOM     14  H   UNL     1     -17.711 -41.137  21.170  1.00  0.00     0.170 HD
ATOM     15  O   UNL     1     -17.643 -42.527  26.578  1.00  0.00    -0.287 OA
ATOM     16  O   UNL     1     -20.158 -41.029  20.952  1.00  0.00    -0.270 OA
ATOM     17  C   UNL     1     -20.306 -42.547  25.543  1.00  0.00     0.045 C 
BRANCH   5  18
ATOM     18  O   UNL     1     -15.477 -40.897  22.046  1.00  0.00    -0.506 OA
ATOM     19  H   UNL     1     -14.507 -40.950  22.116  1.00  0.00     0.293 HD
ENDBRANCH   5  18
ENDBRANCH   3   4
ENDBRANCH   2   3
ENDBRANCH   1   2
BRANCH   1  20
ATOM     20  C   UNL     1     -12.236 -43.960  28.107  1.00  0.00     0.025 C 
BRANCH  20  21
ATOM     21  C   UNL     1     -12.257 -45.437  28.508  1.00  0.00     0.143 C 
BRANCH  21  22
ATOM     22  N   UNL     1     -12.531 -45.530  29.929  1.00  0.00    -0.284 NA
BRANCH  22  23
ATOM     23  C   UNL     1     -11.797 -45.051  30.867  1.00  0.00     0.072 A 
ATOM     24  C   UNL     1     -10.311 -45.234  31.128  1.00  0.00    -0.003 A 
ATOM     25  C   UNL     1     -12.512 -44.157  31.845  1.00  0.00     0.024 A 
ATOM     26  C   UNL     1      -9.700 -44.363  31.964  1.00  0.00     0.021 A 
ATOM     27  C   UNL     1      -9.582 -46.406  30.527  1.00  0.00     0.039 C 
ATOM     28  C   UNL     1     -13.915 -44.113  31.879  1.00  0.00     0.014 A 
ATOM     29  C   UNL     1     -11.761 -43.333  32.693  1.00  0.00     0.049 A 
ATOM     30  N   UNL     1     -10.362 -43.351  32.627  1.00  0.00    -0.358 N 
ATOM     31  C   UNL     1      -8.215 -44.454  32.266  1.00  0.00     0.054 C 
ATOM     32  C   UNL     1      -8.221 -46.692  31.163  1.00  0.00     0.005 C 
ATOM     33  C   UNL     1     -14.568 -43.243  32.752  1.00  0.00     0.021 A 
ATOM     34  C   UNL     1     -12.423 -42.442  33.546  1.00  0.00     0.047 A 
ATOM     35  C   UNL     1      -7.443 -45.403  31.355  1.00  0.00     0.007 C 
ATOM     36  C   UNL     1     -13.818 -42.409  33.577  1.00  0.00     0.043 A 
ATOM     37  H   UNL     1      -9.863 -42.894  33.382  1.00  0.00     0.166 HD
ATOM     38  Cl  UNL     1     -14.620 -41.321  34.644  1.00  0.00    -0.084 Cl
ENDBRANCH  22  23
ENDBRANCH  21  22
ENDBRANCH  20  21
ENDBRANCH   1  20
TORSDOF 8
ENDMDL
MODEL 5
REMARK VINA RESULT:   -11.050      3.591     10.730
REMARK INTER + INTRA:         -16.945
REMARK INTER:                 -16.306
REMARK INTRA:                  -0.639
REMARK UNBOUND:                -1.050
REMARK SMILES Cc1cc(=O)[nH]c2c1C(=O)C(=NCCCCN=c1c3c([nH]c4cc(Cl)ccc14)CCCC3)C=C2O
REMARK SMILES IDX 14 1 13 2 12 3 11 4 34 5 33 6 7 7 6 8 8 9 9 10 4 11 2 12
REMARK SMILES IDX 3 13 10 15 5 16 1 17 35 18 15 20 16 21 17 22 18 23 19 24
REMARK SMILES IDX 28 25 20 26 32 27 27 28 22 29 21 30 29 31 31 32 26 33 23 34
REMARK SMILES IDX 30 35 24 36 25 38
REMARK H PARENT 6 14 35 19 21 37
ROOT
ATOM      1  C   UNL     1     -14.355 -43.837  25.437  1.00  0.00     0.025 C 
ENDROOT
BRANCH   1   2
ATOM      2  C   UNL     1     -14.065 -44.642  26.708  1.00  0.00     0.143 C 
BRANCH   2   3
ATOM      3  N   UNL     1     -13.475 -43.774  27.721  1.00  0.00    -0.281 NA
BRANCH   3   4
ATOM      4  C   UNL     1     -12.207 -43.833  27.955  1.00  0.00     0.109 C 
ATOM      5  C   UNL     1     -10.119 -42.622  27.939  1.00  0.00     0.142 C 
ATOM      6  C   UNL     1     -11.329 -42.783  27.399  1.00  0.00     0.080 C 
ATOM      7  C   UNL     1      -9.669 -43.371  29.098  1.00  0.00     0.095 A 
ATOM      8  N   UNL     1      -8.578 -42.884  29.786  1.00  0.00    -0.319 N 
ATOM      9  C   UNL     1     -10.284 -44.494  29.525  1.00  0.00     0.055 A 
ATOM     10  C   UNL     1     -11.495 -44.924  28.760  1.00  0.00     0.213 C 
ATOM     11  C   UNL     1      -8.040 -43.477  30.898  1.00  0.00     0.248 A 
ATOM     12  C   UNL     1      -9.756 -45.224  30.681  1.00  0.00    -0.032 A 
ATOM     13  C   UNL     1      -8.681 -44.739  31.332  1.00  0.00     0.075 A 
ATOM     14  H   UNL     1      -8.187 -41.980  29.554  1.00  0.00     0.170 HD
ATOM     15  O   UNL     1     -11.884 -46.081  28.722  1.00  0.00    -0.287 OA
ATOM     16  O   UNL     1      -7.089 -43.000  31.504  1.00  0.00    -0.270 OA
ATOM     17  C   UNL     1     -10.421 -46.489  31.141  1.00  0.00     0.045 C 
BRANCH   5  18
ATOM     18  O   UNL     1      -9.239 -41.705  27.402  1.00  0.00    -0.506 OA
ATOM     19  H   UNL     1      -8.350 -42.101  27.416  1.00  0.00     0.293 HD
ENDBRANCH   5  18
ENDBRANCH   3   4
ENDBRANCH   2   3
ENDBRANCH   1   2
BRANCH   1  20
ATOM     20  C   UNL     1     -15.474 -42.797  25.585  1.00  0.00     0.025 C 
BRANCH  20  21
ATOM     21  C   UNL     1     -16.514 -42.799  24.461  1.00  0.00     0.143 C 
BRANCH  21  22
ATOM     22  N   UNL     1     -17.674 -42.048  24.898  1.00  0.00    -0.284 NA
BRANCH  22  23
ATOM     23  C   UNL     1     -18.877 -42.218  24.486  1.00  0.00     0.072 A 
ATOM     24  C   UNL     1     -19.503 -41.874  23.144  1.00  0.00    -0.003 A 
ATOM     25  C   UNL     1     -19.804 -42.876  25.473  1.00  0.00     0.024 A 
ATOM     26  C   UNL     1     -20.682 -42.455  22.824  1.00  0.00     0.021 A 
ATOM     27  C   UNL     1     -18.852 -40.850  22.253  1.00  0.00     0.039 C 
ATOM     28  C   UNL     1     -19.437 -43.004  26.822  1.00  0.00     0.014 A 
ATOM     29  C   UNL     1     -21.023 -43.400  25.022  1.00  0.00     0.049 A 
ATOM     30  N   UNL     1     -21.366 -43.306  23.668  1.00  0.00    -0.358 N 
ATOM     31  C   UNL     1     -21.369 -42.190  21.496  1.00  0.00     0.054 C 
ATOM     32  C   UNL     1     -19.758 -40.317  21.142  1.00  0.00     0.005 C 
ATOM     33  C   UNL     1     -20.280 -43.662  27.718  1.00  0.00     0.021 A 
ATOM     34  C   UNL     1     -21.850 -44.084  25.921  1.00  0.00     0.047 A 
ATOM     35  C   UNL     1     -20.505 -41.458  20.475  1.00  0.00     0.007 C 
ATOM     36  C   UNL     1     -21.480 -44.202  27.262  1.00  0.00     0.043 A 
ATOM     37  H   UNL     1     -22.327 -43.517  23.423  1.00  0.00     0.166 HD
ATOM     38  Cl  UNL     1     -22.515 -45.030  28.361  1.00  0.00    -0.084 Cl
ENDBRANCH  22  23
ENDBRANCH  21  22
ENDBRANCH  20  21
ENDBRANCH   1  20
TORSDOF 8
ENDMDL
MODEL 6
REMARK VINA RESULT:   -10.837      4.063     11.008
REMARK INTER + INTRA:         -16.639
REMARK INTER:                 -16.273
REMARK INTRA:                  -0.366
REMARK UNBOUND:                -1.050
REMARK SMILES Cc1cc(=O)[nH]c2c1C(=O)C(=NCCCCN=c1c3c([nH]c4cc(Cl)ccc14)CCCC3)C=C2O
REMARK SMILES IDX 14 1 13 2 12 3 11 4 34 5 33 6 7 7 6 8 8 9 9 10 4 11 2 12
REMARK SMILES IDX 3 13 10 15 5 16 1 17 35 18 15 20 16 21 17 22 18 23 19 24
REMARK SMILES IDX 28 25 20 26 32 27 27 28 22 29 21 30 29 31 31 32 26 33 23 34
REMARK SMILES IDX 30 35 24 36 25 38
REMARK H PARENT 6 14 35 19 21 37
ROOT
ATOM      1  C   UNL     1     -14.854 -43.056  24.346  1.00  0.00     0.025 C 
ENDROOT
BRANCH   1   2
ATOM      2  C   UNL     1     -15.557 -43.476  25.641  1.00  0.00     0.143 C 
BRANCH   2   3
ATOM      3  N   UNL     1     -14.707 -43.175  26.787  1.00  0.00    -0.281 NA
BRANCH   3   4
ATOM      4  C   UNL     1     -14.241 -44.138  27.510  1.00  0.00     0.109 C 
ATOM      5  C   UNL     1     -12.680 -45.977  27.611  1.00  0.00     0.142 C 
ATOM      6  C   UNL     1     -13.469 -45.213  26.852  1.00  0.00     0.080 C 
ATOM      7  C   UNL     1     -12.483 -45.739  29.030  1.00  0.00     0.095 A 
ATOM      8  N   UNL     1     -11.396 -46.336  29.630  1.00  0.00    -0.319 N 
ATOM      9  C   UNL     1     -13.303 -44.954  29.758  1.00  0.00     0.055 A 
ATOM     10  C   UNL     1     -14.426 -44.296  29.021  1.00  0.00     0.213 C 
ATOM     11  C   UNL     1     -11.077 -46.203  30.956  1.00  0.00     0.248 A 
ATOM     12  C   UNL     1     -13.070 -44.785  31.195  1.00  0.00    -0.032 A 
ATOM     13  C   UNL     1     -12.010 -45.386  31.766  1.00  0.00     0.075 A 
ATOM     14  H   UNL     1     -10.705 -46.822  29.073  1.00  0.00     0.170 HD
ATOM     15  O   UNL     1     -15.463 -43.942  29.562  1.00  0.00    -0.287 OA
ATOM     16  O   UNL     1     -10.085 -46.722  31.450  1.00  0.00    -0.270 OA
ATOM     17  C   UNL     1     -13.997 -43.934  32.014  1.00  0.00     0.045 C 
BRANCH   5  18
ATOM     18  O   UNL     1     -12.001 -47.039  27.051  1.00  0.00    -0.506 OA
ATOM     19  H   UNL     1     -12.659 -47.694  26.758  1.00  0.00     0.293 HD
ENDBRANCH   5  18
ENDBRANCH   3   4
ENDBRANCH   2   3
ENDBRANCH   1   2
BRANCH   1  20
ATOM     20  C   UNL     1     -15.599 -41.985  23.537  1.00  0.00     0.025 C 
BRANCH  20  21
ATOM     21  C   UNL     1     -16.912 -42.451  22.901  1.00  0.00     0.143 C 
BRANCH  21  22
ATOM     22  N   UNL     1     -17.706 -41.285  22.567  1.00  0.00    -0.284 NA
BRANCH  22  23
ATOM     23  C   UNL     1     -18.924 -41.081  22.918  1.00  0.00     0.072 A 
ATOM     24  C   UNL     1     -19.647 -41.478  24.194  1.00  0.00    -0.003 A 
ATOM     25  C   UNL     1     -19.757 -40.317  21.924  1.00  0.00     0.024 A 
ATOM     26  C   UNL     1     -20.815 -40.860  24.483  1.00  0.00     0.021 A 
ATOM     27  C   UNL     1     -19.100 -42.588  25.052  1.00  0.00     0.039 C 
ATOM     28  C   UNL     1     -19.301 -40.121  20.610  1.00  0.00     0.014 A 
ATOM     29  C   UNL     1     -20.975 -39.762  22.336  1.00  0.00     0.049 A 
ATOM     30  N   UNL     1     -21.406 -39.925  23.659  1.00  0.00    -0.358 N 
ATOM     31  C   UNL     1     -21.595 -41.175  25.747  1.00  0.00     0.054 C 
ATOM     32  C   UNL     1     -20.097 -43.145  26.070  1.00  0.00     0.005 C 
ATOM     33  C   UNL     1     -20.055 -39.366  19.712  1.00  0.00     0.021 A 
ATOM     34  C   UNL     1     -21.713 -38.982  21.437  1.00  0.00     0.047 A 
ATOM     35  C   UNL     1     -20.831 -42.013  26.766  1.00  0.00     0.007 C 
ATOM     36  C   UNL     1     -21.255 -38.797  20.132  1.00  0.00     0.043 A 
ATOM     37  H   UNL     1     -22.370 -39.682  23.859  1.00  0.00     0.166 HD
ATOM     38  Cl  UNL     1     -22.180 -37.850  19.031  1.00  0.00    -0.084 Cl
ENDBRANCH  22  23
ENDBRANCH  21  22
ENDBRANCH  20  21
ENDBRANCH   1  20
TORSDOF 8
ENDMDL
