MODEL 1
REMARK VINA RESULT:    -9.728      0.000      0.000
REMARK INTER + INTRA:         -10.012
REMARK INTER:                 -10.012
REMARK INTRA:                   0.000
REMARK UNBOUND:                 0.000
REMARK SMILES CC1=C[C@@H]2Cc3[nH]c4cc(Cl)ccc4c(=N)c3[C@H](C1)C2
REMARK SMILES IDX 7 1 6 2 17 3 15 4 14 5 13 6 12 7 10 8 11 9 9 10 8 11 18 12
REMARK SMILES IDX 19 13 2 14 1 15 3 16 4 17 5 18 20 19 16 21
REMARK H PARENT 7 20 16 22
ROOT
ATOM      1  N   UNL     1     -13.459 -45.071  26.823  1.00  0.00    -0.358 N 
ATOM      2  C   UNL     1     -13.118 -45.341  28.130  1.00  0.00     0.021 A 
ATOM      3  C   UNL     1     -13.817 -44.868  29.184  1.00  0.00     0.000 A 
ATOM      4  C   UNL     1     -15.012 -43.995  28.928  1.00  0.00     0.068 A 
ATOM      5  C   UNL     1     -15.315 -43.643  27.503  1.00  0.00     0.023 A 
ATOM      6  C   UNL     1     -16.369 -42.785  27.153  1.00  0.00     0.014 A 
ATOM      7  C   UNL     1     -16.620 -42.492  25.809  1.00  0.00     0.021 A 
ATOM      8  C   UNL     1     -15.823 -43.054  24.816  1.00  0.00     0.043 A 
ATOM      9  Cl  UNL     1     -16.141 -42.700  23.164  1.00  0.00    -0.084 Cl
ATOM     10  C   UNL     1     -14.771 -43.904  25.152  1.00  0.00     0.047 A 
ATOM     11  C   UNL     1     -14.499 -44.191  26.495  1.00  0.00     0.049 A 
ATOM     12  C   UNL     1     -13.464 -45.189  30.628  1.00  0.00     0.028 C 
ATOM     13  C   UNL     1     -12.648 -44.041  31.266  1.00  0.00     0.039 C 
ATOM     14  C   UNL     1     -11.179 -44.047  30.877  1.00  0.00    -0.076 C 
ATOM     15  C   UNL     1     -10.387 -42.840  31.284  1.00  0.00     0.039 C 
ATOM     16  C   UNL     1     -10.632 -45.072  30.196  1.00  0.00    -0.024 C 
ATOM     17  C   UNL     1     -11.416 -46.308  29.799  1.00  0.00     0.018 C 
ATOM     18  C   UNL     1     -11.885 -46.210  28.333  1.00  0.00     0.062 C 
ATOM     19  C   UNL     1     -12.641 -46.483  30.702  1.00  0.00     0.017 C 
ATOM     20  H   UNL     1     -12.797 -45.328  26.101  1.00  0.00     0.166 HD
ENDROOT
BRANCH   4  21
ATOM     21  N   UNL     1     -15.720 -43.586  29.938  1.00  0.00    -0.300 NA
ATOM     22  H   UNL     1     -15.160 -43.381  30.762  1.00  0.00     0.188 HD
ENDBRANCH   4  21
TORSDOF 1
ENDMDL
MODEL 2
REMARK VINA RESULT:    -9.517      2.031      3.128
REMARK INTER + INTRA:          -9.795
REMARK INTER:                  -9.795
REMARK INTRA:                   0.000
REMARK UNBOUND:                 0.000
REMARK SMILES CC1=C[C@@H]2Cc3[nH]c4cc(Cl)ccc4c(=N)c3[C@H](C1)C2
REMARK SMILES IDX 7 1 6 2 17 3 15 4 14 5 13 6 12 7 10 8 11 9 9 10 8 11 18 12
REMARK SMILES IDX 19 13 2 14 1 15 3 16 4 17 5 18 20 19 16 21
REMARK H PARENT 7 20 16 22
ROOT
ATOM      1  N   UNL     1     -10.778 -43.231  27.886  1.00  0.00    -0.358 N 
ATOM      2  C   UNL     1     -10.172 -43.856  28.953  1.00  0.00     0.021 A 
ATOM      3  C   UNL     1     -10.783 -44.808  29.691  1.00  0.00     0.000 A 
ATOM      4  C   UNL     1     -12.192 -45.197  29.346  1.00  0.00     0.068 A 
ATOM      5  C   UNL     1     -12.863 -44.444  28.238  1.00  0.00     0.023 A 
ATOM      6  C   UNL     1     -14.197 -44.681  27.874  1.00  0.00     0.014 A 
ATOM      7  C   UNL     1     -14.779 -43.961  26.827  1.00  0.00     0.021 A 
ATOM      8  C   UNL     1     -14.032 -43.008  26.142  1.00  0.00     0.043 A 
ATOM      9  Cl  UNL     1     -14.748 -42.130  24.847  1.00  0.00    -0.084 Cl
ATOM     10  C   UNL     1     -12.707 -42.760  26.496  1.00  0.00     0.047 A 
ATOM     11  C   UNL     1     -12.119 -43.463  27.556  1.00  0.00     0.049 A 
ATOM     12  C   UNL     1     -10.107 -45.525  30.850  1.00  0.00     0.028 C 
ATOM     13  C   UNL     1     -10.514 -44.894  32.202  1.00  0.00     0.039 C 
ATOM     14  C   UNL     1      -9.768 -43.610  32.525  1.00  0.00    -0.076 C 
ATOM     15  C   UNL     1     -10.272 -42.839  33.709  1.00  0.00     0.039 C 
ATOM     16  C   UNL     1      -8.728 -43.190  31.780  1.00  0.00    -0.024 C 
ATOM     17  C   UNL     1      -8.195 -43.972  30.596  1.00  0.00     0.018 C 
ATOM     18  C   UNL     1      -8.753 -43.407  29.274  1.00  0.00     0.062 C 
ATOM     19  C   UNL     1      -8.580 -45.450  30.707  1.00  0.00     0.017 C 
ATOM     20  H   UNL     1     -10.315 -42.422  27.489  1.00  0.00     0.166 HD
ENDROOT
BRANCH   4  21
ATOM     21  N   UNL     1     -12.763 -46.152  30.018  1.00  0.00    -0.300 NA
ATOM     22  H   UNL     1     -12.099 -46.797  30.440  1.00  0.00     0.188 HD
ENDBRANCH   4  21
TORSDOF 1
ENDMDL
MODEL 3
REMARK VINA RESULT:    -8.924      1.841      2.772
REMARK INTER + INTRA:          -9.185
REMARK INTER:                  -9.185
REMARK INTRA:                   0.000
REMARK UNBOUND:                 0.000
REMARK SMILES CC1=C[C@@H]2Cc3[nH]c4cc(Cl)ccc4c(=N)c3[C@H](C1)C2
REMARK SMILES IDX 7 1 6 2 17 3 15 4 14 5 13 6 12 7 10 8 11 9 9 10 8 11 18 12
REMARK SMILES IDX 19 13 2 14 1 15 3 16 4 17 5 18 20 19 16 21
REMARK H PARENT 7 20 16 22
ROOT
ATOM      1  N   UNL     1     -12.306 -42.769  27.628  1.00  0.00    -0.358 N 
ATOM      2  C   UNL     1     -11.810 -43.621  28.590  1.00  0.00     0.021 A 
ATOM      3  C   UNL     1     -12.018 -44.955  28.568  1.00  0.00     0.000 A 
ATOM      4  C   UNL     1     -12.839 -45.541  27.455  1.00  0.00     0.068 A 
ATOM      5  C   UNL     1     -13.441 -44.588  26.468  1.00  0.00     0.023 A 
ATOM      6  C   UNL     1     -14.276 -45.020  25.426  1.00  0.00     0.014 A 
ATOM      7  C   UNL     1     -14.809 -44.096  24.523  1.00  0.00     0.021 A 
ATOM      8  C   UNL     1     -14.508 -42.744  24.656  1.00  0.00     0.043 A 
ATOM      9  Cl  UNL     1     -15.156 -41.610  23.537  1.00  0.00    -0.084 Cl
ATOM     10  C   UNL     1     -13.684 -42.302  25.689  1.00  0.00     0.047 A 
ATOM     11  C   UNL     1     -13.158 -43.217  26.611  1.00  0.00     0.049 A 
ATOM     12  C   UNL     1     -11.445 -45.904  29.610  1.00  0.00     0.028 C 
ATOM     13  C   UNL     1     -12.500 -46.241  30.689  1.00  0.00     0.039 C 
ATOM     14  C   UNL     1     -12.671 -45.152  31.736  1.00  0.00    -0.076 C 
ATOM     15  C   UNL     1     -13.827 -45.323  32.676  1.00  0.00     0.039 C 
ATOM     16  C   UNL     1     -11.840 -44.096  31.798  1.00  0.00    -0.024 C 
ATOM     17  C   UNL     1     -10.654 -43.924  30.869  1.00  0.00     0.018 C 
ATOM     18  C   UNL     1     -11.005 -42.972  29.708  1.00  0.00     0.062 C 
ATOM     19  C   UNL     1     -10.222 -45.275  30.291  1.00  0.00     0.017 C 
ATOM     20  H   UNL     1     -12.242 -41.773  27.803  1.00  0.00     0.166 HD
ENDROOT
BRANCH   4  21
ATOM     21  N   UNL     1     -12.993 -46.830  27.400  1.00  0.00    -0.300 NA
ATOM     22  H   UNL     1     -13.066 -47.265  28.317  1.00  0.00     0.188 HD
ENDBRANCH   4  21
TORSDOF 1
ENDMDL
MODEL 4
REMARK VINA RESULT:    -8.746      4.065      7.111
REMARK INTER + INTRA:          -9.002
REMARK INTER:                  -9.002
REMARK INTRA:                   0.000
REMARK UNBOUND:                 0.000
REMARK SMILES CC1=C[C@@H]2Cc3[nH]c4cc(Cl)ccc4c(=N)c3[C@H](C1)C2
REMARK SMILES IDX 7 1 6 2 17 3 15 4 14 5 13 6 12 7 10 8 11 9 9 10 8 11 18 12
REMARK SMILES IDX 19 13 2 14 1 15 3 16 4 17 5 18 20 19 16 21
REMARK H PARENT 7 20 16 22
ROOT
ATOM      1  N   UNL     1     -11.916 -43.761  32.427  1.00  0.00    -0.358 N 
ATOM      2  C   UNL     1     -12.256 -44.512  31.325  1.00  0.00     0.021 A 
ATOM      3  C   UNL     1     -11.341 -45.110  30.532  1.00  0.00     0.000 A 
ATOM      4  C   UNL     1      -9.884 -44.940  30.854  1.00  0.00     0.068 A 
ATOM      5  C   UNL     1      -9.532 -44.050  32.006  1.00  0.00     0.023 A 
ATOM      6  C   UNL     1      -8.202 -43.771  32.356  1.00  0.00     0.014 A 
ATOM      7  C   UNL     1      -7.921 -42.940  33.444  1.00  0.00     0.021 A 
ATOM      8  C   UNL     1      -8.963 -42.391  34.185  1.00  0.00     0.043 A 
ATOM      9  Cl  UNL     1      -8.614 -41.378  35.531  1.00  0.00    -0.084 Cl
ATOM     10  C   UNL     1     -10.288 -42.657  33.845  1.00  0.00     0.047 A 
ATOM     11  C   UNL     1     -10.582 -43.473  32.745  1.00  0.00     0.049 A 
ATOM     12  C   UNL     1     -11.713 -45.967  29.332  1.00  0.00     0.028 C 
ATOM     13  C   UNL     1     -11.612 -45.154  28.020  1.00  0.00     0.039 C 
ATOM     14  C   UNL     1     -12.804 -44.243  27.774  1.00  0.00    -0.076 C 
ATOM     15  C   UNL     1     -12.664 -43.273  26.638  1.00  0.00     0.039 C 
ATOM     16  C   UNL     1     -13.908 -44.301  28.541  1.00  0.00    -0.024 C 
ATOM     17  C   UNL     1     -14.071 -45.293  29.676  1.00  0.00     0.018 C 
ATOM     18  C   UNL     1     -13.745 -44.631  31.030  1.00  0.00     0.062 C 
ATOM     19  C   UNL     1     -13.146 -46.498  29.478  1.00  0.00     0.017 C 
ATOM     20  H   UNL     1     -12.647 -43.218  32.872  1.00  0.00     0.166 HD
ENDROOT
BRANCH   4  21
ATOM     21  N   UNL     1      -9.004 -45.561  30.127  1.00  0.00    -0.300 NA
ATOM     22  H   UNL     1      -8.627 -46.392  30.576  1.00  0.00     0.188 HD
ENDBRANCH   4  21
TORSDOF 1
ENDMDL
MODEL 5
REMARK VINA RESULT:    -8.433      5.980     10.666
REMARK INTER + INTRA:          -8.679
REMARK INTER:                  -8.679
REMARK INTRA:                   0.000
REMARK UNBOUND:                 0.000
REMARK SMILES CC1=C[C@@H]2Cc3[nH]c4cc(Cl)ccc4c(=N)c3[C@H](C1)C2
REMARK SMILES IDX 7 1 6 2 17 3 15 4 14 5 13 6 12 7 10 8 11 9 9 10 8 11 18 12
REMARK SMILES IDX 19 13 2 14 1 15 3 16 4 17 5 18 20 19 16 21
REMARK H PARENT 7 20 16 22
ROOT
ATOM      1  N   UNL     1     -17.980 -40.900  21.782  1.00  0.00    -0.358 N 
ATOM      2  C   UNL     1     -19.235 -40.391  21.534  1.00  0.00     0.021 A 
ATOM      3  C   UNL     1     -20.232 -40.419  22.444  1.00  0.00     0.000 A 
ATOM      4  C   UNL     1     -19.971 -41.047  23.784  1.00  0.00     0.068 A 
ATOM      5  C   UNL     1     -18.627 -41.671  24.002  1.00  0.00     0.023 A 
ATOM      6  C   UNL     1     -18.297 -42.339  25.191  1.00  0.00     0.014 A 
ATOM      7  C   UNL     1     -17.027 -42.899  25.354  1.00  0.00     0.021 A 
ATOM      8  C   UNL     1     -16.086 -42.792  24.335  1.00  0.00     0.043 A 
ATOM      9  Cl  UNL     1     -14.520 -43.473  24.542  1.00  0.00    -0.084 Cl
ATOM     10  C   UNL     1     -16.403 -42.135  23.147  1.00  0.00     0.047 A 
ATOM     11  C   UNL     1     -17.678 -41.585  22.965  1.00  0.00     0.049 A 
ATOM     12  C   UNL     1     -21.610 -39.830  22.187  1.00  0.00     0.028 C 
ATOM     13  C   UNL     1     -22.612 -40.930  21.765  1.00  0.00     0.039 C 
ATOM     14  C   UNL     1     -22.486 -41.342  20.307  1.00  0.00    -0.076 C 
ATOM     15  C   UNL     1     -23.275 -42.550  19.897  1.00  0.00     0.039 C 
ATOM     16  C   UNL     1     -21.702 -40.666  19.447  1.00  0.00    -0.024 C 
ATOM     17  C   UNL     1     -20.920 -39.429  19.844  1.00  0.00     0.018 C 
ATOM     18  C   UNL     1     -19.452 -39.789  20.152  1.00  0.00     0.062 C 
ATOM     19  C   UNL     1     -21.540 -38.770  21.079  1.00  0.00     0.017 C 
ATOM     20  H   UNL     1     -17.342 -40.983  20.999  1.00  0.00     0.166 HD
ENDROOT
BRANCH   4  21
ATOM     21  N   UNL     1     -20.911 -41.025  24.681  1.00  0.00    -0.300 NA
ATOM     22  H   UNL     1     -20.665 -41.526  25.532  1.00  0.00     0.188 HD
ENDBRANCH   4  21
TORSDOF 1
ENDMDL
MODEL 6
REMARK VINA RESULT:    -8.397      4.576      9.022
REMARK INTER + INTRA:          -8.642
REMARK INTER:                  -8.642
REMARK INTRA:                   0.000
REMARK UNBOUND:                 0.000
REMARK SMILES CC1=C[C@@H]2Cc3[nH]c4cc(Cl)ccc4c(=N)c3[C@H](C1)C2
REMARK SMILES IDX 7 1 6 2 17 3 15 4 14 5 13 6 12 7 10 8 11 9 9 10 8 11 18 12
REMARK SMILES IDX 19 13 2 14 1 15 3 16 4 17 5 18 20 19 16 21
REMARK H PARENT 7 20 16 22
ROOT
ATOM      1  N   UNL     1     -17.913 -42.209  23.927  1.00  0.00    -0.358 N 
ATOM      2  C   UNL     1     -19.215 -41.787  23.779  1.00  0.00     0.021 A 
ATOM      3  C   UNL     1     -20.019 -41.505  24.827  1.00  0.00     0.000 A 
ATOM      4  C   UNL     1     -19.479 -41.671  26.219  1.00  0.00     0.068 A 
ATOM      5  C   UNL     1     -18.088 -42.213  26.358  1.00  0.00     0.023 A 
ATOM      6  C   UNL     1     -17.507 -42.466  27.610  1.00  0.00     0.014 A 
ATOM      7  C   UNL     1     -16.204 -42.964  27.692  1.00  0.00     0.021 A 
ATOM      8  C   UNL     1     -15.480 -43.206  26.528  1.00  0.00     0.043 A 
ATOM      9  Cl  UNL     1     -13.872 -43.809  26.632  1.00  0.00    -0.084 Cl
ATOM     10  C   UNL     1     -16.047 -42.963  25.279  1.00  0.00     0.047 A 
ATOM     11  C   UNL     1     -17.359 -42.481  25.184  1.00  0.00     0.049 A 
ATOM     12  C   UNL     1     -21.448 -41.008  24.670  1.00  0.00     0.028 C 
ATOM     13  C   UNL     1     -22.457 -42.169  24.825  1.00  0.00     0.039 C 
ATOM     14  C   UNL     1     -22.591 -43.032  23.580  1.00  0.00    -0.076 C 
ATOM     15  C   UNL     1     -23.384 -44.295  23.740  1.00  0.00     0.039 C 
ATOM     16  C   UNL     1     -22.018 -42.681  22.414  1.00  0.00    -0.024 C 
ATOM     17  C   UNL     1     -21.235 -41.396  22.234  1.00  0.00     0.018 C 
ATOM     18  C   UNL     1     -19.720 -41.659  22.349  1.00  0.00     0.062 C 
ATOM     19  C   UNL     1     -21.641 -40.364  23.290  1.00  0.00     0.017 C 
ATOM     20  H   UNL     1     -17.432 -42.551  23.103  1.00  0.00     0.166 HD
ENDROOT
BRANCH   4  21
ATOM     21  N   UNL     1     -20.230 -41.346  27.228  1.00  0.00    -0.300 NA
ATOM     22  H   UNL     1     -19.768 -41.462  28.126  1.00  0.00     0.188 HD
ENDBRANCH   4  21
TORSDOF 1
ENDMDL
MODEL 7
REMARK VINA RESULT:    -8.386      4.213      8.431
REMARK INTER + INTRA:          -8.631
REMARK INTER:                  -8.631
REMARK INTRA:                   0.000
REMARK UNBOUND:                 0.000
REMARK SMILES CC1=C[C@@H]2Cc3[nH]c4cc(Cl)ccc4c(=N)c3[C@H](C1)C2
REMARK SMILES IDX 7 1 6 2 17 3 15 4 14 5 13 6 12 7 10 8 11 9 9 10 8 11 18 12
REMARK SMILES IDX 19 13 2 14 1 15 3 16 4 17 5 18 20 19 16 21
REMARK H PARENT 7 20 16 22
ROOT
ATOM      1  N   UNL     1     -17.707 -42.407  26.339  1.00  0.00    -0.358 N 
ATOM      2  C   UNL     1     -18.824 -42.401  25.533  1.00  0.00     0.021 A 
ATOM      3  C   UNL     1     -18.789 -42.740  24.227  1.00  0.00     0.000 A 
ATOM      4  C   UNL     1     -17.473 -43.128  23.615  1.00  0.00     0.068 A 
ATOM      5  C   UNL     1     -16.257 -43.044  24.486  1.00  0.00     0.023 A 
ATOM      6  C   UNL     1     -14.970 -43.322  24.002  1.00  0.00     0.014 A 
ATOM      7  C   UNL     1     -13.865 -43.240  24.854  1.00  0.00     0.021 A 
ATOM      8  C   UNL     1     -14.042 -42.884  26.187  1.00  0.00     0.043 A 
ATOM      9  Cl  UNL     1     -12.682 -42.793  27.236  1.00  0.00    -0.084 Cl
ATOM     10  C   UNL     1     -15.315 -42.601  26.679  1.00  0.00     0.047 A 
ATOM     11  C   UNL     1     -16.428 -42.662  25.831  1.00  0.00     0.049 A 
ATOM     12  C   UNL     1     -20.024 -42.767  23.340  1.00  0.00     0.028 C 
ATOM     13  C   UNL     1     -20.134 -41.469  22.507  1.00  0.00     0.039 C 
ATOM     14  C   UNL     1     -20.686 -40.287  23.287  1.00  0.00    -0.076 C 
ATOM     15  C   UNL     1     -20.610 -38.955  22.601  1.00  0.00     0.039 C 
ATOM     16  C   UNL     1     -21.197 -40.434  24.524  1.00  0.00    -0.024 C 
ATOM     17  C   UNL     1     -21.300 -41.778  25.218  1.00  0.00     0.018 C 
ATOM     18  C   UNL     1     -20.127 -41.977  26.198  1.00  0.00     0.062 C 
ATOM     19  C   UNL     1     -21.291 -42.917  24.194  1.00  0.00     0.017 C 
ATOM     20  H   UNL     1     -17.788 -41.989  27.259  1.00  0.00     0.166 HD
ENDROOT
BRANCH   4  21
ATOM     21  N   UNL     1     -17.445 -43.509  22.373  1.00  0.00    -0.300 NA
ATOM     22  H   UNL     1     -17.366 -42.735  21.717  1.00  0.00     0.188 HD
ENDBRANCH   4  21
TORSDOF 1
ENDMDL
MODEL 8
REMARK VINA RESULT:    -8.280      4.977      9.636
REMARK INTER + INTRA:          -8.522
REMARK INTER:                  -8.522
REMARK INTRA:                   0.000
REMARK UNBOUND:                 0.000
REMARK SMILES CC1=C[C@@H]2Cc3[nH]c4cc(Cl)ccc4c(=N)c3[C@H](C1)C2
REMARK SMILES IDX 7 1 6 2 17 3 15 4 14 5 13 6 12 7 10 8 11 9 9 10 8 11 18 12
REMARK SMILES IDX 19 13 2 14 1 15 3 16 4 17 5 18 20 19 16 21
REMARK H PARENT 7 20 16 22
ROOT
ATOM      1  N   UNL     1     -20.248 -42.164  25.821  1.00  0.00    -0.358 N 
ATOM      2  C   UNL     1     -20.650 -42.125  24.505  1.00  0.00     0.021 A 
ATOM      3  C   UNL     1     -19.809 -42.348  23.473  1.00  0.00     0.000 A 
ATOM      4  C   UNL     1     -18.364 -42.638  23.766  1.00  0.00     0.068 A 
ATOM      5  C   UNL     1     -17.930 -42.591  25.199  1.00  0.00     0.023 A 
ATOM      6  C   UNL     1     -16.593 -42.784  25.581  1.00  0.00     0.014 A 
ATOM      7  C   UNL     1     -16.235 -42.740  26.931  1.00  0.00     0.021 A 
ATOM      8  C   UNL     1     -17.207 -42.507  27.899  1.00  0.00     0.043 A 
ATOM      9  Cl  UNL     1     -16.765 -42.464  29.561  1.00  0.00    -0.084 Cl
ATOM     10  C   UNL     1     -18.537 -42.309  27.532  1.00  0.00     0.047 A 
ATOM     11  C   UNL     1     -18.905 -42.333  26.181  1.00  0.00     0.049 A 
ATOM     12  C   UNL     1     -20.254 -42.337  22.018  1.00  0.00     0.028 C 
ATOM     13  C   UNL     1     -19.941 -40.976  21.355  1.00  0.00     0.039 C 
ATOM     14  C   UNL     1     -20.942 -39.885  21.698  1.00  0.00    -0.076 C 
ATOM     15  C   UNL     1     -20.574 -38.497  21.265  1.00  0.00     0.039 C 
ATOM     16  C   UNL     1     -22.082 -40.156  22.362  1.00  0.00    -0.024 C 
ATOM     17  C   UNL     1     -22.476 -41.557  22.783  1.00  0.00     0.018 C 
ATOM     18  C   UNL     1     -22.119 -41.803  24.263  1.00  0.00     0.062 C 
ATOM     19  C   UNL     1     -21.763 -42.602  21.920  1.00  0.00     0.017 C 
ATOM     20  H   UNL     1     -20.898 -41.831  26.523  1.00  0.00     0.166 HD
ENDROOT
BRANCH   4  21
ATOM     21  N   UNL     1     -17.565 -42.909  22.778  1.00  0.00    -0.300 NA
ATOM     22  H   UNL     1     -17.932 -43.618  22.148  1.00  0.00     0.188 HD
ENDBRANCH   4  21
TORSDOF 1
ENDMDL
MODEL 9
REMARK VINA RESULT:    -8.232      4.717      5.782
REMARK INTER + INTRA:          -8.473
REMARK INTER:                  -8.473
REMARK INTRA:                   0.000
REMARK UNBOUND:                 0.000
REMARK SMILES CC1=C[C@@H]2Cc3[nH]c4cc(Cl)ccc4c(=N)c3[C@H](C1)C2
REMARK SMILES IDX 7 1 6 2 17 3 15 4 14 5 13 6 12 7 10 8 11 9 9 10 8 11 18 12
REMARK SMILES IDX 19 13 2 14 1 15 3 16 4 17 5 18 20 19 16 21
REMARK H PARENT 7 20 16 22
ROOT
ATOM      1  N   UNL     1     -11.961 -42.418  31.388  1.00  0.00    -0.358 N 
ATOM      2  C   UNL     1     -11.283 -43.323  30.602  1.00  0.00     0.021 A 
ATOM      3  C   UNL     1     -11.563 -44.644  30.595  1.00  0.00     0.000 A 
ATOM      4  C   UNL     1     -12.653 -45.158  31.492  1.00  0.00     0.068 A 
ATOM      5  C   UNL     1     -13.320 -44.170  32.401  1.00  0.00     0.023 A 
ATOM      6  C   UNL     1     -14.306 -44.551  33.323  1.00  0.00     0.014 A 
ATOM      7  C   UNL     1     -14.907 -43.594  34.146  1.00  0.00     0.021 A 
ATOM      8  C   UNL     1     -14.527 -42.258  34.046  1.00  0.00     0.043 A 
ATOM      9  Cl  UNL     1     -15.276 -41.081  35.052  1.00  0.00    -0.084 Cl
ATOM     10  C   UNL     1     -13.546 -41.868  33.137  1.00  0.00     0.047 A 
ATOM     11  C   UNL     1     -12.924 -42.822  32.321  1.00  0.00     0.049 A 
ATOM     12  C   UNL     1     -10.839 -45.644  29.706  1.00  0.00     0.028 C 
ATOM     13  C   UNL     1      -9.724 -46.374  30.490  1.00  0.00     0.039 C 
ATOM     14  C   UNL     1      -8.454 -45.554  30.650  1.00  0.00    -0.076 C 
ATOM     15  C   UNL     1      -7.423 -46.118  31.583  1.00  0.00     0.039 C 
ATOM     16  C   UNL     1      -8.279 -44.389  30.000  1.00  0.00    -0.024 C 
ATOM     17  C   UNL     1      -9.303 -43.821  29.036  1.00  0.00     0.018 C 
ATOM     18  C   UNL     1     -10.172 -42.753  29.731  1.00  0.00     0.062 C 
ATOM     19  C   UNL     1     -10.213 -44.930  28.500  1.00  0.00     0.017 C 
ATOM     20  H   UNL     1     -11.586 -41.479  31.454  1.00  0.00     0.166 HD
ENDROOT
BRANCH   4  21
ATOM     21  N   UNL     1     -12.964 -46.419  31.445  1.00  0.00    -0.300 NA
ATOM     22  H   UNL     1     -13.967 -46.584  31.431  1.00  0.00     0.188 HD
ENDBRANCH   4  21
TORSDOF 1
ENDMDL
