MODEL 1
REMARK VINA RESULT:   -10.191      0.000      0.000
REMARK INTER + INTRA:         -15.266
REMARK INTER:                 -14.063
REMARK INTRA:                  -1.203
REMARK UNBOUND:                -1.203
REMARK SMILES COc1cccc([C@@H]2CC(c3cc(F)ccc3F)=NN2c2ccc(S(N)(=O)=O)cc2)c1OC
REMARK SMILES IDX 21 1 22 2 23 3 24 4 29 5 30 6 20 7 8 8 9 9 10 10 19 11 7 12
REMARK SMILES IDX 3 13 4 14 31 15 5 16 6 17 2 18 1 19 32 20 33 21 11 22 12 23
REMARK SMILES IDX 17 24 13 25 16 26 15 27 18 28 14 29 25 30 27 31 28 32 26 33
REMARK H PARENT 26 34 26 35
ROOT
ATOM      1  C   UNL     1     -17.461 -42.554  25.265  1.00  0.00     0.060 A 
ATOM      2  C   UNL     1     -16.430 -43.130  24.501  1.00  0.00     0.029 A 
ATOM      3  C   UNL     1     -15.237 -43.572  25.088  1.00  0.00     0.024 A 
ATOM      4  C   UNL     1     -15.053 -43.434  26.463  1.00  0.00     0.082 A 
ATOM      5  C   UNL     1     -16.056 -42.877  27.253  1.00  0.00     0.024 A 
ATOM      6  C   UNL     1     -17.240 -42.440  26.650  1.00  0.00     0.029 A 
ENDROOT
BRANCH   1   7
ATOM      7  N   UNL     1     -18.651 -42.104  24.693  1.00  0.00    -0.257 N 
ATOM      8  C   UNL     1     -19.869 -41.744  25.429  1.00  0.00     0.148 C 
ATOM      9  C   UNL     1     -20.642 -40.907  24.410  1.00  0.00     0.091 C 
ATOM     10  C   UNL     1     -19.836 -41.171  23.168  1.00  0.00     0.074 C 
ATOM     11  N   UNL     1     -18.722 -41.810  23.362  1.00  0.00    -0.176 NA
BRANCH   8  12
ATOM     12  C   UNL     1     -20.691 -42.947  25.877  1.00  0.00     0.023 A 
ATOM     13  C   UNL     1     -22.393 -43.901  27.368  1.00  0.00     0.161 A 
ATOM     14  C   UNL     1     -22.236 -45.137  26.735  1.00  0.00     0.050 A 
ATOM     15  C   UNL     1     -21.644 -42.799  26.908  1.00  0.00     0.166 A 
ATOM     16  C   UNL     1     -21.332 -45.284  25.683  1.00  0.00     0.004 A 
ATOM     17  C   UNL     1     -20.566 -44.202  25.259  1.00  0.00     0.010 A 
BRANCH  13  18
ATOM     18  O   UNL     1     -23.234 -43.684  28.429  1.00  0.00    -0.493 OA
ATOM     19  C   UNL     1     -23.705 -44.822  29.139  1.00  0.00     0.278 C 
ENDBRANCH  13  18
BRANCH  15  20
ATOM     20  O   UNL     1     -21.738 -41.542  27.462  1.00  0.00    -0.492 OA
ATOM     21  C   UNL     1     -22.948 -40.861  27.133  1.00  0.00     0.278 C 
ENDBRANCH  15  20
ENDBRANCH   8  12
BRANCH  10  22
ATOM     22  C   UNL     1     -20.266 -40.712  21.829  1.00  0.00     0.037 A 
ATOM     23  C   UNL     1     -20.234 -39.340  21.548  1.00  0.00     0.052 A 
ATOM     24  C   UNL     1     -20.705 -41.597  20.841  1.00  0.00     0.132 A 
ATOM     25  C   UNL     1     -20.632 -38.883  20.295  1.00  0.00     0.124 A 
ATOM     26  C   UNL     1     -21.104 -41.132  19.587  1.00  0.00     0.043 A 
ATOM     27  C   UNL     1     -21.066 -39.767  19.312  1.00  0.00     0.042 A 
ATOM     28  F   UNL     1     -20.768 -42.917  21.065  1.00  0.00    -0.206 F 
ATOM     29  F   UNL     1     -20.596 -37.572  20.030  1.00  0.00    -0.207 F 
ENDBRANCH  10  22
ENDBRANCH   1   7
BRANCH   4  30
ATOM     30  S   UNL     1     -13.564 -44.015  27.214  1.00  0.00     0.238 S 
ATOM     31  O   UNL     1     -12.602 -42.938  27.267  1.00  0.00    -0.207 OA
ATOM     32  O   UNL     1     -13.235 -45.318  26.685  1.00  0.00    -0.207 OA
BRANCH  30  33
ATOM     33  N   UNL     1     -14.051 -44.272  28.800  1.00  0.00    -0.225 NA
ATOM     34  H   UNL     1     -13.480 -43.712  29.432  1.00  0.00     0.137 HD
ATOM     35  H   UNL     1     -14.041 -45.272  29.006  1.00  0.00     0.137 HD
ENDBRANCH  30  33
ENDBRANCH   4  30
TORSDOF 7
ENDMDL
MODEL 2
REMARK VINA RESULT:    -9.151      4.543      7.432
REMARK INTER + INTRA:         -13.831
REMARK INTER:                 -12.303
REMARK INTRA:                  -1.528
REMARK UNBOUND:                -1.203
REMARK SMILES COc1cccc([C@@H]2CC(c3cc(F)ccc3F)=NN2c2ccc(S(N)(=O)=O)cc2)c1OC
REMARK SMILES IDX 21 1 22 2 23 3 24 4 29 5 30 6 20 7 8 8 9 9 10 10 19 11 7 12
REMARK SMILES IDX 3 13 4 14 31 15 5 16 6 17 2 18 1 19 32 20 33 21 11 22 12 23
REMARK SMILES IDX 17 24 13 25 16 26 15 27 18 28 14 29 25 30 27 31 28 32 26 33
REMARK H PARENT 26 34 26 35
ROOT
ATOM      1  C   UNL     1     -20.905 -40.721  22.531  1.00  0.00     0.060 A 
ATOM      2  C   UNL     1     -22.075 -41.092  21.846  1.00  0.00     0.029 A 
ATOM      3  C   UNL     1     -22.621 -40.291  20.834  1.00  0.00     0.024 A 
ATOM      4  C   UNL     1     -22.001 -39.089  20.496  1.00  0.00     0.082 A 
ATOM      5  C   UNL     1     -20.834 -38.694  21.146  1.00  0.00     0.024 A 
ATOM      6  C   UNL     1     -20.304 -39.506  22.155  1.00  0.00     0.029 A 
ENDROOT
BRANCH   1   7
ATOM      7  N   UNL     1     -20.354 -41.505  23.545  1.00  0.00    -0.257 N 
ATOM      8  C   UNL     1     -21.068 -42.532  24.313  1.00  0.00     0.148 C 
ATOM      9  C   UNL     1     -19.928 -43.359  24.908  1.00  0.00     0.091 C 
ATOM     10  C   UNL     1     -18.752 -42.478  24.588  1.00  0.00     0.074 C 
ATOM     11  N   UNL     1     -19.015 -41.475  23.804  1.00  0.00    -0.176 NA
BRANCH   8  12
ATOM     12  C   UNL     1     -21.959 -41.966  25.412  1.00  0.00     0.023 A 
ATOM     13  C   UNL     1     -24.086 -42.016  26.639  1.00  0.00     0.161 A 
ATOM     14  C   UNL     1     -23.637 -40.959  27.435  1.00  0.00     0.050 A 
ATOM     15  C   UNL     1     -23.225 -42.541  25.653  1.00  0.00     0.166 A 
ATOM     16  C   UNL     1     -22.368 -40.414  27.239  1.00  0.00     0.004 A 
ATOM     17  C   UNL     1     -21.537 -40.911  26.238  1.00  0.00     0.010 A 
BRANCH  13  18
ATOM     18  O   UNL     1     -25.329 -42.582  26.746  1.00  0.00    -0.493 OA
ATOM     19  C   UNL     1     -25.642 -43.260  27.956  1.00  0.00     0.278 C 
ENDBRANCH  13  18
BRANCH  15  20
ATOM     20  O   UNL     1     -23.576 -43.586  24.828  1.00  0.00    -0.492 OA
ATOM     21  C   UNL     1     -23.339 -44.872  25.400  1.00  0.00     0.278 C 
ENDBRANCH  15  20
ENDBRANCH   8  12
BRANCH  10  22
ATOM     22  C   UNL     1     -17.392 -42.748  25.103  1.00  0.00     0.037 A 
ATOM     23  C   UNL     1     -16.416 -43.209  24.210  1.00  0.00     0.052 A 
ATOM     24  C   UNL     1     -17.052 -42.565  26.446  1.00  0.00     0.132 A 
ATOM     25  C   UNL     1     -15.128 -43.470  24.670  1.00  0.00     0.124 A 
ATOM     26  C   UNL     1     -15.759 -42.829  26.900  1.00  0.00     0.043 A 
ATOM     27  C   UNL     1     -14.791 -43.284  26.006  1.00  0.00     0.042 A 
ATOM     28  F   UNL     1     -17.952 -42.140  27.342  1.00  0.00    -0.206 F 
ATOM     29  F   UNL     1     -14.198 -43.907  23.812  1.00  0.00    -0.207 F 
ENDBRANCH  10  22
ENDBRANCH   1   7
BRANCH   4  30
ATOM     30  S   UNL     1     -22.667 -38.088  19.202  1.00  0.00     0.238 S 
ATOM     31  O   UNL     1     -24.096 -37.967  19.377  1.00  0.00    -0.207 OA
ATOM     32  O   UNL     1     -22.074 -38.474  17.943  1.00  0.00    -0.207 OA
BRANCH  30  33
ATOM     33  N   UNL     1     -22.031 -36.578  19.567  1.00  0.00    -0.225 NA
ATOM     34  H   UNL     1     -22.726 -35.856  19.381  1.00  0.00     0.137 HD
ATOM     35  H   UNL     1     -21.151 -36.446  19.067  1.00  0.00     0.137 HD
ENDBRANCH  30  33
ENDBRANCH   4  30
TORSDOF 7
ENDMDL
MODEL 3
REMARK VINA RESULT:    -8.815      3.311      5.985
REMARK INTER + INTRA:         -13.368
REMARK INTER:                 -12.096
REMARK INTRA:                  -1.272
REMARK UNBOUND:                -1.203
REMARK SMILES COc1cccc([C@@H]2CC(c3cc(F)ccc3F)=NN2c2ccc(S(N)(=O)=O)cc2)c1OC
REMARK SMILES IDX 21 1 22 2 23 3 24 4 29 5 30 6 20 7 8 8 9 9 10 10 19 11 7 12
REMARK SMILES IDX 3 13 4 14 31 15 5 16 6 17 2 18 1 19 32 20 33 21 11 22 12 23
REMARK SMILES IDX 17 24 13 25 16 26 15 27 18 28 14 29 25 30 27 31 28 32 26 33
REMARK H PARENT 26 34 26 35
ROOT
ATOM      1  C   UNL     1     -19.245 -42.036  26.239  1.00  0.00     0.060 A 
ATOM      2  C   UNL     1     -18.589 -42.076  27.483  1.00  0.00     0.029 A 
ATOM      3  C   UNL     1     -17.249 -42.467  27.596  1.00  0.00     0.024 A 
ATOM      4  C   UNL     1     -16.540 -42.837  26.454  1.00  0.00     0.082 A 
ATOM      5  C   UNL     1     -17.153 -42.800  25.204  1.00  0.00     0.024 A 
ATOM      6  C   UNL     1     -18.493 -42.408  25.110  1.00  0.00     0.029 A 
ENDROOT
BRANCH   1   7
ATOM      7  N   UNL     1     -20.581 -41.655  26.112  1.00  0.00    -0.257 N 
ATOM      8  C   UNL     1     -21.510 -42.133  25.081  1.00  0.00     0.148 C 
ATOM      9  C   UNL     1     -22.877 -41.790  25.677  1.00  0.00     0.091 C 
ATOM     10  C   UNL     1     -22.463 -40.922  26.832  1.00  0.00     0.074 C 
ATOM     11  N   UNL     1     -21.186 -40.892  27.068  1.00  0.00    -0.176 NA
BRANCH   8  12
ATOM     12  C   UNL     1     -21.324 -41.457  23.728  1.00  0.00     0.023 A 
ATOM     13  C   UNL     1     -21.376 -41.595  21.277  1.00  0.00     0.161 A 
ATOM     14  C   UNL     1     -20.998 -40.251  21.206  1.00  0.00     0.050 A 
ATOM     15  C   UNL     1     -21.574 -42.182  22.543  1.00  0.00     0.166 A 
ATOM     16  C   UNL     1     -20.796 -39.511  22.370  1.00  0.00     0.004 A 
ATOM     17  C   UNL     1     -20.955 -40.107  23.618  1.00  0.00     0.010 A 
BRANCH  13  18
ATOM     18  O   UNL     1     -21.561 -42.399  20.181  1.00  0.00    -0.493 OA
ATOM     19  C   UNL     1     -22.665 -42.112  19.333  1.00  0.00     0.278 C 
ENDBRANCH  13  18
BRANCH  15  20
ATOM     20  O   UNL     1     -21.954 -43.495  22.712  1.00  0.00    -0.492 OA
ATOM     21  C   UNL     1     -23.358 -43.708  22.567  1.00  0.00     0.278 C 
ENDBRANCH  15  20
ENDBRANCH   8  12
BRANCH  10  22
ATOM     22  C   UNL     1     -23.441 -40.179  27.658  1.00  0.00     0.037 A 
ATOM     23  C   UNL     1     -23.494 -38.784  27.544  1.00  0.00     0.052 A 
ATOM     24  C   UNL     1     -24.307 -40.820  28.548  1.00  0.00     0.132 A 
ATOM     25  C   UNL     1     -24.406 -38.063  28.309  1.00  0.00     0.124 A 
ATOM     26  C   UNL     1     -25.219 -40.091  29.312  1.00  0.00     0.043 A 
ATOM     27  C   UNL     1     -25.269 -38.704  29.191  1.00  0.00     0.042 A 
ATOM     28  F   UNL     1     -24.287 -42.151  28.704  1.00  0.00    -0.206 F 
ATOM     29  F   UNL     1     -24.455 -36.730  28.193  1.00  0.00    -0.207 F 
ENDBRANCH  10  22
ENDBRANCH   1   7
BRANCH   4  30
ATOM     30  S   UNL     1     -14.842 -43.304  26.585  1.00  0.00     0.238 S 
ATOM     31  O   UNL     1     -14.698 -44.307  27.615  1.00  0.00    -0.207 OA
ATOM     32  O   UNL     1     -14.013 -42.121  26.539  1.00  0.00    -0.207 OA
BRANCH  30  33
ATOM     33  N   UNL     1     -14.586 -44.101  25.131  1.00  0.00    -0.225 NA
ATOM     34  H   UNL     1     -14.117 -43.479  24.473  1.00  0.00     0.137 HD
ATOM     35  H   UNL     1     -15.469 -44.481  24.786  1.00  0.00     0.137 HD
ENDBRANCH  30  33
ENDBRANCH   4  30
TORSDOF 7
ENDMDL
MODEL 4
REMARK VINA RESULT:    -8.617      5.241      8.445
REMARK INTER + INTRA:         -13.094
REMARK INTER:                 -11.662
REMARK INTRA:                  -1.432
REMARK UNBOUND:                -1.203
REMARK SMILES COc1cccc([C@@H]2CC(c3cc(F)ccc3F)=NN2c2ccc(S(N)(=O)=O)cc2)c1OC
REMARK SMILES IDX 21 1 22 2 23 3 24 4 29 5 30 6 20 7 8 8 9 9 10 10 19 11 7 12
REMARK SMILES IDX 3 13 4 14 31 15 5 16 6 17 2 18 1 19 32 20 33 21 11 22 12 23
REMARK SMILES IDX 17 24 13 25 16 26 15 27 18 28 14 29 25 30 27 31 28 32 26 33
REMARK H PARENT 26 34 26 35
ROOT
ATOM      1  C   UNL     1     -21.431 -43.444  21.427  1.00  0.00     0.060 A 
ATOM      2  C   UNL     1     -22.440 -44.151  22.104  1.00  0.00     0.029 A 
ATOM      3  C   UNL     1     -23.309 -45.020  21.431  1.00  0.00     0.024 A 
ATOM      4  C   UNL     1     -23.185 -45.188  20.053  1.00  0.00     0.082 A 
ATOM      5  C   UNL     1     -22.190 -44.513  19.350  1.00  0.00     0.024 A 
ATOM      6  C   UNL     1     -21.332 -43.647  20.038  1.00  0.00     0.029 A 
ENDROOT
BRANCH   1   7
ATOM      7  N   UNL     1     -20.563 -42.570  22.083  1.00  0.00    -0.257 N 
ATOM      8  C   UNL     1     -20.914 -41.237  22.587  1.00  0.00     0.148 C 
ATOM      9  C   UNL     1     -19.791 -40.949  23.583  1.00  0.00     0.091 C 
ATOM     10  C   UNL     1     -18.842 -42.071  23.261  1.00  0.00     0.074 C 
ATOM     11  N   UNL     1     -19.311 -42.971  22.450  1.00  0.00    -0.176 NA
BRANCH   8  12
ATOM     12  C   UNL     1     -20.966 -40.166  21.503  1.00  0.00     0.023 A 
ATOM     13  C   UNL     1     -22.176 -38.335  20.404  1.00  0.00     0.161 A 
ATOM     14  C   UNL     1     -21.103 -38.172  19.523  1.00  0.00     0.050 A 
ATOM     15  C   UNL     1     -22.084 -39.310  21.417  1.00  0.00     0.166 A 
ATOM     16  C   UNL     1     -19.971 -38.979  19.629  1.00  0.00     0.004 A 
ATOM     17  C   UNL     1     -19.903 -39.967  20.607  1.00  0.00     0.010 A 
BRANCH  13  18
ATOM     18  O   UNL     1     -23.335 -37.606  20.344  1.00  0.00    -0.493 OA
ATOM     19  C   UNL     1     -23.316 -36.399  19.592  1.00  0.00     0.278 C 
ENDBRANCH  13  18
BRANCH  15  20
ATOM     20  O   UNL     1     -23.086 -39.537  22.335  1.00  0.00    -0.492 OA
ATOM     21  C   UNL     1     -24.107 -40.415  21.862  1.00  0.00     0.278 C 
ENDBRANCH  15  20
ENDBRANCH   8  12
BRANCH  10  22
ATOM     22  C   UNL     1     -17.487 -42.158  23.847  1.00  0.00     0.037 A 
ATOM     23  C   UNL     1     -17.345 -42.696  25.133  1.00  0.00     0.052 A 
ATOM     24  C   UNL     1     -16.349 -41.720  23.166  1.00  0.00     0.132 A 
ATOM     25  C   UNL     1     -16.080 -42.790  25.706  1.00  0.00     0.124 A 
ATOM     26  C   UNL     1     -15.083 -41.817  23.746  1.00  0.00     0.043 A 
ATOM     27  C   UNL     1     -14.949 -42.357  25.024  1.00  0.00     0.042 A 
ATOM     28  F   UNL     1     -16.432 -41.185  21.940  1.00  0.00    -0.206 F 
ATOM     29  F   UNL     1     -15.950 -43.309  26.933  1.00  0.00    -0.207 F 
ENDBRANCH  10  22
ENDBRANCH   1   7
BRANCH   4  30
ATOM     30  S   UNL     1     -24.257 -46.304  19.203  1.00  0.00     0.238 S 
ATOM     31  O   UNL     1     -25.154 -45.554  18.355  1.00  0.00    -0.207 OA
ATOM     32  O   UNL     1     -24.729 -47.313  20.122  1.00  0.00    -0.207 OA
BRANCH  30  33
ATOM     33  N   UNL     1     -23.195 -47.087  18.166  1.00  0.00    -0.225 NA
ATOM     34  H   UNL     1     -22.421 -46.466  17.931  1.00  0.00     0.137 HD
ATOM     35  H   UNL     1     -23.703 -47.443  17.356  1.00  0.00     0.137 HD
ENDBRANCH  30  33
ENDBRANCH   4  30
TORSDOF 7
ENDMDL
MODEL 5
REMARK VINA RESULT:    -8.486      4.503      7.096
REMARK INTER + INTRA:         -12.913
REMARK INTER:                 -11.501
REMARK INTRA:                  -1.413
REMARK UNBOUND:                -1.203
REMARK SMILES COc1cccc([C@@H]2CC(c3cc(F)ccc3F)=NN2c2ccc(S(N)(=O)=O)cc2)c1OC
REMARK SMILES IDX 21 1 22 2 23 3 24 4 29 5 30 6 20 7 8 8 9 9 10 10 19 11 7 12
REMARK SMILES IDX 3 13 4 14 31 15 5 16 6 17 2 18 1 19 32 20 33 21 11 22 12 23
REMARK SMILES IDX 17 24 13 25 16 26 15 27 18 28 14 29 25 30 27 31 28 32 26 33
REMARK H PARENT 26 34 26 35
ROOT
ATOM      1  C   UNL     1     -22.303 -43.990  26.834  1.00  0.00     0.060 A 
ATOM      2  C   UNL     1     -22.325 -44.564  28.118  1.00  0.00     0.029 A 
ATOM      3  C   UNL     1     -23.324 -45.466  28.504  1.00  0.00     0.024 A 
ATOM      4  C   UNL     1     -24.333 -45.805  27.604  1.00  0.00     0.082 A 
ATOM      5  C   UNL     1     -24.338 -45.265  26.320  1.00  0.00     0.024 A 
ATOM      6  C   UNL     1     -23.333 -44.364  25.951  1.00  0.00     0.029 A 
ENDROOT
BRANCH   1   7
ATOM      7  N   UNL     1     -21.318 -43.084  26.438  1.00  0.00    -0.257 N 
ATOM      8  C   UNL     1     -21.268 -41.664  26.806  1.00  0.00     0.148 C 
ATOM      9  C   UNL     1     -19.811 -41.297  26.521  1.00  0.00     0.091 C 
ATOM     10  C   UNL     1     -19.358 -42.522  25.776  1.00  0.00     0.074 C 
ATOM     11  N   UNL     1     -20.204 -43.507  25.774  1.00  0.00    -0.176 NA
BRANCH   8  12
ATOM     12  C   UNL     1     -22.216 -40.788  25.997  1.00  0.00     0.023 A 
ATOM     13  C   UNL     1     -24.150 -39.277  25.929  1.00  0.00     0.161 A 
ATOM     14  C   UNL     1     -23.989 -39.152  24.546  1.00  0.00     0.050 A 
ATOM     15  C   UNL     1     -23.236 -40.067  26.655  1.00  0.00     0.166 A 
ATOM     16  C   UNL     1     -22.955 -39.821  23.892  1.00  0.00     0.004 A 
ATOM     17  C   UNL     1     -22.078 -40.632  24.608  1.00  0.00     0.010 A 
BRANCH  13  18
ATOM     18  O   UNL     1     -25.160 -38.680  26.640  1.00  0.00    -0.493 OA
ATOM     19  C   UNL     1     -24.862 -37.463  27.311  1.00  0.00     0.278 C 
ENDBRANCH  13  18
BRANCH  15  20
ATOM     20  O   UNL     1     -23.310 -40.241  28.019  1.00  0.00    -0.492 OA
ATOM     21  C   UNL     1     -24.316 -41.169  28.423  1.00  0.00     0.278 C 
ENDBRANCH  15  20
ENDBRANCH   8  12
BRANCH  10  22
ATOM     22  C   UNL     1     -18.036 -42.608  25.118  1.00  0.00     0.037 A 
ATOM     23  C   UNL     1     -16.892 -42.704  25.922  1.00  0.00     0.052 A 
ATOM     24  C   UNL     1     -17.890 -42.592  23.729  1.00  0.00     0.132 A 
ATOM     25  C   UNL     1     -15.636 -42.788  25.327  1.00  0.00     0.124 A 
ATOM     26  C   UNL     1     -16.628 -42.676  23.139  1.00  0.00     0.043 A 
ATOM     27  C   UNL     1     -15.494 -42.776  23.944  1.00  0.00     0.042 A 
ATOM     28  F   UNL     1     -18.951 -42.488  22.917  1.00  0.00    -0.206 F 
ATOM     29  F   UNL     1     -14.547 -42.884  26.099  1.00  0.00    -0.207 F 
ENDBRANCH  10  22
ENDBRANCH   1   7
BRANCH   4  30
ATOM     30  S   UNL     1     -25.579 -46.965  28.074  1.00  0.00     0.238 S 
ATOM     31  O   UNL     1     -25.258 -48.262  27.524  1.00  0.00    -0.207 OA
ATOM     32  O   UNL     1     -26.882 -46.361  27.916  1.00  0.00    -0.207 OA
BRANCH  30  33
ATOM     33  N   UNL     1     -25.329 -47.094  29.728  1.00  0.00    -0.225 NA
ATOM     34  H   UNL     1     -25.470 -48.059  30.025  1.00  0.00     0.137 HD
ATOM     35  H   UNL     1     -25.918 -46.419  30.219  1.00  0.00     0.137 HD
ENDBRANCH  30  33
ENDBRANCH   4  30
TORSDOF 7
ENDMDL
MODEL 6
REMARK VINA RESULT:    -8.453      4.637      7.849
REMARK INTER + INTRA:         -12.867
REMARK INTER:                 -11.733
REMARK INTRA:                  -1.134
REMARK UNBOUND:                -1.203
REMARK SMILES COc1cccc([C@@H]2CC(c3cc(F)ccc3F)=NN2c2ccc(S(N)(=O)=O)cc2)c1OC
REMARK SMILES IDX 21 1 22 2 23 3 24 4 29 5 30 6 20 7 8 8 9 9 10 10 19 11 7 12
REMARK SMILES IDX 3 13 4 14 31 15 5 16 6 17 2 18 1 19 32 20 33 21 11 22 12 23
REMARK SMILES IDX 17 24 13 25 16 26 15 27 18 28 14 29 25 30 27 31 28 32 26 33
REMARK H PARENT 26 34 26 35
ROOT
ATOM      1  C   UNL     1     -21.250 -40.841  25.204  1.00  0.00     0.060 A 
ATOM      2  C   UNL     1     -22.354 -40.288  24.530  1.00  0.00     0.029 A 
ATOM      3  C   UNL     1     -23.490 -39.845  25.219  1.00  0.00     0.024 A 
ATOM      4  C   UNL     1     -23.543 -39.958  26.607  1.00  0.00     0.082 A 
ATOM      5  C   UNL     1     -22.465 -40.490  27.310  1.00  0.00     0.024 A 
ATOM      6  C   UNL     1     -21.338 -40.930  26.606  1.00  0.00     0.029 A 
ENDROOT
BRANCH   1   7
ATOM      7  N   UNL     1     -20.115 -41.293  24.531  1.00  0.00    -0.257 N 
ATOM      8  C   UNL     1     -19.740 -40.938  23.157  1.00  0.00     0.148 C 
ATOM      9  C   UNL     1     -18.254 -41.299  23.112  1.00  0.00     0.091 C 
ATOM     10  C   UNL     1     -18.116 -42.058  24.402  1.00  0.00     0.074 C 
ATOM     11  N   UNL     1     -19.154 -42.010  25.182  1.00  0.00    -0.176 NA
BRANCH   8  12
ATOM     12  C   UNL     1     -20.517 -41.704  22.093  1.00  0.00     0.023 A 
ATOM     13  C   UNL     1     -21.623 -41.732  19.901  1.00  0.00     0.161 A 
ATOM     14  C   UNL     1     -21.947 -43.078  20.096  1.00  0.00     0.050 A 
ATOM     15  C   UNL     1     -20.873 -41.061  20.888  1.00  0.00     0.166 A 
ATOM     16  C   UNL     1     -21.557 -43.738  21.261  1.00  0.00     0.004 A 
ATOM     17  C   UNL     1     -20.851 -43.058  22.250  1.00  0.00     0.010 A 
BRANCH  13  18
ATOM     18  O   UNL     1     -21.998 -41.005  18.801  1.00  0.00    -0.493 OA
ATOM     19  C   UNL     1     -23.389 -40.813  18.582  1.00  0.00     0.278 C 
ENDBRANCH  13  18
BRANCH  15  20
ATOM     20  O   UNL     1     -20.501 -39.740  20.779  1.00  0.00    -0.492 OA
ATOM     21  C   UNL     1     -21.526 -38.823  21.160  1.00  0.00     0.278 C 
ENDBRANCH  15  20
ENDBRANCH   8  12
BRANCH  10  22
ATOM     22  C   UNL     1     -16.879 -42.781  24.770  1.00  0.00     0.037 A 
ATOM     23  C   UNL     1     -16.187 -43.477  23.770  1.00  0.00     0.052 A 
ATOM     24  C   UNL     1     -16.382 -42.797  26.076  1.00  0.00     0.132 A 
ATOM     25  C   UNL     1     -15.019 -44.165  24.090  1.00  0.00     0.124 A 
ATOM     26  C   UNL     1     -15.212 -43.489  26.390  1.00  0.00     0.043 A 
ATOM     27  C   UNL     1     -14.525 -44.176  25.390  1.00  0.00     0.042 A 
ATOM     28  F   UNL     1     -17.014 -42.159  27.071  1.00  0.00    -0.206 F 
ATOM     29  F   UNL     1     -14.359 -44.825  23.131  1.00  0.00    -0.207 F 
ENDBRANCH  10  22
ENDBRANCH   1   7
BRANCH   4  30
ATOM     30  S   UNL     1     -24.960 -39.374  27.484  1.00  0.00     0.238 S 
ATOM     31  O   UNL     1     -24.533 -38.551  28.593  1.00  0.00    -0.207 OA
ATOM     32  O   UNL     1     -25.905 -40.454  27.646  1.00  0.00    -0.207 OA
BRANCH  30  33
ATOM     33  N   UNL     1     -25.650 -38.322  26.373  1.00  0.00    -0.225 NA
ATOM     34  H   UNL     1     -26.510 -37.931  26.755  1.00  0.00     0.137 HD
ATOM     35  H   UNL     1     -25.771 -38.798  25.478  1.00  0.00     0.137 HD
ENDBRANCH  30  33
ENDBRANCH   4  30
TORSDOF 7
ENDMDL
MODEL 7
REMARK VINA RESULT:    -8.282      3.640      6.678
REMARK INTER + INTRA:         -12.632
REMARK INTER:                 -11.322
REMARK INTRA:                  -1.310
REMARK UNBOUND:                -1.203
REMARK SMILES COc1cccc([C@@H]2CC(c3cc(F)ccc3F)=NN2c2ccc(S(N)(=O)=O)cc2)c1OC
REMARK SMILES IDX 21 1 22 2 23 3 24 4 29 5 30 6 20 7 8 8 9 9 10 10 19 11 7 12
REMARK SMILES IDX 3 13 4 14 31 15 5 16 6 17 2 18 1 19 32 20 33 21 11 22 12 23
REMARK SMILES IDX 17 24 13 25 16 26 15 27 18 28 14 29 25 30 27 31 28 32 26 33
REMARK H PARENT 26 34 26 35
ROOT
ATOM      1  C   UNL     1     -19.746 -41.878  25.024  1.00  0.00     0.060 A 
ATOM      2  C   UNL     1     -18.888 -42.191  26.092  1.00  0.00     0.029 A 
ATOM      3  C   UNL     1     -17.525 -42.448  25.891  1.00  0.00     0.024 A 
ATOM      4  C   UNL     1     -16.998 -42.404  24.602  1.00  0.00     0.082 A 
ATOM      5  C   UNL     1     -17.816 -42.087  23.520  1.00  0.00     0.024 A 
ATOM      6  C   UNL     1     -19.175 -41.835  23.739  1.00  0.00     0.029 A 
ENDROOT
BRANCH   1   7
ATOM      7  N   UNL     1     -21.106 -41.627  25.208  1.00  0.00    -0.257 N 
ATOM      8  C   UNL     1     -22.174 -41.977  24.263  1.00  0.00     0.148 C 
ATOM      9  C   UNL     1     -23.427 -41.917  25.137  1.00  0.00     0.091 C 
ATOM     10  C   UNL     1     -22.870 -41.272  26.375  1.00  0.00     0.074 C 
ATOM     11  N   UNL     1     -21.576 -41.153  26.398  1.00  0.00    -0.176 NA
BRANCH   8  12
ATOM     12  C   UNL     1     -22.288 -41.015  23.086  1.00  0.00     0.023 A 
ATOM     13  C   UNL     1     -22.359 -40.653  20.658  1.00  0.00     0.161 A 
ATOM     14  C   UNL     1     -22.502 -39.280  20.881  1.00  0.00     0.050 A 
ATOM     15  C   UNL     1     -22.291 -41.520  21.767  1.00  0.00     0.166 A 
ATOM     16  C   UNL     1     -22.551 -38.775  22.180  1.00  0.00     0.004 A 
ATOM     17  C   UNL     1     -22.443 -39.632  23.271  1.00  0.00     0.010 A 
BRANCH  13  18
ATOM     18  O   UNL     1     -22.269 -41.223  19.415  1.00  0.00    -0.493 OA
ATOM     19  C   UNL     1     -23.395 -41.106  18.554  1.00  0.00     0.278 C 
ENDBRANCH  13  18
BRANCH  15  20
ATOM     20  O   UNL     1     -22.158 -42.885  21.647  1.00  0.00    -0.492 OA
ATOM     21  C   UNL     1     -23.396 -43.565  21.445  1.00  0.00     0.278 C 
ENDBRANCH  15  20
ENDBRANCH   8  12
BRANCH  10  22
ATOM     22  C   UNL     1     -23.728 -40.831  27.497  1.00  0.00     0.037 A 
ATOM     23  C   UNL     1     -24.349 -41.805  28.289  1.00  0.00     0.052 A 
ATOM     24  C   UNL     1     -23.942 -39.481  27.788  1.00  0.00     0.132 A 
ATOM     25  C   UNL     1     -25.160 -41.416  29.352  1.00  0.00     0.124 A 
ATOM     26  C   UNL     1     -24.757 -39.098  28.854  1.00  0.00     0.043 A 
ATOM     27  C   UNL     1     -25.369 -40.072  29.641  1.00  0.00     0.042 A 
ATOM     28  F   UNL     1     -23.383 -38.511  27.051  1.00  0.00    -0.206 F 
ATOM     29  F   UNL     1     -25.748 -42.350  30.108  1.00  0.00    -0.207 F 
ENDBRANCH  10  22
ENDBRANCH   1   7
BRANCH   4  30
ATOM     30  S   UNL     1     -15.276 -42.698  24.344  1.00  0.00     0.238 S 
ATOM     31  O   UNL     1     -15.106 -43.904  23.568  1.00  0.00    -0.207 OA
ATOM     32  O   UNL     1     -14.559 -42.466  25.577  1.00  0.00    -0.207 OA
BRANCH  30  33
ATOM     33  N   UNL     1     -14.856 -41.433  23.324  1.00  0.00    -0.225 NA
ATOM     34  H   UNL     1     -13.851 -41.265  23.377  1.00  0.00     0.137 HD
ATOM     35  H   UNL     1     -15.426 -40.614  23.537  1.00  0.00     0.137 HD
ENDBRANCH  30  33
ENDBRANCH   4  30
TORSDOF 7
ENDMDL
MODEL 8
REMARK VINA RESULT:    -7.979      3.604      5.636
REMARK INTER + INTRA:         -12.213
REMARK INTER:                 -10.963
REMARK INTRA:                  -1.250
REMARK UNBOUND:                -1.203
REMARK SMILES COc1cccc([C@@H]2CC(c3cc(F)ccc3F)=NN2c2ccc(S(N)(=O)=O)cc2)c1OC
REMARK SMILES IDX 21 1 22 2 23 3 24 4 29 5 30 6 20 7 8 8 9 9 10 10 19 11 7 12
REMARK SMILES IDX 3 13 4 14 31 15 5 16 6 17 2 18 1 19 32 20 33 21 11 22 12 23
REMARK SMILES IDX 17 24 13 25 16 26 15 27 18 28 14 29 25 30 27 31 28 32 26 33
REMARK H PARENT 26 34 26 35
ROOT
ATOM      1  C   UNL     1     -19.655 -42.041  25.333  1.00  0.00     0.060 A 
ATOM      2  C   UNL     1     -18.714 -42.258  26.356  1.00  0.00     0.029 A 
ATOM      3  C   UNL     1     -17.357 -42.459  26.076  1.00  0.00     0.024 A 
ATOM      4  C   UNL     1     -16.916 -42.455  24.753  1.00  0.00     0.082 A 
ATOM      5  C   UNL     1     -17.817 -42.232  23.715  1.00  0.00     0.024 A 
ATOM      6  C   UNL     1     -19.171 -42.035  24.012  1.00  0.00     0.029 A 
ENDROOT
BRANCH   1   7
ATOM      7  N   UNL     1     -21.011 -41.846  25.596  1.00  0.00    -0.257 N 
ATOM      8  C   UNL     1     -22.047 -42.886  25.553  1.00  0.00     0.148 C 
ATOM      9  C   UNL     1     -23.187 -42.255  26.353  1.00  0.00     0.091 C 
ATOM     10  C   UNL     1     -22.689 -40.842  26.477  1.00  0.00     0.074 C 
ATOM     11  N   UNL     1     -21.467 -40.653  26.078  1.00  0.00    -0.176 NA
BRANCH   8  12
ATOM     12  C   UNL     1     -22.503 -43.237  24.142  1.00  0.00     0.023 A 
ATOM     13  C   UNL     1     -23.326 -44.914  22.548  1.00  0.00     0.161 A 
ATOM     14  C   UNL     1     -23.360 -43.933  21.553  1.00  0.00     0.050 A 
ATOM     15  C   UNL     1     -22.932 -44.550  23.852  1.00  0.00     0.166 A 
ATOM     16  C   UNL     1     -22.986 -42.620  21.841  1.00  0.00     0.004 A 
ATOM     17  C   UNL     1     -22.560 -42.276  23.120  1.00  0.00     0.010 A 
BRANCH  13  18
ATOM     18  O   UNL     1     -23.645 -46.231  22.338  1.00  0.00    -0.493 OA
ATOM     19  C   UNL     1     -24.990 -46.535  21.993  1.00  0.00     0.278 C 
ENDBRANCH  13  18
BRANCH  15  20
ATOM     20  O   UNL     1     -22.875 -45.445  24.897  1.00  0.00    -0.492 OA
ATOM     21  C   UNL     1     -21.676 -46.217  24.925  1.00  0.00     0.278 C 
ENDBRANCH  15  20
ENDBRANCH   8  12
BRANCH  10  22
ATOM     22  C   UNL     1     -23.517 -39.754  27.040  1.00  0.00     0.037 A 
ATOM     23  C   UNL     1     -23.797 -39.764  28.413  1.00  0.00     0.052 A 
ATOM     24  C   UNL     1     -24.033 -38.722  26.251  1.00  0.00     0.132 A 
ATOM     25  C   UNL     1     -24.574 -38.751  28.967  1.00  0.00     0.124 A 
ATOM     26  C   UNL     1     -24.811 -37.709  26.813  1.00  0.00     0.043 A 
ATOM     27  C   UNL     1     -25.082 -37.723  28.180  1.00  0.00     0.042 A 
ATOM     28  F   UNL     1     -23.806 -38.674  24.931  1.00  0.00    -0.206 F 
ATOM     29  F   UNL     1     -24.835 -38.763  30.280  1.00  0.00    -0.207 F 
ENDBRANCH  10  22
ENDBRANCH   1   7
BRANCH   4  30
ATOM     30  S   UNL     1     -15.202 -42.679  24.395  1.00  0.00     0.238 S 
ATOM     31  O   UNL     1     -15.032 -43.864  23.586  1.00  0.00    -0.207 OA
ATOM     32  O   UNL     1     -14.426 -42.444  25.591  1.00  0.00    -0.207 OA
BRANCH  30  33
ATOM     33  N   UNL     1     -14.886 -41.381  23.380  1.00  0.00    -0.225 NA
ATOM     34  H   UNL     1     -14.876 -40.515  23.918  1.00  0.00     0.137 HD
ATOM     35  H   UNL     1     -15.549 -41.381  22.604  1.00  0.00     0.137 HD
ENDBRANCH  30  33
ENDBRANCH   4  30
TORSDOF 7
ENDMDL
MODEL 9
REMARK VINA RESULT:    -7.911      5.213      8.432
REMARK INTER + INTRA:         -12.119
REMARK INTER:                 -10.656
REMARK INTRA:                  -1.463
REMARK UNBOUND:                -1.203
REMARK SMILES COc1cccc([C@@H]2CC(c3cc(F)ccc3F)=NN2c2ccc(S(N)(=O)=O)cc2)c1OC
REMARK SMILES IDX 21 1 22 2 23 3 24 4 29 5 30 6 20 7 8 8 9 9 10 10 19 11 7 12
REMARK SMILES IDX 3 13 4 14 31 15 5 16 6 17 2 18 1 19 32 20 33 21 11 22 12 23
REMARK SMILES IDX 17 24 13 25 16 26 15 27 18 28 14 29 25 30 27 31 28 32 26 33
REMARK H PARENT 26 34 26 35
ROOT
ATOM      1  C   UNL     1     -21.915 -43.562  22.365  1.00  0.00     0.060 A 
ATOM      2  C   UNL     1     -22.968 -44.314  22.916  1.00  0.00     0.029 A 
ATOM      3  C   UNL     1     -23.749 -45.172  22.132  1.00  0.00     0.024 A 
ATOM      4  C   UNL     1     -23.492 -45.285  20.767  1.00  0.00     0.082 A 
ATOM      5  C   UNL     1     -22.451 -44.564  20.187  1.00  0.00     0.024 A 
ATOM      6  C   UNL     1     -21.681 -43.710  20.985  1.00  0.00     0.029 A 
ENDROOT
BRANCH   1   7
ATOM      7  N   UNL     1     -21.133 -42.698  23.132  1.00  0.00    -0.257 N 
ATOM      8  C   UNL     1     -21.424 -41.282  23.386  1.00  0.00     0.148 C 
ATOM      9  C   UNL     1     -20.556 -40.976  24.607  1.00  0.00     0.091 C 
ATOM     10  C   UNL     1     -19.710 -42.218  24.663  1.00  0.00     0.074 C 
ATOM     11  N   UNL     1     -20.074 -43.167  23.854  1.00  0.00    -0.176 NA
BRANCH   8  12
ATOM     12  C   UNL     1     -21.066 -40.365  22.222  1.00  0.00     0.023 A 
ATOM     13  C   UNL     1     -21.763 -38.702  20.556  1.00  0.00     0.161 A 
ATOM     14  C   UNL     1     -20.451 -38.651  20.077  1.00  0.00     0.050 A 
ATOM     15  C   UNL     1     -22.055 -39.534  21.655  1.00  0.00     0.166 A 
ATOM     16  C   UNL     1     -19.453 -39.431  20.661  1.00  0.00     0.004 A 
ATOM     17  C   UNL     1     -19.756 -40.281  21.722  1.00  0.00     0.010 A 
BRANCH  13  18
ATOM     18  O   UNL     1     -22.804 -37.994  20.015  1.00  0.00    -0.493 OA
ATOM     19  C   UNL     1     -23.164 -38.276  18.669  1.00  0.00     0.278 C 
ENDBRANCH  13  18
BRANCH  15  20
ATOM     20  O   UNL     1     -23.315 -39.643  22.201  1.00  0.00    -0.492 OA
ATOM     21  C   UNL     1     -24.152 -40.580  21.524  1.00  0.00     0.278 C 
ENDBRANCH  15  20
ENDBRANCH   8  12
BRANCH  10  22
ATOM     22  C   UNL     1     -18.566 -42.359  25.590  1.00  0.00     0.037 A 
ATOM     23  C   UNL     1     -17.299 -42.627  25.056  1.00  0.00     0.052 A 
ATOM     24  C   UNL     1     -18.708 -42.240  26.975  1.00  0.00     0.132 A 
ATOM     25  C   UNL     1     -16.206 -42.763  25.907  1.00  0.00     0.124 A 
ATOM     26  C   UNL     1     -17.608 -42.377  27.823  1.00  0.00     0.043 A 
ATOM     27  C   UNL     1     -16.349 -42.640  27.285  1.00  0.00     0.042 A 
ATOM     28  F   UNL     1     -19.900 -41.998  27.536  1.00  0.00    -0.206 F 
ATOM     29  F   UNL     1     -14.997 -43.014  25.392  1.00  0.00    -0.207 F 
ENDBRANCH  10  22
ENDBRANCH   1   7
BRANCH   4  30
ATOM     30  S   UNL     1     -24.454 -46.387  19.778  1.00  0.00     0.238 S 
ATOM     31  O   UNL     1     -25.278 -47.206  20.636  1.00  0.00    -0.207 OA
ATOM     32  O   UNL     1     -23.624 -46.950  18.739  1.00  0.00    -0.207 OA
BRANCH  30  33
ATOM     33  N   UNL     1     -25.506 -45.332  19.004  1.00  0.00    -0.225 NA
ATOM     34  H   UNL     1     -26.413 -45.344  19.471  1.00  0.00     0.137 HD
ATOM     35  H   UNL     1     -25.549 -45.556  18.009  1.00  0.00     0.137 HD
ENDBRANCH  30  33
ENDBRANCH   4  30
TORSDOF 7
ENDMDL
