MODEL 1
REMARK VINA RESULT:    -9.626      0.000      0.000
REMARK INTER + INTRA:          -9.908
REMARK INTER:                  -9.908
REMARK INTRA:                   0.000
REMARK UNBOUND:                 0.000
REMARK SMILES CC1=C[C@@H]2Cc3nc4cc(Cl)ccc4c(N)c3[C@H](C1)C2
REMARK SMILES IDX 1 1 2 2 3 3 4 4 5 5 6 6 7 7 8 8 9 9 10 10 11 11 12 12 13 13
REMARK SMILES IDX 14 14 15 15 17 16 18 17 19 18 20 19 16 20
REMARK H PARENT 16 21 16 22
ROOT
ATOM      1  C   UNL     1     -10.288 -43.013  31.096  1.00  0.00     0.039 C 
ATOM      2  C   UNL     1     -11.117 -44.163  30.606  1.00  0.00    -0.076 C 
ATOM      3  C   UNL     1     -10.615 -45.124  29.809  1.00  0.00    -0.024 C 
ATOM      4  C   UNL     1     -11.432 -46.302  29.324  1.00  0.00     0.018 C 
ATOM      5  C   UNL     1     -11.942 -46.062  27.897  1.00  0.00     0.064 C 
ATOM      6  C   UNL     1     -13.141 -45.141  27.817  1.00  0.00     0.047 A 
ATOM      7  N   UNL     1     -13.481 -44.766  26.562  1.00  0.00    -0.252 NA
ATOM      8  C   UNL     1     -14.576 -44.020  26.381  1.00  0.00     0.074 A 
ATOM      9  C   UNL     1     -14.918 -43.697  25.078  1.00  0.00     0.049 A 
ATOM     10  C   UNL     1     -16.057 -42.950  24.792  1.00  0.00     0.043 A 
ATOM     11  Cl  UNL     1     -16.450 -42.573  23.161  1.00  0.00    -0.084 Cl
ATOM     12  C   UNL     1     -16.882 -42.517  25.818  1.00  0.00     0.021 A 
ATOM     13  C   UNL     1     -16.550 -42.828  27.136  1.00  0.00     0.014 A 
ATOM     14  C   UNL     1     -15.385 -43.575  27.448  1.00  0.00     0.024 A 
ATOM     15  C   UNL     1     -14.973 -43.906  28.771  1.00  0.00     0.046 A 
ATOM     16  C   UNL     1     -13.870 -44.765  28.954  1.00  0.00     0.001 A 
ATOM     17  C   UNL     1     -13.431 -45.246  30.333  1.00  0.00     0.028 C 
ATOM     18  C   UNL     1     -12.565 -44.181  31.050  1.00  0.00     0.039 C 
ATOM     19  C   UNL     1     -12.635 -46.553  30.234  1.00  0.00     0.017 C 
ENDROOT
BRANCH  15  20
ATOM     20  N   UNL     1     -15.783 -43.549  29.878  1.00  0.00    -0.398 N 
ATOM     21  H   UNL     1     -15.789 -44.232  30.626  1.00  0.00     0.156 HD
ATOM     22  H   UNL     1     -15.578 -42.626  30.246  1.00  0.00     0.156 HD
ENDBRANCH  15  20
TORSDOF 1
ENDMDL
MODEL 2
REMARK VINA RESULT:    -9.564      2.044      3.186
REMARK INTER + INTRA:          -9.844
REMARK INTER:                  -9.844
REMARK INTRA:                   0.000
REMARK UNBOUND:                 0.000
REMARK SMILES CC1=C[C@@H]2Cc3nc4cc(Cl)ccc4c(N)c3[C@H](C1)C2
REMARK SMILES IDX 1 1 2 2 3 3 4 4 5 5 6 6 7 7 8 8 9 9 10 10 11 11 12 12 13 13
REMARK SMILES IDX 14 14 15 15 17 16 18 17 19 18 20 19 16 20
REMARK H PARENT 16 21 16 22
ROOT
ATOM      1  C   UNL     1     -10.043 -42.790  33.684  1.00  0.00     0.039 C 
ATOM      2  C   UNL     1      -9.640 -43.578  32.472  1.00  0.00    -0.076 C 
ATOM      3  C   UNL     1      -8.638 -43.190  31.662  1.00  0.00    -0.024 C 
ATOM      4  C   UNL     1      -8.204 -43.984  30.448  1.00  0.00     0.018 C 
ATOM      5  C   UNL     1      -8.815 -43.399  29.168  1.00  0.00     0.064 C 
ATOM      6  C   UNL     1     -10.265 -43.773  28.950  1.00  0.00     0.047 A 
ATOM      7  N   UNL     1     -10.871 -43.113  27.936  1.00  0.00    -0.252 NA
ATOM      8  C   UNL     1     -12.128 -43.432  27.612  1.00  0.00     0.074 A 
ATOM      9  C   UNL     1     -12.698 -42.768  26.537  1.00  0.00     0.049 A 
ATOM     10  C   UNL     1     -13.990 -43.057  26.109  1.00  0.00     0.043 A 
ATOM     11  Cl  UNL     1     -14.660 -42.213  24.768  1.00  0.00    -0.084 Cl
ATOM     12  C   UNL     1     -14.737 -44.030  26.755  1.00  0.00     0.021 A 
ATOM     13  C   UNL     1     -14.182 -44.704  27.841  1.00  0.00     0.014 A 
ATOM     14  C   UNL     1     -12.872 -44.413  28.301  1.00  0.00     0.024 A 
ATOM     15  C   UNL     1     -12.254 -45.044  29.419  1.00  0.00     0.046 A 
ATOM     16  C   UNL     1     -10.901 -44.769  29.704  1.00  0.00     0.001 A 
ATOM     17  C   UNL     1     -10.142 -45.480  30.820  1.00  0.00     0.028 C 
ATOM     18  C   UNL     1     -10.435 -44.837  32.197  1.00  0.00     0.039 C 
ATOM     19  C   UNL     1      -8.630 -45.448  30.565  1.00  0.00     0.017 C 
ENDROOT
BRANCH  15  20
ATOM     20  N   UNL     1     -12.925 -46.087  30.107  1.00  0.00    -0.398 N 
ATOM     21  H   UNL     1     -12.372 -46.928  30.226  1.00  0.00     0.156 HD
ATOM     22  H   UNL     1     -13.318 -45.796  30.995  1.00  0.00     0.156 HD
ENDBRANCH  15  20
TORSDOF 1
ENDMDL
MODEL 3
REMARK VINA RESULT:    -8.867      4.020      7.098
REMARK INTER + INTRA:          -9.126
REMARK INTER:                  -9.126
REMARK INTRA:                   0.000
REMARK UNBOUND:                 0.000
REMARK SMILES CC1=C[C@@H]2Cc3nc4cc(Cl)ccc4c(N)c3[C@H](C1)C2
REMARK SMILES IDX 1 1 2 2 3 3 4 4 5 5 6 6 7 7 8 8 9 9 10 10 11 11 12 12 13 13
REMARK SMILES IDX 14 14 15 15 17 16 18 17 19 18 20 19 16 20
REMARK H PARENT 16 21 16 22
ROOT
ATOM      1  C   UNL     1     -13.049 -43.156  26.547  1.00  0.00     0.039 C 
ATOM      2  C   UNL     1     -13.031 -44.155  27.666  1.00  0.00    -0.076 C 
ATOM      3  C   UNL     1     -14.077 -44.326  28.495  1.00  0.00    -0.024 C 
ATOM      4  C   UNL     1     -14.084 -45.344  29.615  1.00  0.00     0.018 C 
ATOM      5  C   UNL     1     -13.750 -44.680  30.958  1.00  0.00     0.064 C 
ATOM      6  C   UNL     1     -12.277 -44.402  31.159  1.00  0.00     0.047 A 
ATOM      7  N   UNL     1     -11.988 -43.647  32.244  1.00  0.00    -0.252 NA
ATOM      8  C   UNL     1     -10.709 -43.415  32.554  1.00  0.00     0.074 A 
ATOM      9  C   UNL     1     -10.454 -42.678  33.700  1.00  0.00     0.049 A 
ATOM     10  C   UNL     1      -9.152 -42.413  34.116  1.00  0.00     0.043 A 
ATOM     11  Cl  UNL     1      -8.877 -41.498  35.546  1.00  0.00    -0.084 Cl
ATOM     12  C   UNL     1      -8.076 -42.894  33.386  1.00  0.00     0.021 A 
ATOM     13  C   UNL     1      -8.314 -43.633  32.229  1.00  0.00     0.014 A 
ATOM     14  C   UNL     1      -9.633 -43.899  31.780  1.00  0.00     0.024 A 
ATOM     15  C   UNL     1      -9.948 -44.624  30.594  1.00  0.00     0.046 A 
ATOM     16  C   UNL     1     -11.293 -44.941  30.318  1.00  0.00     0.001 A 
ATOM     17  C   UNL     1     -11.700 -45.799  29.124  1.00  0.00     0.028 C 
ATOM     18  C   UNL     1     -11.758 -44.960  27.824  1.00  0.00     0.039 C 
ATOM     19  C   UNL     1     -13.066 -46.457  29.357  1.00  0.00     0.017 C 
ENDROOT
BRANCH  15  20
ATOM     20  N   UNL     1      -8.911 -45.196  29.815  1.00  0.00    -0.398 N 
ATOM     21  H   UNL     1      -8.075 -44.626  29.753  1.00  0.00     0.156 HD
ATOM     22  H   UNL     1      -8.672 -46.141  30.093  1.00  0.00     0.156 HD
ENDBRANCH  15  20
TORSDOF 1
ENDMDL
MODEL 4
REMARK VINA RESULT:    -8.687      4.128      8.640
REMARK INTER + INTRA:          -8.941
REMARK INTER:                  -8.941
REMARK INTRA:                   0.000
REMARK UNBOUND:                 0.000
REMARK SMILES CC1=C[C@@H]2Cc3nc4cc(Cl)ccc4c(N)c3[C@H](C1)C2
REMARK SMILES IDX 1 1 2 2 3 3 4 4 5 5 6 6 7 7 8 8 9 9 10 10 11 11 12 12 13 13
REMARK SMILES IDX 14 14 15 15 17 16 18 17 19 18 20 19 16 20
REMARK H PARENT 16 21 16 22
ROOT
ATOM      1  C   UNL     1     -22.947 -44.175  23.278  1.00  0.00     0.039 C 
ATOM      2  C   UNL     1     -22.097 -42.939  23.285  1.00  0.00    -0.076 C 
ATOM      3  C   UNL     1     -21.412 -42.531  22.201  1.00  0.00    -0.024 C 
ATOM      4  C   UNL     1     -20.567 -41.275  22.184  1.00  0.00     0.018 C 
ATOM      5  C   UNL     1     -19.085 -41.612  22.393  1.00  0.00     0.064 C 
ATOM      6  C   UNL     1     -18.714 -41.896  23.833  1.00  0.00     0.047 A 
ATOM      7  N   UNL     1     -17.463 -42.382  24.007  1.00  0.00    -0.252 NA
ATOM      8  C   UNL     1     -17.013 -42.586  25.249  1.00  0.00     0.074 A 
ATOM      9  C   UNL     1     -15.710 -43.039  25.388  1.00  0.00     0.049 A 
ATOM     10  C   UNL     1     -15.147 -43.251  26.643  1.00  0.00     0.043 A 
ATOM     11  Cl  UNL     1     -13.525 -43.808  26.774  1.00  0.00    -0.084 Cl
ATOM     12  C   UNL     1     -15.886 -43.005  27.789  1.00  0.00     0.021 A 
ATOM     13  C   UNL     1     -17.200 -42.554  27.668  1.00  0.00     0.014 A 
ATOM     14  C   UNL     1     -17.796 -42.347  26.398  1.00  0.00     0.024 A 
ATOM     15  C   UNL     1     -19.139 -41.915  26.201  1.00  0.00     0.046 A 
ATOM     16  C   UNL     1     -19.583 -41.616  24.897  1.00  0.00     0.001 A 
ATOM     17  C   UNL     1     -20.972 -41.052  24.616  1.00  0.00     0.028 C 
ATOM     18  C   UNL     1     -22.039 -42.174  24.590  1.00  0.00     0.039 C 
ATOM     19  C   UNL     1     -21.003 -40.301  23.280  1.00  0.00     0.017 C 
ENDROOT
BRANCH  15  20
ATOM     20  N   UNL     1     -19.952 -41.590  27.317  1.00  0.00    -0.398 N 
ATOM     21  H   UNL     1     -19.433 -41.356  28.155  1.00  0.00     0.156 HD
ATOM     22  H   UNL     1     -20.642 -40.874  27.118  1.00  0.00     0.156 HD
ENDBRANCH  15  20
TORSDOF 1
ENDMDL
MODEL 5
REMARK VINA RESULT:    -8.341      4.914      9.594
REMARK INTER + INTRA:          -8.585
REMARK INTER:                  -8.585
REMARK INTRA:                   0.000
REMARK UNBOUND:                 0.000
REMARK SMILES CC1=C[C@@H]2Cc3nc4cc(Cl)ccc4c(N)c3[C@H](C1)C2
REMARK SMILES IDX 1 1 2 2 3 3 4 4 5 5 6 6 7 7 8 8 9 9 10 10 11 11 12 12 13 13
REMARK SMILES IDX 14 14 15 15 17 16 18 17 19 18 20 19 16 20
REMARK H PARENT 16 21 16 22
ROOT
ATOM      1  C   UNL     1     -20.555 -38.469  20.919  1.00  0.00     0.039 C 
ATOM      2  C   UNL     1     -20.926 -39.821  21.452  1.00  0.00    -0.076 C 
ATOM      3  C   UNL     1     -22.045 -40.030  22.169  1.00  0.00    -0.024 C 
ATOM      4  C   UNL     1     -22.446 -41.391  22.696  1.00  0.00     0.018 C 
ATOM      5  C   UNL     1     -22.054 -41.541  24.171  1.00  0.00     0.064 C 
ATOM      6  C   UNL     1     -20.587 -41.838  24.393  1.00  0.00     0.047 A 
ATOM      7  N   UNL     1     -20.189 -41.781  25.685  1.00  0.00    -0.252 NA
ATOM      8  C   UNL     1     -18.930 -42.108  25.992  1.00  0.00     0.074 A 
ATOM      9  C   UNL     1     -18.574 -42.085  27.332  1.00  0.00     0.049 A 
ATOM     10  C   UNL     1     -17.294 -42.439  27.748  1.00  0.00     0.043 A 
ATOM     11  Cl  UNL     1     -16.892 -42.401  29.419  1.00  0.00    -0.084 Cl
ATOM     12  C   UNL     1     -16.343 -42.832  26.819  1.00  0.00     0.021 A 
ATOM     13  C   UNL     1     -16.682 -42.856  25.467  1.00  0.00     0.014 A 
ATOM     14  C   UNL     1     -17.976 -42.484  25.022  1.00  0.00     0.024 A 
ATOM     15  C   UNL     1     -18.382 -42.461  23.657  1.00  0.00     0.046 A 
ATOM     16  C   UNL     1     -19.732 -42.202  23.343  1.00  0.00     0.001 A 
ATOM     17  C   UNL     1     -20.263 -42.260  21.915  1.00  0.00     0.028 C 
ATOM     18  C   UNL     1     -19.961 -40.948  21.150  1.00  0.00     0.039 C 
ATOM     19  C   UNL     1     -21.776 -42.511  21.898  1.00  0.00     0.017 C 
ENDROOT
BRANCH  15  20
ATOM     20  N   UNL     1     -17.491 -42.897  22.644  1.00  0.00    -0.398 N 
ATOM     21  H   UNL     1     -16.586 -42.439  22.661  1.00  0.00     0.156 HD
ATOM     22  H   UNL     1     -17.376 -43.904  22.614  1.00  0.00     0.156 HD
ENDBRANCH  15  20
TORSDOF 1
ENDMDL
MODEL 6
REMARK VINA RESULT:    -8.317      7.322      9.354
REMARK INTER + INTRA:          -8.560
REMARK INTER:                  -8.560
REMARK INTRA:                   0.000
REMARK UNBOUND:                 0.000
REMARK SMILES CC1=C[C@@H]2Cc3nc4cc(Cl)ccc4c(N)c3[C@H](C1)C2
REMARK SMILES IDX 1 1 2 2 3 3 4 4 5 5 6 6 7 7 8 8 9 9 10 10 11 11 12 12 13 13
REMARK SMILES IDX 14 14 15 15 17 16 18 17 19 18 20 19 16 20
REMARK H PARENT 16 21 16 22
ROOT
ATOM      1  C   UNL     1     -21.296 -45.407  25.353  1.00  0.00     0.039 C 
ATOM      2  C   UNL     1     -20.800 -44.025  25.658  1.00  0.00    -0.076 C 
ATOM      3  C   UNL     1     -21.519 -43.144  26.377  1.00  0.00    -0.024 C 
ATOM      4  C   UNL     1     -21.025 -41.753  26.712  1.00  0.00     0.018 C 
ATOM      5  C   UNL     1     -21.622 -40.717  25.751  1.00  0.00     0.064 C 
ATOM      6  C   UNL     1     -20.953 -40.676  24.394  1.00  0.00     0.047 A 
ATOM      7  N   UNL     1     -21.587 -39.911  23.476  1.00  0.00    -0.252 NA
ATOM      8  C   UNL     1     -21.030 -39.745  22.272  1.00  0.00     0.074 A 
ATOM      9  C   UNL     1     -21.685 -38.915  21.375  1.00  0.00     0.049 A 
ATOM     10  C   UNL     1     -21.164 -38.660  20.111  1.00  0.00     0.043 A 
ATOM     11  Cl  UNL     1     -22.005 -37.621  19.029  1.00  0.00    -0.084 Cl
ATOM     12  C   UNL     1     -19.964 -39.235  19.723  1.00  0.00     0.021 A 
ATOM     13  C   UNL     1     -19.294 -40.076  20.609  1.00  0.00     0.014 A 
ATOM     14  C   UNL     1     -19.817 -40.360  21.897  1.00  0.00     0.024 A 
ATOM     15  C   UNL     1     -19.200 -41.230  22.842  1.00  0.00     0.046 A 
ATOM     16  C   UNL     1     -19.741 -41.333  24.139  1.00  0.00     0.001 A 
ATOM     17  C   UNL     1     -19.080 -42.163  25.235  1.00  0.00     0.028 C 
ATOM     18  C   UNL     1     -19.440 -43.663  25.097  1.00  0.00     0.039 C 
ATOM     19  C   UNL     1     -19.500 -41.674  26.626  1.00  0.00     0.017 C 
ENDROOT
BRANCH  15  20
ATOM     20  N   UNL     1     -17.944 -41.820  22.549  1.00  0.00    -0.398 N 
ATOM     21  H   UNL     1     -18.004 -42.692  22.037  1.00  0.00     0.156 HD
ATOM     22  H   UNL     1     -17.298 -41.187  22.091  1.00  0.00     0.156 HD
ENDBRANCH  15  20
TORSDOF 1
ENDMDL
MODEL 7
REMARK VINA RESULT:    -8.243      5.461     10.141
REMARK INTER + INTRA:          -8.484
REMARK INTER:                  -8.484
REMARK INTRA:                   0.000
REMARK UNBOUND:                 0.000
REMARK SMILES CC1=C[C@@H]2Cc3nc4cc(Cl)ccc4c(N)c3[C@H](C1)C2
REMARK SMILES IDX 1 1 2 2 3 3 4 4 5 5 6 6 7 7 8 8 9 9 10 10 11 11 12 12 13 13
REMARK SMILES IDX 14 14 15 15 17 16 18 17 19 18 20 19 16 20
REMARK H PARENT 16 21 16 22
ROOT
ATOM      1  C   UNL     1     -22.911 -42.762  19.964  1.00  0.00     0.039 C 
ATOM      2  C   UNL     1     -22.183 -41.567  20.506  1.00  0.00    -0.076 C 
ATOM      3  C   UNL     1     -21.410 -40.783  19.732  1.00  0.00    -0.024 C 
ATOM      4  C   UNL     1     -20.687 -39.562  20.258  1.00  0.00     0.018 C 
ATOM      5  C   UNL     1     -19.217 -39.885  20.558  1.00  0.00     0.064 C 
ATOM      6  C   UNL     1     -19.002 -40.628  21.859  1.00  0.00     0.047 A 
ATOM      7  N   UNL     1     -17.743 -41.089  22.043  1.00  0.00    -0.252 NA
ATOM      8  C   UNL     1     -17.432 -41.686  23.198  1.00  0.00     0.074 A 
ATOM      9  C   UNL     1     -16.121 -42.101  23.368  1.00  0.00     0.049 A 
ATOM     10  C   UNL     1     -15.700 -42.705  24.549  1.00  0.00     0.043 A 
ATOM     11  Cl  UNL     1     -14.062 -43.202  24.723  1.00  0.00    -0.084 Cl
ATOM     12  C   UNL     1     -16.594 -42.898  25.590  1.00  0.00     0.021 A 
ATOM     13  C   UNL     1     -17.918 -42.491  25.435  1.00  0.00     0.014 A 
ATOM     14  C   UNL     1     -18.370 -41.889  24.233  1.00  0.00     0.024 A 
ATOM     15  C   UNL     1     -19.712 -41.474  23.997  1.00  0.00     0.046 A 
ATOM     16  C   UNL     1     -20.017 -40.766  22.816  1.00  0.00     0.001 A 
ATOM     17  C   UNL     1     -21.406 -40.202  22.539  1.00  0.00     0.028 C 
ATOM     18  C   UNL     1     -22.356 -41.293  21.985  1.00  0.00     0.039 C 
ATOM     19  C   UNL     1     -21.341 -39.041  21.539  1.00  0.00     0.017 C 
ENDROOT
BRANCH  15  20
ATOM     20  N   UNL     1     -20.682 -41.586  25.025  1.00  0.00    -0.398 N 
ATOM     21  H   UNL     1     -20.322 -41.412  25.956  1.00  0.00     0.156 HD
ATOM     22  H   UNL     1     -21.512 -41.028  24.858  1.00  0.00     0.156 HD
ENDBRANCH  15  20
TORSDOF 1
ENDMDL
MODEL 8
REMARK VINA RESULT:    -7.847      4.573      6.256
REMARK INTER + INTRA:          -8.077
REMARK INTER:                  -8.077
REMARK INTRA:                   0.000
REMARK UNBOUND:                 0.000
REMARK SMILES CC1=C[C@@H]2Cc3nc4cc(Cl)ccc4c(N)c3[C@H](C1)C2
REMARK SMILES IDX 1 1 2 2 3 3 4 4 5 5 6 6 7 7 8 8 9 9 10 10 11 11 12 12 13 13
REMARK SMILES IDX 14 14 15 15 17 16 18 17 19 18 20 19 16 20
REMARK H PARENT 16 21 16 22
ROOT
ATOM      1  C   UNL     1      -8.938 -42.931  27.751  1.00  0.00     0.039 C 
ATOM      2  C   UNL     1      -9.431 -43.940  28.745  1.00  0.00    -0.076 C 
ATOM      3  C   UNL     1     -10.398 -44.828  28.450  1.00  0.00    -0.024 C 
ATOM      4  C   UNL     1     -10.892 -45.867  29.434  1.00  0.00     0.018 C 
ATOM      5  C   UNL     1     -12.193 -45.406  30.106  1.00  0.00     0.064 C 
ATOM      6  C   UNL     1     -11.991 -44.392  31.210  1.00  0.00     0.047 A 
ATOM      7  N   UNL     1     -13.132 -43.833  31.678  1.00  0.00    -0.252 NA
ATOM      8  C   UNL     1     -13.065 -42.987  32.710  1.00  0.00     0.074 A 
ATOM      9  C   UNL     1     -14.259 -42.473  33.191  1.00  0.00     0.049 A 
ATOM     10  C   UNL     1     -14.289 -41.608  34.281  1.00  0.00     0.043 A 
ATOM     11  Cl  UNL     1     -15.791 -40.996  34.851  1.00  0.00    -0.084 Cl
ATOM     12  C   UNL     1     -13.111 -41.245  34.915  1.00  0.00     0.021 A 
ATOM     13  C   UNL     1     -11.900 -41.748  34.441  1.00  0.00     0.014 A 
ATOM     14  C   UNL     1     -11.848 -42.618  33.322  1.00  0.00     0.024 A 
ATOM     15  C   UNL     1     -10.646 -43.147  32.770  1.00  0.00     0.046 A 
ATOM     16  C   UNL     1     -10.725 -44.107  31.740  1.00  0.00     0.001 A 
ATOM     17  C   UNL     1      -9.489 -44.793  31.168  1.00  0.00     0.028 C 
ATOM     18  C   UNL     1      -8.787 -43.900  30.115  1.00  0.00     0.039 C 
ATOM     19  C   UNL     1      -9.852 -46.136  30.523  1.00  0.00     0.017 C 
ENDROOT
BRANCH  15  20
ATOM     20  N   UNL     1      -9.399 -42.870  33.385  1.00  0.00    -0.398 N 
ATOM     21  H   UNL     1      -8.838 -43.692  33.576  1.00  0.00     0.156 HD
ATOM     22  H   UNL     1      -8.850 -42.176  32.890  1.00  0.00     0.156 HD
ENDBRANCH  15  20
TORSDOF 1
ENDMDL
MODEL 9
REMARK VINA RESULT:    -7.377      4.595      8.466
REMARK INTER + INTRA:          -7.593
REMARK INTER:                  -7.593
REMARK INTRA:                   0.000
REMARK UNBOUND:                 0.000
REMARK SMILES CC1=C[C@@H]2Cc3nc4cc(Cl)ccc4c(N)c3[C@H](C1)C2
REMARK SMILES IDX 1 1 2 2 3 3 4 4 5 5 6 6 7 7 8 8 9 9 10 10 11 11 12 12 13 13
REMARK SMILES IDX 14 14 15 15 17 16 18 17 19 18 20 19 16 20
REMARK H PARENT 16 21 16 22
ROOT
ATOM      1  C   UNL     1     -23.040 -39.713  25.339  1.00  0.00     0.039 C 
ATOM      2  C   UNL     1     -22.570 -41.137  25.401  1.00  0.00    -0.076 C 
ATOM      3  C   UNL     1     -22.611 -41.859  26.535  1.00  0.00    -0.024 C 
ATOM      4  C   UNL     1     -22.162 -43.303  26.609  1.00  0.00     0.018 C 
ATOM      5  C   UNL     1     -20.738 -43.402  27.171  1.00  0.00     0.064 C 
ATOM      6  C   UNL     1     -19.654 -43.070  26.168  1.00  0.00     0.047 A 
ATOM      7  N   UNL     1     -18.412 -42.964  26.695  1.00  0.00    -0.252 NA
ATOM      8  C   UNL     1     -17.376 -42.755  25.877  1.00  0.00     0.074 A 
ATOM      9  C   UNL     1     -16.114 -42.700  26.449  1.00  0.00     0.049 A 
ATOM     10  C   UNL     1     -14.974 -42.516  25.672  1.00  0.00     0.043 A 
ATOM     11  Cl  UNL     1     -13.426 -42.458  26.419  1.00  0.00    -0.084 Cl
ATOM     12  C   UNL     1     -15.081 -42.388  24.296  1.00  0.00     0.021 A 
ATOM     13  C   UNL     1     -16.343 -42.435  23.704  1.00  0.00     0.014 A 
ATOM     14  C   UNL     1     -17.517 -42.607  24.481  1.00  0.00     0.024 A 
ATOM     15  C   UNL     1     -18.837 -42.638  23.946  1.00  0.00     0.046 A 
ATOM     16  C   UNL     1     -19.918 -42.946  24.797  1.00  0.00     0.001 A 
ATOM     17  C   UNL     1     -21.346 -43.097  24.280  1.00  0.00     0.028 C 
ATOM     18  C   UNL     1     -22.031 -41.719  24.111  1.00  0.00     0.039 C 
ATOM     19  C   UNL     1     -22.187 -43.961  25.228  1.00  0.00     0.017 C 
ENDROOT
BRANCH  15  20
ATOM     20  N   UNL     1     -19.038 -42.566  22.545  1.00  0.00    -0.398 N 
ATOM     21  H   UNL     1     -19.604 -43.317  22.167  1.00  0.00     0.156 HD
ATOM     22  H   UNL     1     -19.392 -41.668  22.234  1.00  0.00     0.156 HD
ENDBRANCH  15  20
TORSDOF 1
ENDMDL
