MODEL 1
REMARK VINA RESULT:    -9.573      0.000      0.000
REMARK INTER + INTRA:         -14.286
REMARK INTER:                 -13.210
REMARK INTRA:                  -1.076
REMARK UNBOUND:                -1.076
REMARK SMILES COc1ccc([C@H]2CC(c3cc(F)ccc3F)=NN2c2ccc(S(N)(=O)=O)cc2)c(OC)c1
REMARK SMILES IDX 20 1 21 2 22 3 23 4 28 5 29 6 19 7 7 8 8 9 9 10 18 11 6 12
REMARK SMILES IDX 3 13 4 14 33 15 5 16 30 17 2 18 1 19 31 20 32 21 10 22 11 23
REMARK SMILES IDX 16 24 12 25 15 26 14 27 17 28 13 29 24 30 26 31 27 32 25 33
REMARK H PARENT 25 34 25 35
ROOT
ATOM      1  C   UNL     1     -20.159 -40.831  23.568  1.00  0.00     0.060 A 
ATOM      2  C   UNL     1     -19.535 -40.460  22.363  1.00  0.00     0.029 A 
ATOM      3  C   UNL     1     -20.220 -39.774  21.352  1.00  0.00     0.024 A 
ATOM      4  C   UNL     1     -21.558 -39.439  21.541  1.00  0.00     0.082 A 
ATOM      5  C   UNL     1     -22.214 -39.803  22.715  1.00  0.00     0.024 A 
ATOM      6  C   UNL     1     -21.515 -40.488  23.715  1.00  0.00     0.029 A 
ENDROOT
BRANCH   1   7
ATOM      7  N   UNL     1     -19.451 -41.516  24.554  1.00  0.00    -0.257 N 
ATOM      8  C   UNL     1     -19.858 -41.663  25.957  1.00  0.00     0.148 C 
ATOM      9  C   UNL     1     -18.561 -42.104  26.638  1.00  0.00     0.091 C 
ATOM     10  C   UNL     1     -17.712 -42.409  25.435  1.00  0.00     0.074 C 
ATOM     11  N   UNL     1     -18.217 -42.041  24.296  1.00  0.00    -0.176 NA
BRANCH   8  12
ATOM     12  C   UNL     1     -20.961 -42.696  26.174  1.00  0.00     0.019 A 
ATOM     13  C   UNL     1     -22.992 -44.600  26.630  1.00  0.00     0.122 A 
ATOM     14  C   UNL     1     -21.845 -44.948  25.921  1.00  0.00     0.047 A 
ATOM     15  C   UNL     1     -23.124 -43.299  27.124  1.00  0.00     0.093 A 
ATOM     16  C   UNL     1     -20.837 -44.011  25.697  1.00  0.00     0.013 A 
ATOM     17  C   UNL     1     -22.115 -42.348  26.906  1.00  0.00     0.127 A 
BRANCH  13  18
ATOM     18  O   UNL     1     -23.899 -45.613  26.776  1.00  0.00    -0.497 OA
ATOM     19  C   UNL     1     -24.323 -45.922  28.097  1.00  0.00     0.278 C 
ENDBRANCH  13  18
BRANCH  17  20
ATOM     20  O   UNL     1     -22.152 -41.058  27.372  1.00  0.00    -0.496 OA
ATOM     21  C   UNL     1     -23.426 -40.444  27.522  1.00  0.00     0.278 C 
ENDBRANCH  17  20
ENDBRANCH   8  12
BRANCH  10  22
ATOM     22  C   UNL     1     -16.385 -43.054  25.542  1.00  0.00     0.037 A 
ATOM     23  C   UNL     1     -15.854 -43.292  26.816  1.00  0.00     0.052 A 
ATOM     24  C   UNL     1     -15.649 -43.438  24.418  1.00  0.00     0.132 A 
ATOM     25  C   UNL     1     -14.607 -43.897  26.942  1.00  0.00     0.124 A 
ATOM     26  C   UNL     1     -14.399 -44.044  24.553  1.00  0.00     0.043 A 
ATOM     27  C   UNL     1     -13.874 -44.274  25.823  1.00  0.00     0.042 A 
ATOM     28  F   UNL     1     -16.119 -43.249  23.178  1.00  0.00    -0.206 F 
ATOM     29  F   UNL     1     -14.103 -44.119  28.162  1.00  0.00    -0.207 F 
ENDBRANCH  10  22
ENDBRANCH   1   7
BRANCH   4  30
ATOM     30  S   UNL     1     -22.439 -38.599  20.260  1.00  0.00     0.238 S 
ATOM     31  O   UNL     1     -21.500 -37.944  19.381  1.00  0.00    -0.207 OA
ATOM     32  O   UNL     1     -23.496 -39.452  19.767  1.00  0.00    -0.207 OA
BRANCH  30  33
ATOM     33  N   UNL     1     -23.206 -37.372  21.112  1.00  0.00    -0.225 NA
ATOM     34  H   UNL     1     -23.449 -37.700  22.046  1.00  0.00     0.137 HD
ATOM     35  H   UNL     1     -22.625 -36.533  21.104  1.00  0.00     0.137 HD
ENDBRANCH  30  33
ENDBRANCH   4  30
TORSDOF 7
ENDMDL
MODEL 2
REMARK VINA RESULT:    -9.387      3.882      7.357
REMARK INTER + INTRA:         -14.031
REMARK INTER:                 -12.588
REMARK INTRA:                  -1.443
REMARK UNBOUND:                -1.076
REMARK SMILES COc1ccc([C@H]2CC(c3cc(F)ccc3F)=NN2c2ccc(S(N)(=O)=O)cc2)c(OC)c1
REMARK SMILES IDX 20 1 21 2 22 3 23 4 28 5 29 6 19 7 7 8 8 9 9 10 18 11 6 12
REMARK SMILES IDX 3 13 4 14 33 15 5 16 30 17 2 18 1 19 31 20 32 21 10 22 11 23
REMARK SMILES IDX 16 24 12 25 15 26 14 27 17 28 13 29 24 30 26 31 27 32 25 33
REMARK H PARENT 25 34 25 35
ROOT
ATOM      1  C   UNL     1     -18.712 -41.977  24.387  1.00  0.00     0.060 A 
ATOM      2  C   UNL     1     -17.559 -42.310  23.653  1.00  0.00     0.029 A 
ATOM      3  C   UNL     1     -16.376 -42.727  24.275  1.00  0.00     0.024 A 
ATOM      4  C   UNL     1     -16.336 -42.828  25.664  1.00  0.00     0.082 A 
ATOM      5  C   UNL     1     -17.453 -42.493  26.426  1.00  0.00     0.024 A 
ATOM      6  C   UNL     1     -18.627 -42.076  25.787  1.00  0.00     0.029 A 
ENDROOT
BRANCH   1   7
ATOM      7  N   UNL     1     -19.873 -41.561  23.737  1.00  0.00    -0.257 N 
ATOM      8  C   UNL     1     -21.187 -42.209  23.830  1.00  0.00     0.148 C 
ATOM      9  C   UNL     1     -21.936 -41.622  22.632  1.00  0.00     0.091 C 
ATOM     10  C   UNL     1     -20.996 -40.516  22.239  1.00  0.00     0.074 C 
ATOM     11  N   UNL     1     -19.847 -40.528  22.844  1.00  0.00    -0.176 NA
BRANCH   8  12
ATOM     12  C   UNL     1     -21.930 -41.914  25.130  1.00  0.00     0.019 A 
ATOM     13  C   UNL     1     -23.348 -41.393  27.513  1.00  0.00     0.122 A 
ATOM     14  C   UNL     1     -22.839 -40.344  26.751  1.00  0.00     0.047 A 
ATOM     15  C   UNL     1     -23.160 -42.708  27.080  1.00  0.00     0.093 A 
ATOM     16  C   UNL     1     -22.141 -40.598  25.571  1.00  0.00     0.013 A 
ATOM     17  C   UNL     1     -22.460 -42.975  25.893  1.00  0.00     0.127 A 
BRANCH  13  18
ATOM     18  O   UNL     1     -24.010 -41.004  28.644  1.00  0.00    -0.497 OA
ATOM     19  C   UNL     1     -24.615 -39.718  28.635  1.00  0.00     0.278 C 
ENDBRANCH  13  18
BRANCH  17  20
ATOM     20  O   UNL     1     -22.247 -44.232  25.384  1.00  0.00    -0.496 OA
ATOM     21  C   UNL     1     -21.377 -45.099  26.101  1.00  0.00     0.278 C 
ENDBRANCH  17  20
ENDBRANCH   8  12
BRANCH  10  22
ATOM     22  C   UNL     1     -21.343 -39.504  21.216  1.00  0.00     0.037 A 
ATOM     23  C   UNL     1     -22.499 -38.735  21.398  1.00  0.00     0.052 A 
ATOM     24  C   UNL     1     -20.554 -39.288  20.083  1.00  0.00     0.132 A 
ATOM     25  C   UNL     1     -22.846 -37.777  20.449  1.00  0.00     0.124 A 
ATOM     26  C   UNL     1     -20.909 -38.326  19.136  1.00  0.00     0.043 A 
ATOM     27  C   UNL     1     -22.063 -37.567  19.319  1.00  0.00     0.042 A 
ATOM     28  F   UNL     1     -19.430 -39.985  19.872  1.00  0.00    -0.206 F 
ATOM     29  F   UNL     1     -23.954 -37.047  20.625  1.00  0.00    -0.207 F 
ENDBRANCH  10  22
ENDBRANCH   1   7
BRANCH   4  30
ATOM     30  S   UNL     1     -14.840 -43.326  26.462  1.00  0.00     0.238 S 
ATOM     31  O   UNL     1     -14.431 -44.615  25.954  1.00  0.00    -0.207 OA
ATOM     32  O   UNL     1     -13.937 -42.202  26.533  1.00  0.00    -0.207 OA
BRANCH  30  33
ATOM     33  N   UNL     1     -15.358 -43.595  28.036  1.00  0.00    -0.225 NA
ATOM     34  H   UNL     1     -15.070 -44.524  28.341  1.00  0.00     0.137 HD
ATOM     35  H   UNL     1     -15.032 -42.840  28.640  1.00  0.00     0.137 HD
ENDBRANCH  30  33
ENDBRANCH   4  30
TORSDOF 7
ENDMDL
MODEL 3
REMARK VINA RESULT:    -9.167      3.051      5.963
REMARK INTER + INTRA:         -13.727
REMARK INTER:                 -12.599
REMARK INTRA:                  -1.127
REMARK UNBOUND:                -1.076
REMARK SMILES COc1ccc([C@H]2CC(c3cc(F)ccc3F)=NN2c2ccc(S(N)(=O)=O)cc2)c(OC)c1
REMARK SMILES IDX 20 1 21 2 22 3 23 4 28 5 29 6 19 7 7 8 8 9 9 10 18 11 6 12
REMARK SMILES IDX 3 13 4 14 33 15 5 16 30 17 2 18 1 19 31 20 32 21 10 22 11 23
REMARK SMILES IDX 16 24 12 25 15 26 14 27 17 28 13 29 24 30 26 31 27 32 25 33
REMARK H PARENT 25 34 25 35
ROOT
ATOM      1  C   UNL     1     -22.226 -40.521  25.852  1.00  0.00     0.060 A 
ATOM      2  C   UNL     1     -22.391 -40.504  27.250  1.00  0.00     0.029 A 
ATOM      3  C   UNL     1     -23.466 -39.850  27.863  1.00  0.00     0.024 A 
ATOM      4  C   UNL     1     -24.411 -39.202  27.071  1.00  0.00     0.082 A 
ATOM      5  C   UNL     1     -24.273 -39.184  25.685  1.00  0.00     0.024 A 
ATOM      6  C   UNL     1     -23.192 -39.843  25.088  1.00  0.00     0.029 A 
ENDROOT
BRANCH   1   7
ATOM      7  N   UNL     1     -21.142 -41.179  25.272  1.00  0.00    -0.257 N 
ATOM      8  C   UNL     1     -21.163 -41.909  23.999  1.00  0.00     0.148 C 
ATOM      9  C   UNL     1     -19.887 -42.750  24.074  1.00  0.00     0.091 C 
ATOM     10  C   UNL     1     -19.217 -42.124  25.265  1.00  0.00     0.074 C 
ATOM     11  N   UNL     1     -19.949 -41.281  25.930  1.00  0.00    -0.176 NA
BRANCH   8  12
ATOM     12  C   UNL     1     -21.142 -41.004  22.769  1.00  0.00     0.019 A 
ATOM     13  C   UNL     1     -21.080 -39.373  20.469  1.00  0.00     0.122 A 
ATOM     14  C   UNL     1     -20.411 -38.984  21.627  1.00  0.00     0.047 A 
ATOM     15  C   UNL     1     -21.774 -40.585  20.452  1.00  0.00     0.093 A 
ATOM     16  C   UNL     1     -20.436 -39.790  22.765  1.00  0.00     0.013 A 
ATOM     17  C   UNL     1     -21.805 -41.404  21.591  1.00  0.00     0.127 A 
BRANCH  13  18
ATOM     18  O   UNL     1     -20.974 -38.491  19.429  1.00  0.00    -0.497 OA
ATOM     19  C   UNL     1     -22.151 -38.225  18.678  1.00  0.00     0.278 C 
ENDBRANCH  13  18
BRANCH  17  20
ATOM     20  O   UNL     1     -22.443 -42.618  21.657  1.00  0.00    -0.496 OA
ATOM     21  C   UNL     1     -21.999 -43.648  20.781  1.00  0.00     0.278 C 
ENDBRANCH  17  20
ENDBRANCH   8  12
BRANCH  10  22
ATOM     22  C   UNL     1     -17.834 -42.462  25.668  1.00  0.00     0.037 A 
ATOM     23  C   UNL     1     -16.907 -42.795  24.672  1.00  0.00     0.052 A 
ATOM     24  C   UNL     1     -17.423 -42.455  27.004  1.00  0.00     0.132 A 
ATOM     25  C   UNL     1     -15.600 -43.119  25.027  1.00  0.00     0.124 A 
ATOM     26  C   UNL     1     -16.111 -42.781  27.351  1.00  0.00     0.043 A 
ATOM     27  C   UNL     1     -15.194 -43.116  26.357  1.00  0.00     0.042 A 
ATOM     28  F   UNL     1     -18.266 -42.127  27.991  1.00  0.00    -0.206 F 
ATOM     29  F   UNL     1     -14.718 -43.440  24.073  1.00  0.00    -0.207 F 
ENDBRANCH  10  22
ENDBRANCH   1   7
BRANCH   4  30
ATOM     30  S   UNL     1     -25.756 -38.348  27.836  1.00  0.00     0.238 S 
ATOM     31  O   UNL     1     -26.871 -38.291  26.919  1.00  0.00    -0.207 OA
ATOM     32  O   UNL     1     -25.899 -38.802  29.200  1.00  0.00    -0.207 OA
BRANCH  30  33
ATOM     33  N   UNL     1     -25.162 -36.781  27.936  1.00  0.00    -0.225 NA
ATOM     34  H   UNL     1     -24.437 -36.641  27.233  1.00  0.00     0.137 HD
ATOM     35  H   UNL     1     -25.933 -36.116  27.877  1.00  0.00     0.137 HD
ENDBRANCH  30  33
ENDBRANCH   4  30
TORSDOF 7
ENDMDL
MODEL 4
REMARK VINA RESULT:    -9.098      2.966      5.802
REMARK INTER + INTRA:         -13.631
REMARK INTER:                 -12.394
REMARK INTRA:                  -1.236
REMARK UNBOUND:                -1.076
REMARK SMILES COc1ccc([C@H]2CC(c3cc(F)ccc3F)=NN2c2ccc(S(N)(=O)=O)cc2)c(OC)c1
REMARK SMILES IDX 20 1 21 2 22 3 23 4 28 5 29 6 19 7 7 8 8 9 9 10 18 11 6 12
REMARK SMILES IDX 3 13 4 14 33 15 5 16 30 17 2 18 1 19 31 20 32 21 10 22 11 23
REMARK SMILES IDX 16 24 12 25 15 26 14 27 17 28 13 29 24 30 26 31 27 32 25 33
REMARK H PARENT 25 34 25 35
ROOT
ATOM      1  C   UNL     1     -21.730 -40.746  25.366  1.00  0.00     0.060 A 
ATOM      2  C   UNL     1     -22.784 -40.161  24.639  1.00  0.00     0.029 A 
ATOM      3  C   UNL     1     -23.894 -39.588  25.271  1.00  0.00     0.024 A 
ATOM      4  C   UNL     1     -23.960 -39.584  26.662  1.00  0.00     0.082 A 
ATOM      5  C   UNL     1     -22.943 -40.166  27.415  1.00  0.00     0.024 A 
ATOM      6  C   UNL     1     -21.840 -40.736  26.767  1.00  0.00     0.029 A 
ENDROOT
BRANCH   1   7
ATOM      7  N   UNL     1     -20.640 -41.312  24.707  1.00  0.00    -0.257 N 
ATOM      8  C   UNL     1     -20.682 -41.987  23.404  1.00  0.00     0.148 C 
ATOM      9  C   UNL     1     -19.358 -42.754  23.381  1.00  0.00     0.091 C 
ATOM     10  C   UNL     1     -18.666 -42.138  24.565  1.00  0.00     0.074 C 
ATOM     11  N   UNL     1     -19.412 -41.370  25.301  1.00  0.00    -0.176 NA
BRANCH   8  12
ATOM     12  C   UNL     1     -20.775 -41.033  22.217  1.00  0.00     0.019 A 
ATOM     13  C   UNL     1     -20.919 -39.304  19.992  1.00  0.00     0.122 A 
ATOM     14  C   UNL     1     -20.283 -38.896  21.162  1.00  0.00     0.047 A 
ATOM     15  C   UNL     1     -21.477 -40.584  19.926  1.00  0.00     0.093 A 
ATOM     16  C   UNL     1     -20.207 -39.749  22.262  1.00  0.00     0.013 A 
ATOM     17  C   UNL     1     -21.404 -41.451  21.026  1.00  0.00     0.127 A 
BRANCH  13  18
ATOM     18  O   UNL     1     -20.923 -38.371  18.992  1.00  0.00    -0.497 OA
ATOM     19  C   UNL     1     -22.015 -37.462  18.954  1.00  0.00     0.278 C 
ENDBRANCH  13  18
BRANCH  17  20
ATOM     20  O   UNL     1     -21.905 -42.730  21.041  1.00  0.00    -0.496 OA
ATOM     21  C   UNL     1     -21.351 -43.668  20.127  1.00  0.00     0.278 C 
ENDBRANCH  17  20
ENDBRANCH   8  12
BRANCH  10  22
ATOM     22  C   UNL     1     -17.248 -42.410  24.887  1.00  0.00     0.037 A 
ATOM     23  C   UNL     1     -16.923 -42.843  26.179  1.00  0.00     0.052 A 
ATOM     24  C   UNL     1     -16.226 -42.254  23.946  1.00  0.00     0.132 A 
ATOM     25  C   UNL     1     -15.595 -43.104  26.506  1.00  0.00     0.124 A 
ATOM     26  C   UNL     1     -14.897 -42.517  24.283  1.00  0.00     0.043 A 
ATOM     27  C   UNL     1     -14.579 -42.944  25.571  1.00  0.00     0.042 A 
ATOM     28  F   UNL     1     -16.486 -41.859  22.693  1.00  0.00    -0.206 F 
ATOM     29  F   UNL     1     -15.290 -43.515  27.743  1.00  0.00    -0.207 F 
ENDBRANCH  10  22
ENDBRANCH   1   7
BRANCH   4  30
ATOM     30  S   UNL     1     -25.370 -38.889  27.469  1.00  0.00     0.238 S 
ATOM     31  O   UNL     1     -25.908 -39.848  28.406  1.00  0.00    -0.207 OA
ATOM     32  O   UNL     1     -25.086 -37.522  27.839  1.00  0.00    -0.207 OA
BRANCH  30  33
ATOM     33  N   UNL     1     -26.481 -38.800  26.213  1.00  0.00    -0.225 NA
ATOM     34  H   UNL     1     -26.298 -39.540  25.537  1.00  0.00     0.137 HD
ATOM     35  H   UNL     1     -27.429 -38.806  26.590  1.00  0.00     0.137 HD
ENDBRANCH  30  33
ENDBRANCH   4  30
TORSDOF 7
ENDMDL
MODEL 5
REMARK VINA RESULT:    -8.961      4.596      7.837
REMARK INTER + INTRA:         -13.442
REMARK INTER:                 -12.009
REMARK INTRA:                  -1.433
REMARK UNBOUND:                -1.076
REMARK SMILES COc1ccc([C@H]2CC(c3cc(F)ccc3F)=NN2c2ccc(S(N)(=O)=O)cc2)c(OC)c1
REMARK SMILES IDX 20 1 21 2 22 3 23 4 28 5 29 6 19 7 7 8 8 9 9 10 18 11 6 12
REMARK SMILES IDX 3 13 4 14 33 15 5 16 30 17 2 18 1 19 31 20 32 21 10 22 11 23
REMARK SMILES IDX 16 24 12 25 15 26 14 27 17 28 13 29 24 30 26 31 27 32 25 33
REMARK H PARENT 25 34 25 35
ROOT
ATOM      1  C   UNL     1     -19.221 -41.863  26.168  1.00  0.00     0.060 A 
ATOM      2  C   UNL     1     -18.450 -42.151  25.027  1.00  0.00     0.029 A 
ATOM      3  C   UNL     1     -17.128 -42.603  25.117  1.00  0.00     0.024 A 
ATOM      4  C   UNL     1     -16.554 -42.784  26.373  1.00  0.00     0.082 A 
ATOM      5  C   UNL     1     -17.280 -42.494  27.526  1.00  0.00     0.024 A 
ATOM      6  C   UNL     1     -18.601 -42.043  27.417  1.00  0.00     0.029 A 
ENDROOT
BRANCH   1   7
ATOM      7  N   UNL     1     -20.534 -41.411  26.044  1.00  0.00    -0.257 N 
ATOM      8  C   UNL     1     -21.188 -41.009  24.792  1.00  0.00     0.148 C 
ATOM      9  C   UNL     1     -22.407 -40.228  25.287  1.00  0.00     0.091 C 
ATOM     10  C   UNL     1     -22.380 -40.578  26.749  1.00  0.00     0.074 C 
ATOM     11  N   UNL     1     -21.313 -41.204  27.146  1.00  0.00    -0.176 NA
BRANCH   8  12
ATOM     12  C   UNL     1     -21.616 -42.183  23.915  1.00  0.00     0.019 A 
ATOM     13  C   UNL     1     -22.444 -44.319  22.270  1.00  0.00     0.122 A 
ATOM     14  C   UNL     1     -22.573 -44.404  23.654  1.00  0.00     0.047 A 
ATOM     15  C   UNL     1     -21.909 -43.160  21.701  1.00  0.00     0.093 A 
ATOM     16  C   UNL     1     -22.168 -43.348  24.470  1.00  0.00     0.013 A 
ATOM     17  C   UNL     1     -21.500 -42.091  22.513  1.00  0.00     0.127 A 
BRANCH  13  18
ATOM     18  O   UNL     1     -22.878 -45.424  21.590  1.00  0.00    -0.497 OA
ATOM     19  C   UNL     1     -22.913 -45.344  20.172  1.00  0.00     0.278 C 
ENDBRANCH  13  18
BRANCH  17  20
ATOM     20  O   UNL     1     -20.986 -40.909  22.039  1.00  0.00    -0.496 OA
ATOM     21  C   UNL     1     -20.314 -40.935  20.786  1.00  0.00     0.278 C 
ENDBRANCH  17  20
ENDBRANCH   8  12
BRANCH  10  22
ATOM     22  C   UNL     1     -23.474 -40.211  27.674  1.00  0.00     0.037 A 
ATOM     23  C   UNL     1     -23.622 -38.867  28.040  1.00  0.00     0.052 A 
ATOM     24  C   UNL     1     -24.365 -41.157  28.188  1.00  0.00     0.132 A 
ATOM     25  C   UNL     1     -24.644 -38.498  28.911  1.00  0.00     0.124 A 
ATOM     26  C   UNL     1     -25.387 -40.778  29.061  1.00  0.00     0.043 A 
ATOM     27  C   UNL     1     -25.527 -39.441  29.426  1.00  0.00     0.042 A 
ATOM     28  F   UNL     1     -24.278 -42.451  27.855  1.00  0.00    -0.206 F 
ATOM     29  F   UNL     1     -24.779 -37.213  29.260  1.00  0.00    -0.207 F 
ENDBRANCH  10  22
ENDBRANCH   1   7
BRANCH   4  30
ATOM     30  S   UNL     1     -14.877 -43.325  26.499  1.00  0.00     0.238 S 
ATOM     31  O   UNL     1     -14.658 -44.427  25.591  1.00  0.00    -0.207 OA
ATOM     32  O   UNL     1     -14.003 -42.176  26.545  1.00  0.00    -0.207 OA
BRANCH  30  33
ATOM     33  N   UNL     1     -14.840 -43.987  28.042  1.00  0.00    -0.225 NA
ATOM     34  H   UNL     1     -14.475 -44.938  28.001  1.00  0.00     0.137 HD
ATOM     35  H   UNL     1     -14.324 -43.370  28.669  1.00  0.00     0.137 HD
ENDBRANCH  30  33
ENDBRANCH   4  30
TORSDOF 7
ENDMDL
MODEL 6
REMARK VINA RESULT:    -8.847      4.112      7.364
REMARK INTER + INTRA:         -13.285
REMARK INTER:                 -11.759
REMARK INTRA:                  -1.527
REMARK UNBOUND:                -1.076
REMARK SMILES COc1ccc([C@H]2CC(c3cc(F)ccc3F)=NN2c2ccc(S(N)(=O)=O)cc2)c(OC)c1
REMARK SMILES IDX 20 1 21 2 22 3 23 4 28 5 29 6 19 7 7 8 8 9 9 10 18 11 6 12
REMARK SMILES IDX 3 13 4 14 33 15 5 16 30 17 2 18 1 19 31 20 32 21 10 22 11 23
REMARK SMILES IDX 16 24 12 25 15 26 14 27 17 28 13 29 24 30 26 31 27 32 25 33
REMARK H PARENT 25 34 25 35
ROOT
ATOM      1  C   UNL     1     -18.561 -42.143  23.970  1.00  0.00     0.060 A 
ATOM      2  C   UNL     1     -17.457 -42.209  23.100  1.00  0.00     0.029 A 
ATOM      3  C   UNL     1     -16.164 -42.488  23.560  1.00  0.00     0.024 A 
ATOM      4  C   UNL     1     -15.958 -42.717  24.919  1.00  0.00     0.082 A 
ATOM      5  C   UNL     1     -17.024 -42.645  25.812  1.00  0.00     0.024 A 
ATOM      6  C   UNL     1     -18.311 -42.365  25.335  1.00  0.00     0.029 A 
ENDROOT
BRANCH   1   7
ATOM      7  N   UNL     1     -19.835 -41.860  23.480  1.00  0.00    -0.257 N 
ATOM      8  C   UNL     1     -20.976 -42.785  23.470  1.00  0.00     0.148 C 
ATOM      9  C   UNL     1     -21.931 -42.128  22.473  1.00  0.00     0.091 C 
ATOM     10  C   UNL     1     -21.276 -40.784  22.312  1.00  0.00     0.074 C 
ATOM     11  N   UNL     1     -20.099 -40.676  22.853  1.00  0.00    -0.176 NA
BRANCH   8  12
ATOM     12  C   UNL     1     -21.646 -42.952  24.831  1.00  0.00     0.019 A 
ATOM     13  C   UNL     1     -22.925 -43.290  27.323  1.00  0.00     0.122 A 
ATOM     14  C   UNL     1     -22.698 -42.014  26.814  1.00  0.00     0.047 A 
ATOM     15  C   UNL     1     -22.522 -44.405  26.582  1.00  0.00     0.093 A 
ATOM     16  C   UNL     1     -22.070 -41.843  25.581  1.00  0.00     0.013 A 
ATOM     17  C   UNL     1     -21.890 -44.245  25.340  1.00  0.00     0.127 A 
BRANCH  13  18
ATOM     18  O   UNL     1     -23.549 -43.314  28.540  1.00  0.00    -0.497 OA
ATOM     19  C   UNL     1     -23.658 -44.572  29.191  1.00  0.00     0.278 C 
ENDBRANCH  13  18
BRANCH  17  20
ATOM     20  O   UNL     1     -21.482 -45.281  24.538  1.00  0.00    -0.496 OA
ATOM     21  C   UNL     1     -22.146 -46.531  24.682  1.00  0.00     0.278 C 
ENDBRANCH  17  20
ENDBRANCH   8  12
BRANCH  10  22
ATOM     22  C   UNL     1     -21.911 -39.674  21.568  1.00  0.00     0.037 A 
ATOM     23  C   UNL     1     -21.470 -39.398  20.267  1.00  0.00     0.052 A 
ATOM     24  C   UNL     1     -22.936 -38.898  22.116  1.00  0.00     0.132 A 
ATOM     25  C   UNL     1     -22.051 -38.358  19.548  1.00  0.00     0.124 A 
ATOM     26  C   UNL     1     -23.513 -37.857  21.388  1.00  0.00     0.043 A 
ATOM     27  C   UNL     1     -23.068 -37.584  20.096  1.00  0.00     0.042 A 
ATOM     28  F   UNL     1     -23.405 -39.132  23.348  1.00  0.00    -0.206 F 
ATOM     29  F   UNL     1     -21.624 -38.096  18.306  1.00  0.00    -0.207 F 
ENDBRANCH  10  22
ENDBRANCH   1   7
BRANCH   4  30
ATOM     30  S   UNL     1     -14.327 -43.041  25.514  1.00  0.00     0.238 S 
ATOM     31  O   UNL     1     -13.382 -42.892  24.432  1.00  0.00    -0.207 OA
ATOM     32  O   UNL     1     -14.146 -42.395  26.793  1.00  0.00    -0.207 OA
BRANCH  30  33
ATOM     33  N   UNL     1     -14.396 -44.687  25.841  1.00  0.00    -0.225 NA
ATOM     34  H   UNL     1     -13.475 -45.104  25.712  1.00  0.00     0.137 HD
ATOM     35  H   UNL     1     -14.794 -44.837  26.769  1.00  0.00     0.137 HD
ENDBRANCH  30  33
ENDBRANCH   4  30
TORSDOF 7
ENDMDL
MODEL 7
REMARK VINA RESULT:    -8.724      4.393      7.472
REMARK INTER + INTRA:         -13.115
REMARK INTER:                 -11.627
REMARK INTRA:                  -1.488
REMARK UNBOUND:                -1.076
REMARK SMILES COc1ccc([C@H]2CC(c3cc(F)ccc3F)=NN2c2ccc(S(N)(=O)=O)cc2)c(OC)c1
REMARK SMILES IDX 20 1 21 2 22 3 23 4 28 5 29 6 19 7 7 8 8 9 9 10 18 11 6 12
REMARK SMILES IDX 3 13 4 14 33 15 5 16 30 17 2 18 1 19 31 20 32 21 10 22 11 23
REMARK SMILES IDX 16 24 12 25 15 26 14 27 17 28 13 29 24 30 26 31 27 32 25 33
REMARK H PARENT 25 34 25 35
ROOT
ATOM      1  C   UNL     1     -18.992 -42.253  25.872  1.00  0.00     0.060 A 
ATOM      2  C   UNL     1     -18.256 -42.426  24.684  1.00  0.00     0.029 A 
ATOM      3  C   UNL     1     -16.893 -42.744  24.695  1.00  0.00     0.024 A 
ATOM      4  C   UNL     1     -16.239 -42.906  25.914  1.00  0.00     0.082 A 
ATOM      5  C   UNL     1     -16.930 -42.729  27.110  1.00  0.00     0.024 A 
ATOM      6  C   UNL     1     -18.293 -42.410  27.082  1.00  0.00     0.029 A 
ENDROOT
BRANCH   1   7
ATOM      7  N   UNL     1     -20.347 -41.933  25.828  1.00  0.00    -0.257 N 
ATOM      8  C   UNL     1     -21.199 -41.967  24.632  1.00  0.00     0.148 C 
ATOM      9  C   UNL     1     -22.412 -41.140  25.060  1.00  0.00     0.091 C 
ATOM     10  C   UNL     1     -22.156 -41.026  26.538  1.00  0.00     0.074 C 
ATOM     11  N   UNL     1     -20.989 -41.442  26.929  1.00  0.00    -0.176 NA
BRANCH   8  12
ATOM     12  C   UNL     1     -21.622 -43.373  24.216  1.00  0.00     0.019 A 
ATOM     13  C   UNL     1     -22.453 -45.953  23.434  1.00  0.00     0.122 A 
ATOM     14  C   UNL     1     -22.077 -45.703  24.751  1.00  0.00     0.047 A 
ATOM     15  C   UNL     1     -22.425 -44.911  22.503  1.00  0.00     0.093 A 
ATOM     16  C   UNL     1     -21.670 -44.428  25.142  1.00  0.00     0.013 A 
ATOM     17  C   UNL     1     -22.017 -43.624  22.886  1.00  0.00     0.127 A 
BRANCH  13  18
ATOM     18  O   UNL     1     -22.829 -47.244  23.186  1.00  0.00    -0.497 OA
ATOM     19  C   UNL     1     -23.301 -48.008  24.289  1.00  0.00     0.278 C 
ENDBRANCH  13  18
BRANCH  17  20
ATOM     20  O   UNL     1     -21.980 -42.539  22.045  1.00  0.00    -0.496 OA
ATOM     21  C   UNL     1     -21.063 -42.576  20.959  1.00  0.00     0.278 C 
ENDBRANCH  17  20
ENDBRANCH   8  12
BRANCH  10  22
ATOM     22  C   UNL     1     -23.149 -40.454  27.474  1.00  0.00     0.037 A 
ATOM     23  C   UNL     1     -23.175 -39.066  27.660  1.00  0.00     0.052 A 
ATOM     24  C   UNL     1     -24.060 -41.250  28.173  1.00  0.00     0.132 A 
ATOM     25  C   UNL     1     -24.099 -38.505  28.537  1.00  0.00     0.124 A 
ATOM     26  C   UNL     1     -24.983 -40.680  29.051  1.00  0.00     0.043 A 
ATOM     27  C   UNL     1     -25.003 -39.299  29.235  1.00  0.00     0.042 A 
ATOM     28  F   UNL     1     -24.087 -42.580  28.018  1.00  0.00    -0.206 F 
ATOM     29  F   UNL     1     -24.119 -37.178  28.714  1.00  0.00    -0.207 F 
ENDBRANCH  10  22
ENDBRANCH   1   7
BRANCH   4  30
ATOM     30  S   UNL     1     -14.512 -43.280  25.938  1.00  0.00     0.238 S 
ATOM     31  O   UNL     1     -13.845 -42.406  26.875  1.00  0.00    -0.207 OA
ATOM     32  O   UNL     1     -14.332 -44.713  25.953  1.00  0.00    -0.207 OA
BRANCH  30  33
ATOM     33  N   UNL     1     -14.026 -42.775  24.412  1.00  0.00    -0.225 NA
ATOM     34  H   UNL     1     -13.403 -43.470  24.002  1.00  0.00     0.137 HD
ATOM     35  H   UNL     1     -14.845 -42.562  23.843  1.00  0.00     0.137 HD
ENDBRANCH  30  33
ENDBRANCH   4  30
TORSDOF 7
ENDMDL
MODEL 8
REMARK VINA RESULT:    -8.627      4.131      7.894
REMARK INTER + INTRA:         -12.981
REMARK INTER:                 -11.394
REMARK INTRA:                  -1.587
REMARK UNBOUND:                -1.076
REMARK SMILES COc1ccc([C@H]2CC(c3cc(F)ccc3F)=NN2c2ccc(S(N)(=O)=O)cc2)c(OC)c1
REMARK SMILES IDX 20 1 21 2 22 3 23 4 28 5 29 6 19 7 7 8 8 9 9 10 18 11 6 12
REMARK SMILES IDX 3 13 4 14 33 15 5 16 30 17 2 18 1 19 31 20 32 21 10 22 11 23
REMARK SMILES IDX 16 24 12 25 15 26 14 27 17 28 13 29 24 30 26 31 27 32 25 33
REMARK H PARENT 25 34 25 35
ROOT
ATOM      1  C   UNL     1     -21.909 -43.723  22.969  1.00  0.00     0.060 A 
ATOM      2  C   UNL     1     -22.358 -44.435  21.841  1.00  0.00     0.029 A 
ATOM      3  C   UNL     1     -22.775 -45.769  21.922  1.00  0.00     0.024 A 
ATOM      4  C   UNL     1     -22.757 -46.416  23.156  1.00  0.00     0.082 A 
ATOM      5  C   UNL     1     -22.305 -45.748  24.292  1.00  0.00     0.024 A 
ATOM      6  C   UNL     1     -21.890 -44.415  24.193  1.00  0.00     0.029 A 
ENDROOT
BRANCH   1   7
ATOM      7  N   UNL     1     -21.496 -42.396  22.855  1.00  0.00    -0.257 N 
ATOM      8  C   UNL     1     -20.746 -41.641  23.866  1.00  0.00     0.148 C 
ATOM      9  C   UNL     1     -20.944 -40.192  23.417  1.00  0.00     0.091 C 
ATOM     10  C   UNL     1     -21.539 -40.408  22.053  1.00  0.00     0.074 C 
ATOM     11  N   UNL     1     -21.866 -41.636  21.782  1.00  0.00    -0.176 NA
BRANCH   8  12
ATOM     12  C   UNL     1     -19.262 -41.992  23.923  1.00  0.00     0.019 A 
ATOM     13  C   UNL     1     -16.509 -42.592  24.053  1.00  0.00     0.122 A 
ATOM     14  C   UNL     1     -17.150 -42.484  22.821  1.00  0.00     0.047 A 
ATOM     15  C   UNL     1     -17.241 -42.390  25.226  1.00  0.00     0.093 A 
ATOM     16  C   UNL     1     -18.509 -42.183  22.753  1.00  0.00     0.013 A 
ATOM     17  C   UNL     1     -18.609 -42.086  25.169  1.00  0.00     0.127 A 
BRANCH  13  18
ATOM     18  O   UNL     1     -15.177 -42.892  23.975  1.00  0.00    -0.497 OA
ATOM     19  C   UNL     1     -14.577 -43.494  25.115  1.00  0.00     0.278 C 
ENDBRANCH  13  18
BRANCH  17  20
ATOM     20  O   UNL     1     -19.398 -41.851  26.268  1.00  0.00    -0.496 OA
ATOM     21  C   UNL     1     -19.336 -42.784  27.339  1.00  0.00     0.278 C 
ENDBRANCH  17  20
ENDBRANCH   8  12
BRANCH  10  22
ATOM     22  C   UNL     1     -21.761 -39.300  21.098  1.00  0.00     0.037 A 
ATOM     23  C   UNL     1     -22.962 -38.583  21.170  1.00  0.00     0.052 A 
ATOM     24  C   UNL     1     -20.814 -38.943  20.135  1.00  0.00     0.132 A 
ATOM     25  C   UNL     1     -23.195 -37.536  20.282  1.00  0.00     0.124 A 
ATOM     26  C   UNL     1     -21.055 -37.892  19.248  1.00  0.00     0.043 A 
ATOM     27  C   UNL     1     -22.254 -37.185  19.321  1.00  0.00     0.042 A 
ATOM     28  F   UNL     1     -19.643 -39.585  20.037  1.00  0.00    -0.206 F 
ATOM     29  F   UNL     1     -24.346 -36.856  20.352  1.00  0.00    -0.207 F 
ENDBRANCH  10  22
ENDBRANCH   1   7
BRANCH   4  30
ATOM     30  S   UNL     1     -23.254 -48.108  23.264  1.00  0.00     0.238 S 
ATOM     31  O   UNL     1     -23.479 -48.454  24.648  1.00  0.00    -0.207 OA
ATOM     32  O   UNL     1     -24.220 -48.391  22.229  1.00  0.00    -0.207 OA
BRANCH  30  33
ATOM     33  N   UNL     1     -21.851 -48.912  22.811  1.00  0.00    -0.225 NA
ATOM     34  H   UNL     1     -21.903 -49.887  23.102  1.00  0.00     0.137 HD
ATOM     35  H   UNL     1     -21.688 -48.784  21.812  1.00  0.00     0.137 HD
ENDBRANCH  30  33
ENDBRANCH   4  30
TORSDOF 7
ENDMDL
MODEL 9
REMARK VINA RESULT:    -8.329      4.270      8.185
REMARK INTER + INTRA:         -12.570
REMARK INTER:                 -10.988
REMARK INTRA:                  -1.582
REMARK UNBOUND:                -1.076
REMARK SMILES COc1ccc([C@H]2CC(c3cc(F)ccc3F)=NN2c2ccc(S(N)(=O)=O)cc2)c(OC)c1
REMARK SMILES IDX 20 1 21 2 22 3 23 4 28 5 29 6 19 7 7 8 8 9 9 10 18 11 6 12
REMARK SMILES IDX 3 13 4 14 33 15 5 16 30 17 2 18 1 19 31 20 32 21 10 22 11 23
REMARK SMILES IDX 16 24 12 25 15 26 14 27 17 28 13 29 24 30 26 31 27 32 25 33
REMARK H PARENT 25 34 25 35
ROOT
ATOM      1  C   UNL     1     -22.255 -44.311  24.911  1.00  0.00     0.060 A 
ATOM      2  C   UNL     1     -21.493 -45.414  25.339  1.00  0.00     0.029 A 
ATOM      3  C   UNL     1     -21.668 -46.693  24.797  1.00  0.00     0.024 A 
ATOM      4  C   UNL     1     -22.618 -46.885  23.797  1.00  0.00     0.082 A 
ATOM      5  C   UNL     1     -23.401 -45.821  23.358  1.00  0.00     0.024 A 
ATOM      6  C   UNL     1     -23.214 -44.548  23.911  1.00  0.00     0.029 A 
ENDROOT
BRANCH   1   7
ATOM      7  N   UNL     1     -22.059 -43.050  25.474  1.00  0.00    -0.257 N 
ATOM      8  C   UNL     1     -20.763 -42.382  25.649  1.00  0.00     0.148 C 
ATOM      9  C   UNL     1     -21.089 -41.281  26.661  1.00  0.00     0.091 C 
ATOM     10  C   UNL     1     -22.591 -41.344  26.659  1.00  0.00     0.074 C 
ATOM     11  N   UNL     1     -23.099 -42.355  26.021  1.00  0.00    -0.176 NA
BRANCH   8  12
ATOM     12  C   UNL     1     -20.198 -41.784  24.364  1.00  0.00     0.019 A 
ATOM     13  C   UNL     1     -19.113 -40.658  22.016  1.00  0.00     0.122 A 
ATOM     14  C   UNL     1     -20.389 -40.300  22.445  1.00  0.00     0.047 A 
ATOM     15  C   UNL     1     -18.369 -41.573  22.766  1.00  0.00     0.093 A 
ATOM     16  C   UNL     1     -20.927 -40.852  23.607  1.00  0.00     0.013 A 
ATOM     17  C   UNL     1     -18.901 -42.133  23.938  1.00  0.00     0.127 A 
BRANCH  13  18
ATOM     18  O   UNL     1     -18.709 -40.044  20.863  1.00  0.00    -0.497 OA
ATOM     19  C   UNL     1     -19.722 -39.522  20.013  1.00  0.00     0.278 C 
ENDBRANCH  13  18
BRANCH  17  20
ATOM     20  O   UNL     1     -18.233 -43.021  24.745  1.00  0.00    -0.496 OA
ATOM     21  C   UNL     1     -16.882 -42.726  25.079  1.00  0.00     0.278 C 
ENDBRANCH  17  20
ENDBRANCH   8  12
BRANCH  10  22
ATOM     22  C   UNL     1     -23.430 -40.345  27.357  1.00  0.00     0.037 A 
ATOM     23  C   UNL     1     -23.451 -39.031  26.872  1.00  0.00     0.052 A 
ATOM     24  C   UNL     1     -24.202 -40.669  28.475  1.00  0.00     0.132 A 
ATOM     25  C   UNL     1     -24.231 -38.072  27.512  1.00  0.00     0.124 A 
ATOM     26  C   UNL     1     -24.982 -39.702  29.111  1.00  0.00     0.043 A 
ATOM     27  C   UNL     1     -24.996 -38.395  28.628  1.00  0.00     0.042 A 
ATOM     28  F   UNL     1     -24.230 -41.915  28.966  1.00  0.00    -0.206 F 
ATOM     29  F   UNL     1     -24.246 -36.817  27.048  1.00  0.00    -0.207 F 
ENDBRANCH  10  22
ENDBRANCH   1   7
BRANCH   4  30
ATOM     30  S   UNL     1     -22.868 -48.501  23.126  1.00  0.00     0.238 S 
ATOM     31  O   UNL     1     -24.260 -48.667  22.781  1.00  0.00    -0.207 OA
ATOM     32  O   UNL     1     -21.800 -48.808  22.203  1.00  0.00    -0.207 OA
BRANCH  30  33
ATOM     33  N   UNL     1     -22.606 -49.478  24.466  1.00  0.00    -0.225 NA
ATOM     34  H   UNL     1     -23.277 -50.245  24.470  1.00  0.00     0.137 HD
ATOM     35  H   UNL     1     -21.631 -49.778  24.489  1.00  0.00     0.137 HD
ENDBRANCH  30  33
ENDBRANCH   4  30
TORSDOF 7
ENDMDL
