MODEL 1
REMARK VINA RESULT:   -11.665      0.000      0.000
REMARK INTER + INTRA:         -15.836
REMARK INTER:                 -16.097
REMARK INTRA:                   0.261
REMARK UNBOUND:                 0.261
REMARK SMILES COc1cc2c(cc1OC)C(O)=C(Cc1cc[n+](Cc3ccccc3)cc1Br)C2
REMARK SMILES IDX 14 1 13 2 11 3 6 4 29 5 7 6 5 7 8 8 4 9 3 10 12 11 9 13
REMARK SMILES IDX 10 14 2 15 1 16 15 17 16 18 27 19 17 20 26 21 18 22 28 23
REMARK SMILES IDX 19 24 20 25 21 26 25 27 22 28 24 29 23 30
REMARK H PARENT 12 12
ROOT
ATOM      1  C   UNL     1     -13.416 -43.175  26.044  1.00  0.00     0.072 C 
ENDROOT
BRANCH   1   2
ATOM      2  C   UNL     1     -14.900 -43.028  25.982  1.00  0.00    -0.019 C 
ATOM      3  C   UNL     1     -15.668 -43.066  24.882  1.00  0.00     0.123 C 
ATOM      4  C   UNL     1     -17.059 -42.834  25.249  1.00  0.00     0.024 A 
ATOM      5  C   UNL     1     -15.724 -42.739  27.217  1.00  0.00     0.071 C 
ATOM      6  C   UNL     1     -18.218 -42.804  24.490  1.00  0.00     0.062 A 
ATOM      7  C   UNL     1     -17.104 -42.635  26.635  1.00  0.00    -0.029 A 
ATOM      8  C   UNL     1     -19.437 -42.561  25.138  1.00  0.00     0.161 A 
ATOM      9  C   UNL     1     -18.297 -42.394  27.297  1.00  0.00     0.055 A 
ATOM     10  C   UNL     1     -19.477 -42.354  26.545  1.00  0.00     0.161 A 
BRANCH   3  11
ATOM     11  O   UNL     1     -15.251 -43.280  23.606  1.00  0.00    -0.507 OA
ATOM     12  H   UNL     1     -15.513 -42.510  23.072  1.00  0.00     0.293 HD
ENDBRANCH   3  11
BRANCH   8  13
ATOM     13  O   UNL     1     -20.653 -42.516  24.499  1.00  0.00    -0.493 OA
ATOM     14  C   UNL     1     -20.662 -42.262  23.101  1.00  0.00     0.278 C 
ENDBRANCH   8  13
BRANCH  10  15
ATOM     15  O   UNL     1     -20.723 -42.132  27.079  1.00  0.00    -0.493 OA
ATOM     16  C   UNL     1     -21.306 -40.851  26.891  1.00  0.00     0.278 C 
ENDBRANCH  10  15
ENDBRANCH   1   2
BRANCH   1  17
ATOM     17  C   UNL     1     -12.961 -43.903  27.293  1.00  0.00    -0.018 A 
ATOM     18  C   UNL     1     -13.729 -44.990  27.737  1.00  0.00     0.076 A 
ATOM     19  C   UNL     1     -11.848 -43.540  28.055  1.00  0.00     0.085 A 
ATOM     20  C   UNL     1     -13.381 -45.678  28.893  1.00  0.00     0.308 A 
ATOM     21  C   UNL     1     -11.533 -44.260  29.207  1.00  0.00     0.324 A 
ATOM     22  N   UNL     1     -12.293 -45.310  29.604  1.00  0.00    -0.200 N 
ATOM     23  Br  UNL     1     -10.716 -42.088  27.608  1.00  0.00    -0.044 Br
BRANCH  22  24
ATOM     24  C   UNL     1     -11.933 -46.048  30.842  1.00  0.00     0.393 C 
BRANCH  24  25
ATOM     25  C   UNL     1     -10.498 -45.796  31.223  1.00  0.00     0.017 A 
ATOM     26  C   UNL     1     -10.145 -44.633  31.925  1.00  0.00     0.010 A 
ATOM     27  C   UNL     1      -9.492 -46.715  30.882  1.00  0.00     0.010 A 
ATOM     28  C   UNL     1      -8.814 -44.391  32.266  1.00  0.00     0.001 A 
ATOM     29  C   UNL     1      -8.163 -46.467  31.227  1.00  0.00     0.001 A 
ATOM     30  C   UNL     1      -7.824 -45.305  31.916  1.00  0.00     0.000 A 
ENDBRANCH  24  25
ENDBRANCH  22  24
ENDBRANCH   1  17
TORSDOF 7
ENDMDL
MODEL 2
REMARK VINA RESULT:   -10.610      1.573      2.568
REMARK INTER + INTRA:         -14.380
REMARK INTER:                 -14.444
REMARK INTRA:                   0.064
REMARK UNBOUND:                 0.261
REMARK SMILES COc1cc2c(cc1OC)C(O)=C(Cc1cc[n+](Cc3ccccc3)cc1Br)C2
REMARK SMILES IDX 14 1 13 2 11 3 6 4 29 5 7 6 5 7 8 8 4 9 3 10 12 11 9 13
REMARK SMILES IDX 10 14 2 15 1 16 15 17 16 18 27 19 17 20 26 21 18 22 28 23
REMARK SMILES IDX 19 24 20 25 21 26 25 27 22 28 24 29 23 30
REMARK H PARENT 12 12
ROOT
ATOM      1  C   UNL     1     -12.880 -45.196  26.835  1.00  0.00     0.072 C 
ENDROOT
BRANCH   1   2
ATOM      2  C   UNL     1     -14.118 -44.421  26.528  1.00  0.00    -0.019 C 
ATOM      3  C   UNL     1     -15.014 -43.951  27.410  1.00  0.00     0.123 C 
ATOM      4  C   UNL     1     -16.099 -43.289  26.699  1.00  0.00     0.024 A 
ATOM      5  C   UNL     1     -14.541 -44.127  25.106  1.00  0.00     0.071 C 
ATOM      6  C   UNL     1     -17.230 -42.631  27.154  1.00  0.00     0.062 A 
ATOM      7  C   UNL     1     -15.831 -43.391  25.328  1.00  0.00    -0.029 A 
ATOM      8  C   UNL     1     -18.107 -42.075  26.211  1.00  0.00     0.161 A 
ATOM      9  C   UNL     1     -16.683 -42.850  24.378  1.00  0.00     0.055 A 
ATOM     10  C   UNL     1     -17.834 -42.186  24.819  1.00  0.00     0.161 A 
BRANCH   3  11
ATOM     11  O   UNL     1     -14.955 -44.059  28.764  1.00  0.00    -0.507 OA
ATOM     12  H   UNL     1     -14.235 -43.485  29.079  1.00  0.00     0.293 HD
ENDBRANCH   3  11
BRANCH   8  13
ATOM     13  O   UNL     1     -19.255 -41.392  26.536  1.00  0.00    -0.493 OA
ATOM     14  C   UNL     1     -20.399 -42.148  26.903  1.00  0.00     0.278 C 
ENDBRANCH   8  13
BRANCH  10  15
ATOM     15  O   UNL     1     -18.753 -41.601  23.983  1.00  0.00    -0.493 OA
ATOM     16  C   UNL     1     -18.504 -41.652  22.586  1.00  0.00     0.278 C 
ENDBRANCH  10  15
ENDBRANCH   1   2
BRANCH   1  17
ATOM     17  C   UNL     1     -12.350 -44.911  28.226  1.00  0.00    -0.018 A 
ATOM     18  C   UNL     1     -12.633 -45.840  29.239  1.00  0.00     0.076 A 
ATOM     19  C   UNL     1     -11.631 -43.766  28.576  1.00  0.00     0.085 A 
ATOM     20  C   UNL     1     -12.201 -45.619  30.542  1.00  0.00     0.308 A 
ATOM     21  C   UNL     1     -11.215 -43.586  29.895  1.00  0.00     0.324 A 
ATOM     22  N   UNL     1     -11.499 -44.506  30.849  1.00  0.00    -0.200 N 
ATOM     23  Br  UNL     1     -11.182 -42.406  27.336  1.00  0.00    -0.044 Br
BRANCH  22  24
ATOM     24  C   UNL     1     -11.048 -44.277  32.245  1.00  0.00     0.393 C 
BRANCH  24  25
ATOM     25  C   UNL     1      -9.544 -44.260  32.331  1.00  0.00     0.017 A 
ATOM     26  C   UNL     1      -8.882 -43.185  32.946  1.00  0.00     0.010 A 
ATOM     27  C   UNL     1      -8.782 -45.312  31.799  1.00  0.00     0.010 A 
ATOM     28  C   UNL     1      -7.489 -43.161  33.014  1.00  0.00     0.001 A 
ATOM     29  C   UNL     1      -7.389 -45.282  31.871  1.00  0.00     0.001 A 
ATOM     30  C   UNL     1      -6.743 -44.206  32.476  1.00  0.00     0.000 A 
ENDBRANCH  24  25
ENDBRANCH  22  24
ENDBRANCH   1  17
TORSDOF 7
ENDMDL
MODEL 3
REMARK VINA RESULT:   -10.476      1.411      1.992
REMARK INTER + INTRA:         -14.196
REMARK INTER:                 -13.600
REMARK INTRA:                  -0.596
REMARK UNBOUND:                 0.261
REMARK SMILES COc1cc2c(cc1OC)C(O)=C(Cc1cc[n+](Cc3ccccc3)cc1Br)C2
REMARK SMILES IDX 14 1 13 2 11 3 6 4 29 5 7 6 5 7 8 8 4 9 3 10 12 11 9 13
REMARK SMILES IDX 10 14 2 15 1 16 15 17 16 18 27 19 17 20 26 21 18 22 28 23
REMARK SMILES IDX 19 24 20 25 21 26 25 27 22 28 24 29 23 30
REMARK H PARENT 12 12
ROOT
ATOM      1  C   UNL     1     -13.005 -45.241  26.757  1.00  0.00     0.072 C 
ENDROOT
BRANCH   1   2
ATOM      2  C   UNL     1     -14.238 -44.519  26.327  1.00  0.00    -0.019 C 
ATOM      3  C   UNL     1     -14.635 -44.280  25.068  1.00  0.00     0.123 C 
ATOM      4  C   UNL     1     -15.869 -43.505  25.082  1.00  0.00     0.024 A 
ATOM      5  C   UNL     1     -15.184 -43.894  27.329  1.00  0.00     0.071 C 
ATOM      6  C   UNL     1     -16.675 -43.039  24.056  1.00  0.00     0.062 A 
ATOM      7  C   UNL     1     -16.203 -43.267  26.422  1.00  0.00    -0.029 A 
ATOM      8  C   UNL     1     -17.829 -42.315  24.387  1.00  0.00     0.161 A 
ATOM      9  C   UNL     1     -17.339 -42.554  26.772  1.00  0.00     0.055 A 
ATOM     10  C   UNL     1     -18.162 -42.070  25.748  1.00  0.00     0.161 A 
BRANCH   3  11
ATOM     11  O   UNL     1     -14.008 -44.677  23.929  1.00  0.00    -0.507 OA
ATOM     12  H   UNL     1     -13.293 -45.288  24.179  1.00  0.00     0.293 HD
ENDBRANCH   3  11
BRANCH   8  13
ATOM     13  O   UNL     1     -18.711 -41.809  23.462  1.00  0.00    -0.493 OA
ATOM     14  C   UNL     1     -18.190 -41.004  22.414  1.00  0.00     0.278 C 
ENDBRANCH   8  13
BRANCH  10  15
ATOM     15  O   UNL     1     -19.316 -41.358  25.960  1.00  0.00    -0.493 OA
ATOM     16  C   UNL     1     -19.997 -41.551  27.191  1.00  0.00     0.278 C 
ENDBRANCH  10  15
ENDBRANCH   1   2
BRANCH   1  17
ATOM     17  C   UNL     1     -12.596 -44.892  28.173  1.00  0.00    -0.018 A 
ATOM     18  C   UNL     1     -13.045 -45.723  29.211  1.00  0.00     0.076 A 
ATOM     19  C   UNL     1     -11.833 -43.775  28.520  1.00  0.00     0.085 A 
ATOM     20  C   UNL     1     -12.729 -45.437  30.534  1.00  0.00     0.308 A 
ATOM     21  C   UNL     1     -11.537 -43.527  29.861  1.00  0.00     0.324 A 
ATOM     22  N   UNL     1     -11.981 -44.354  30.838  1.00  0.00    -0.200 N 
ATOM     23  Br  UNL     1     -11.163 -42.541  27.247  1.00  0.00    -0.044 Br
BRANCH  22  24
ATOM     24  C   UNL     1     -11.654 -44.055  32.256  1.00  0.00     0.393 C 
BRANCH  24  25
ATOM     25  C   UNL     1     -10.166 -43.932  32.453  1.00  0.00     0.017 A 
ATOM     26  C   UNL     1      -9.291 -44.820  31.807  1.00  0.00     0.010 A 
ATOM     27  C   UNL     1      -9.631 -42.935  33.284  1.00  0.00     0.010 A 
ATOM     28  C   UNL     1      -7.913 -44.717  31.999  1.00  0.00     0.001 A 
ATOM     29  C   UNL     1      -8.252 -42.838  33.472  1.00  0.00     0.001 A 
ATOM     30  C   UNL     1      -7.394 -43.729  32.832  1.00  0.00     0.000 A 
ENDBRANCH  24  25
ENDBRANCH  22  24
ENDBRANCH   1  17
TORSDOF 7
ENDMDL
MODEL 4
REMARK VINA RESULT:   -10.231      3.597      9.516
REMARK INTER + INTRA:         -13.858
REMARK INTER:                 -13.349
REMARK INTRA:                  -0.509
REMARK UNBOUND:                 0.261
REMARK SMILES COc1cc2c(cc1OC)C(O)=C(Cc1cc[n+](Cc3ccccc3)cc1Br)C2
REMARK SMILES IDX 14 1 13 2 11 3 6 4 29 5 7 6 5 7 8 8 4 9 3 10 12 11 9 13
REMARK SMILES IDX 10 14 2 15 1 16 15 17 16 18 27 19 17 20 26 21 18 22 28 23
REMARK SMILES IDX 19 24 20 25 21 26 25 27 22 28 24 29 23 30
REMARK H PARENT 12 12
ROOT
ATOM      1  C   UNL     1     -14.345 -43.918  25.542  1.00  0.00     0.072 C 
ENDROOT
BRANCH   1   2
ATOM      2  C   UNL     1     -13.467 -44.174  26.721  1.00  0.00    -0.019 C 
ATOM      3  C   UNL     1     -12.629 -43.303  27.306  1.00  0.00     0.123 C 
ATOM      4  C   UNL     1     -11.923 -43.962  28.396  1.00  0.00     0.024 A 
ATOM      5  C   UNL     1     -13.382 -45.538  27.370  1.00  0.00     0.071 C 
ATOM      6  C   UNL     1     -10.989 -43.490  29.305  1.00  0.00     0.062 A 
ATOM      7  C   UNL     1     -12.360 -45.293  28.441  1.00  0.00    -0.029 A 
ATOM      8  C   UNL     1     -10.483 -44.377  30.267  1.00  0.00     0.161 A 
ATOM      9  C   UNL     1     -11.874 -46.186  29.382  1.00  0.00     0.055 A 
ATOM     10  C   UNL     1     -10.925 -45.728  30.305  1.00  0.00     0.161 A 
BRANCH   3  11
ATOM     11  O   UNL     1     -12.438 -42.003  26.961  1.00  0.00    -0.507 OA
ATOM     12  H   UNL     1     -12.335 -41.961  25.994  1.00  0.00     0.293 HD
ENDBRANCH   3  11
BRANCH   8  13
ATOM     13  O   UNL     1      -9.562 -44.028  31.225  1.00  0.00    -0.493 OA
ATOM     14  C   UNL     1      -8.314 -43.505  30.793  1.00  0.00     0.278 C 
ENDBRANCH   8  13
BRANCH  10  15
ATOM     15  O   UNL     1     -10.372 -46.508  31.291  1.00  0.00    -0.493 OA
ATOM     16  C   UNL     1      -9.087 -47.065  31.052  1.00  0.00     0.278 C 
ENDBRANCH  10  15
ENDBRANCH   1   2
BRANCH   1  17
ATOM     17  C   UNL     1     -15.679 -43.316  25.935  1.00  0.00    -0.018 A 
ATOM     18  C   UNL     1     -15.935 -43.125  27.302  1.00  0.00     0.076 A 
ATOM     19  C   UNL     1     -16.686 -42.973  25.031  1.00  0.00     0.085 A 
ATOM     20  C   UNL     1     -17.152 -42.605  27.728  1.00  0.00     0.308 A 
ATOM     21  C   UNL     1     -17.892 -42.452  25.502  1.00  0.00     0.324 A 
ATOM     22  N   UNL     1     -18.105 -42.274  26.828  1.00  0.00    -0.200 N 
ATOM     23  Br  UNL     1     -16.511 -43.184  23.156  1.00  0.00    -0.044 Br
BRANCH  22  24
ATOM     24  C   UNL     1     -19.404 -41.726  27.294  1.00  0.00     0.393 C 
BRANCH  24  25
ATOM     25  C   UNL     1     -20.501 -42.749  27.163  1.00  0.00     0.017 A 
ATOM     26  C   UNL     1     -20.456 -43.935  27.913  1.00  0.00     0.010 A 
ATOM     27  C   UNL     1     -21.580 -42.539  26.291  1.00  0.00     0.010 A 
ATOM     28  C   UNL     1     -21.463 -44.892  27.783  1.00  0.00     0.001 A 
ATOM     29  C   UNL     1     -22.585 -43.499  26.165  1.00  0.00     0.001 A 
ATOM     30  C   UNL     1     -22.525 -44.675  26.908  1.00  0.00     0.000 A 
ENDBRANCH  24  25
ENDBRANCH  22  24
ENDBRANCH   1  17
TORSDOF 7
ENDMDL
MODEL 5
REMARK VINA RESULT:   -10.185      1.821      2.526
REMARK INTER + INTRA:         -13.794
REMARK INTER:                 -13.693
REMARK INTRA:                  -0.101
REMARK UNBOUND:                 0.261
REMARK SMILES COc1cc2c(cc1OC)C(O)=C(Cc1cc[n+](Cc3ccccc3)cc1Br)C2
REMARK SMILES IDX 14 1 13 2 11 3 6 4 29 5 7 6 5 7 8 8 4 9 3 10 12 11 9 13
REMARK SMILES IDX 10 14 2 15 1 16 15 17 16 18 27 19 17 20 26 21 18 22 28 23
REMARK SMILES IDX 19 24 20 25 21 26 25 27 22 28 24 29 23 30
REMARK H PARENT 12 12
ROOT
ATOM      1  C   UNL     1     -13.401 -43.440  25.922  1.00  0.00     0.072 C 
ENDROOT
BRANCH   1   2
ATOM      2  C   UNL     1     -14.849 -43.121  25.753  1.00  0.00    -0.019 C 
ATOM      3  C   UNL     1     -15.520 -43.009  24.597  1.00  0.00     0.123 C 
ATOM      4  C   UNL     1     -16.904 -42.642  24.868  1.00  0.00     0.024 A 
ATOM      5  C   UNL     1     -15.739 -42.812  26.937  1.00  0.00     0.071 C 
ATOM      6  C   UNL     1     -17.983 -42.438  24.024  1.00  0.00     0.062 A 
ATOM      7  C   UNL     1     -17.045 -42.519  26.257  1.00  0.00    -0.029 A 
ATOM      8  C   UNL     1     -19.220 -42.095  24.590  1.00  0.00     0.161 A 
ATOM      9  C   UNL     1     -18.257 -42.182  26.838  1.00  0.00     0.055 A 
ATOM     10  C   UNL     1     -19.358 -41.966  25.999  1.00  0.00     0.161 A 
BRANCH   3  11
ATOM     11  O   UNL     1     -15.021 -43.196  23.347  1.00  0.00    -0.507 OA
ATOM     12  H   UNL     1     -15.653 -42.815  22.712  1.00  0.00     0.293 HD
ENDBRANCH   3  11
BRANCH   8  13
ATOM     13  O   UNL     1     -20.365 -41.876  23.861  1.00  0.00    -0.493 OA
ATOM     14  C   UNL     1     -20.407 -42.357  22.525  1.00  0.00     0.278 C 
ENDBRANCH   8  13
BRANCH  10  15
ATOM     15  O   UNL     1     -20.613 -41.635  26.448  1.00  0.00    -0.493 OA
ATOM     16  C   UNL     1     -21.424 -42.675  26.973  1.00  0.00     0.278 C 
ENDBRANCH  10  15
ENDBRANCH   1   2
BRANCH   1  17
ATOM     17  C   UNL     1     -13.069 -43.888  27.331  1.00  0.00    -0.018 A 
ATOM     18  C   UNL     1     -13.993 -44.709  27.995  1.00  0.00     0.076 A 
ATOM     19  C   UNL     1     -11.921 -43.506  28.030  1.00  0.00     0.085 A 
ATOM     20  C   UNL     1     -13.761 -45.127  29.300  1.00  0.00     0.308 A 
ATOM     21  C   UNL     1     -11.726 -43.951  29.337  1.00  0.00     0.324 A 
ATOM     22  N   UNL     1     -12.636 -44.749  29.947  1.00  0.00    -0.200 N 
ATOM     23  Br  UNL     1     -10.582 -42.387  27.290  1.00  0.00    -0.044 Br
BRANCH  22  24
ATOM     24  C   UNL     1     -12.400 -45.196  31.343  1.00  0.00     0.393 C 
BRANCH  24  25
ATOM     25  C   UNL     1     -12.814 -44.134  32.327  1.00  0.00     0.017 A 
ATOM     26  C   UNL     1     -14.141 -44.070  32.783  1.00  0.00     0.010 A 
ATOM     27  C   UNL     1     -11.888 -43.193  32.803  1.00  0.00     0.010 A 
ATOM     28  C   UNL     1     -14.531 -43.079  33.684  1.00  0.00     0.001 A 
ATOM     29  C   UNL     1     -12.283 -42.204  33.704  1.00  0.00     0.001 A 
ATOM     30  C   UNL     1     -13.604 -42.147  34.142  1.00  0.00     0.000 A 
ENDBRANCH  24  25
ENDBRANCH  22  24
ENDBRANCH   1  17
TORSDOF 7
ENDMDL
MODEL 6
REMARK VINA RESULT:    -9.672      2.165      3.590
REMARK INTER + INTRA:         -13.086
REMARK INTER:                 -13.071
REMARK INTRA:                  -0.015
REMARK UNBOUND:                 0.261
REMARK SMILES COc1cc2c(cc1OC)C(O)=C(Cc1cc[n+](Cc3ccccc3)cc1Br)C2
REMARK SMILES IDX 14 1 13 2 11 3 6 4 29 5 7 6 5 7 8 8 4 9 3 10 12 11 9 13
REMARK SMILES IDX 10 14 2 15 1 16 15 17 16 18 27 19 17 20 26 21 18 22 28 23
REMARK SMILES IDX 19 24 20 25 21 26 25 27 22 28 24 29 23 30
REMARK H PARENT 12 12
ROOT
ATOM      1  C   UNL     1     -12.217 -45.662  27.257  1.00  0.00     0.072 C 
ENDROOT
BRANCH   1   2
ATOM      2  C   UNL     1     -13.456 -44.852  27.066  1.00  0.00    -0.019 C 
ATOM      3  C   UNL     1     -14.311 -44.450  28.019  1.00  0.00     0.123 C 
ATOM      4  C   UNL     1     -15.415 -43.720  27.409  1.00  0.00     0.024 A 
ATOM      5  C   UNL     1     -13.930 -44.434  25.691  1.00  0.00     0.071 C 
ATOM      6  C   UNL     1     -16.519 -43.092  27.962  1.00  0.00     0.062 A 
ATOM      7  C   UNL     1     -15.200 -43.707  26.024  1.00  0.00    -0.029 A 
ATOM      8  C   UNL     1     -17.424 -42.450  27.104  1.00  0.00     0.161 A 
ATOM      9  C   UNL     1     -16.081 -43.079  25.158  1.00  0.00     0.055 A 
ATOM     10  C   UNL     1     -17.205 -42.444  25.698  1.00  0.00     0.161 A 
BRANCH   3  11
ATOM     11  O   UNL     1     -14.202 -44.674  29.355  1.00  0.00    -0.507 OA
ATOM     12  H   UNL     1     -14.511 -45.579  29.533  1.00  0.00     0.293 HD
ENDBRANCH   3  11
BRANCH   8  13
ATOM     13  O   UNL     1     -18.550 -41.786  27.530  1.00  0.00    -0.493 OA
ATOM     14  C   UNL     1     -19.745 -42.535  27.691  1.00  0.00     0.278 C 
ENDBRANCH   8  13
BRANCH  10  15
ATOM     15  O   UNL     1     -18.148 -41.781  24.951  1.00  0.00    -0.493 OA
ATOM     16  C   UNL     1     -18.951 -42.548  24.066  1.00  0.00     0.278 C 
ENDBRANCH  10  15
ENDBRANCH   1   2
BRANCH   1  17
ATOM     17  C   UNL     1     -11.429 -45.232  28.478  1.00  0.00    -0.018 A 
ATOM     18  C   UNL     1     -11.238 -46.173  29.501  1.00  0.00     0.076 A 
ATOM     19  C   UNL     1     -10.912 -43.949  28.671  1.00  0.00     0.085 A 
ATOM     20  C   UNL     1     -10.551 -45.830  30.660  1.00  0.00     0.308 A 
ATOM     21  C   UNL     1     -10.227 -43.649  29.848  1.00  0.00     0.324 A 
ATOM     22  N   UNL     1     -10.054 -44.583  30.814  1.00  0.00    -0.200 N 
ATOM     23  Br  UNL     1     -11.097 -42.556  27.399  1.00  0.00    -0.044 Br
BRANCH  22  24
ATOM     24  C   UNL     1      -9.327 -44.225  32.058  1.00  0.00     0.393 C 
BRANCH  24  25
ATOM     25  C   UNL     1     -10.158 -43.319  32.928  1.00  0.00     0.017 A 
ATOM     26  C   UNL     1     -11.553 -43.276  32.776  1.00  0.00     0.010 A 
ATOM     27  C   UNL     1      -9.556 -42.503  33.899  1.00  0.00     0.010 A 
ATOM     28  C   UNL     1     -12.325 -42.427  33.570  1.00  0.00     0.001 A 
ATOM     29  C   UNL     1     -10.332 -41.656  34.690  1.00  0.00     0.001 A 
ATOM     30  C   UNL     1     -11.715 -41.617  34.525  1.00  0.00     0.000 A 
ENDBRANCH  24  25
ENDBRANCH  22  24
ENDBRANCH   1  17
TORSDOF 7
ENDMDL
MODEL 7
REMARK VINA RESULT:    -9.640      3.472      9.688
REMARK INTER + INTRA:         -13.043
REMARK INTER:                 -12.932
REMARK INTRA:                  -0.110
REMARK UNBOUND:                 0.261
REMARK SMILES COc1cc2c(cc1OC)C(O)=C(Cc1cc[n+](Cc3ccccc3)cc1Br)C2
REMARK SMILES IDX 14 1 13 2 11 3 6 4 29 5 7 6 5 7 8 8 4 9 3 10 12 11 9 13
REMARK SMILES IDX 10 14 2 15 1 16 15 17 16 18 27 19 17 20 26 21 18 22 28 23
REMARK SMILES IDX 19 24 20 25 21 26 25 27 22 28 24 29 23 30
REMARK H PARENT 12 12
ROOT
ATOM      1  C   UNL     1     -13.828 -43.543  25.701  1.00  0.00     0.072 C 
ENDROOT
BRANCH   1   2
ATOM      2  C   UNL     1     -12.922 -43.837  26.850  1.00  0.00    -0.019 C 
ATOM      3  C   UNL     1     -12.786 -45.009  27.490  1.00  0.00     0.123 C 
ATOM      4  C   UNL     1     -11.834 -44.862  28.583  1.00  0.00     0.024 A 
ATOM      5  C   UNL     1     -12.065 -42.763  27.484  1.00  0.00     0.071 C 
ATOM      6  C   UNL     1     -11.342 -45.773  29.503  1.00  0.00     0.062 A 
ATOM      7  C   UNL     1     -11.401 -43.529  28.591  1.00  0.00    -0.029 A 
ATOM      8  C   UNL     1     -10.408 -45.330  30.451  1.00  0.00     0.161 A 
ATOM      9  C   UNL     1     -10.479 -43.069  29.517  1.00  0.00     0.055 A 
ATOM     10  C   UNL     1      -9.976 -43.975  30.460  1.00  0.00     0.161 A 
BRANCH   3  11
ATOM     11  O   UNL     1     -13.424 -46.173  27.198  1.00  0.00    -0.507 OA
ATOM     12  H   UNL     1     -13.807 -46.089  26.307  1.00  0.00     0.293 HD
ENDBRANCH   3  11
BRANCH   8  13
ATOM     13  O   UNL     1      -9.842 -46.138  31.409  1.00  0.00    -0.493 OA
ATOM     14  C   UNL     1      -8.720 -46.926  31.038  1.00  0.00     0.278 C 
ENDBRANCH   8  13
BRANCH  10  15
ATOM     15  O   UNL     1      -9.054 -43.650  31.424  1.00  0.00    -0.493 OA
ATOM     16  C   UNL     1      -7.695 -43.533  31.029  1.00  0.00     0.278 C 
ENDBRANCH  10  15
ENDBRANCH   1   2
BRANCH   1  17
ATOM     17  C   UNL     1     -15.210 -43.113  26.151  1.00  0.00    -0.018 A 
ATOM     18  C   UNL     1     -15.480 -43.109  27.528  1.00  0.00     0.076 A 
ATOM     19  C   UNL     1     -16.245 -42.758  25.284  1.00  0.00     0.085 A 
ATOM     20  C   UNL     1     -16.738 -42.755  28.001  1.00  0.00     0.308 A 
ATOM     21  C   UNL     1     -17.492 -42.407  25.802  1.00  0.00     0.324 A 
ATOM     22  N   UNL     1     -17.718 -42.407  27.138  1.00  0.00    -0.200 N 
ATOM     23  Br  UNL     1     -16.055 -42.728  23.399  1.00  0.00    -0.044 Br
BRANCH  22  24
ATOM     24  C   UNL     1     -19.061 -42.036  27.654  1.00  0.00     0.393 C 
BRANCH  24  25
ATOM     25  C   UNL     1     -20.115 -42.214  26.593  1.00  0.00     0.017 A 
ATOM     26  C   UNL     1     -20.885 -41.119  26.170  1.00  0.00     0.010 A 
ATOM     27  C   UNL     1     -20.347 -43.472  26.013  1.00  0.00     0.010 A 
ATOM     28  C   UNL     1     -21.872 -41.284  25.197  1.00  0.00     0.001 A 
ATOM     29  C   UNL     1     -21.335 -43.631  25.041  1.00  0.00     0.001 A 
ATOM     30  C   UNL     1     -22.098 -42.538  24.635  1.00  0.00     0.000 A 
ENDBRANCH  24  25
ENDBRANCH  22  24
ENDBRANCH   1  17
TORSDOF 7
ENDMDL
MODEL 8
REMARK VINA RESULT:    -9.529      3.198      4.723
REMARK INTER + INTRA:         -12.889
REMARK INTER:                 -11.977
REMARK INTRA:                  -0.912
REMARK UNBOUND:                 0.261
REMARK SMILES COc1cc2c(cc1OC)C(O)=C(Cc1cc[n+](Cc3ccccc3)cc1Br)C2
REMARK SMILES IDX 14 1 13 2 11 3 6 4 29 5 7 6 5 7 8 8 4 9 3 10 12 11 9 13
REMARK SMILES IDX 10 14 2 15 1 16 15 17 16 18 27 19 17 20 26 21 18 22 28 23
REMARK SMILES IDX 19 24 20 25 21 26 25 27 22 28 24 29 23 30
REMARK H PARENT 12 12
ROOT
ATOM      1  C   UNL     1     -18.087 -42.006  25.997  1.00  0.00     0.072 C 
ENDROOT
BRANCH   1   2
ATOM      2  C   UNL     1     -19.292 -42.857  26.228  1.00  0.00    -0.019 C 
ATOM      3  C   UNL     1     -20.084 -43.403  25.293  1.00  0.00     0.123 C 
ATOM      4  C   UNL     1     -21.176 -44.122  25.937  1.00  0.00     0.024 A 
ATOM      5  C   UNL     1     -19.804 -43.149  27.622  1.00  0.00     0.071 C 
ATOM      6  C   UNL     1     -22.222 -44.864  25.415  1.00  0.00     0.062 A 
ATOM      7  C   UNL     1     -21.022 -43.974  27.322  1.00  0.00    -0.029 A 
ATOM      8  C   UNL     1     -23.131 -45.458  26.303  1.00  0.00     0.161 A 
ATOM      9  C   UNL     1     -21.907 -44.552  28.218  1.00  0.00     0.055 A 
ATOM     10  C   UNL     1     -22.974 -45.301  27.707  1.00  0.00     0.161 A 
BRANCH   3  11
ATOM     11  O   UNL     1     -19.928 -43.319  23.946  1.00  0.00    -0.507 OA
ATOM     12  H   UNL     1     -19.323 -42.580  23.760  1.00  0.00     0.293 HD
ENDBRANCH   3  11
BRANCH   8  13
ATOM     13  O   UNL     1     -24.203 -46.223  25.909  1.00  0.00    -0.493 OA
ATOM     14  C   UNL     1     -24.951 -45.793  24.780  1.00  0.00     0.278 C 
ENDBRANCH   8  13
BRANCH  10  15
ATOM     15  O   UNL     1     -23.915 -45.929  28.486  1.00  0.00    -0.493 OA
ATOM     16  C   UNL     1     -24.818 -45.116  29.220  1.00  0.00     0.278 C 
ENDBRANCH  10  15
ENDBRANCH   1   2
BRANCH   1  17
ATOM     17  C   UNL     1     -16.794 -42.776  26.177  1.00  0.00    -0.018 A 
ATOM     18  C   UNL     1     -16.354 -43.024  27.486  1.00  0.00     0.076 A 
ATOM     19  C   UNL     1     -15.990 -43.222  25.126  1.00  0.00     0.085 A 
ATOM     20  C   UNL     1     -15.160 -43.697  27.716  1.00  0.00     0.308 A 
ATOM     21  C   UNL     1     -14.800 -43.896  25.402  1.00  0.00     0.324 A 
ATOM     22  N   UNL     1     -14.408 -44.125  26.679  1.00  0.00    -0.200 N 
ATOM     23  Br  UNL     1     -16.427 -42.953  23.301  1.00  0.00    -0.044 Br
BRANCH  22  24
ATOM     24  C   UNL     1     -13.131 -44.838  26.935  1.00  0.00     0.393 C 
BRANCH  24  25
ATOM     25  C   UNL     1     -12.203 -44.000  27.775  1.00  0.00     0.017 A 
ATOM     26  C   UNL     1     -11.658 -42.813  27.259  1.00  0.00     0.010 A 
ATOM     27  C   UNL     1     -11.867 -44.389  29.082  1.00  0.00     0.010 A 
ATOM     28  C   UNL     1     -10.788 -42.042  28.030  1.00  0.00     0.001 A 
ATOM     29  C   UNL     1     -10.996 -43.614  29.848  1.00  0.00     0.001 A 
ATOM     30  C   UNL     1     -10.456 -42.443  29.322  1.00  0.00     0.000 A 
ENDBRANCH  24  25
ENDBRANCH  22  24
ENDBRANCH   1  17
TORSDOF 7
ENDMDL
MODEL 9
REMARK VINA RESULT:    -9.420      2.098      2.871
REMARK INTER + INTRA:         -12.738
REMARK INTER:                 -11.901
REMARK INTRA:                  -0.838
REMARK UNBOUND:                 0.261
REMARK SMILES COc1cc2c(cc1OC)C(O)=C(Cc1cc[n+](Cc3ccccc3)cc1Br)C2
REMARK SMILES IDX 14 1 13 2 11 3 6 4 29 5 7 6 5 7 8 8 4 9 3 10 12 11 9 13
REMARK SMILES IDX 10 14 2 15 1 16 15 17 16 18 27 19 17 20 26 21 18 22 28 23
REMARK SMILES IDX 19 24 20 25 21 26 25 27 22 28 24 29 23 30
REMARK H PARENT 12 12
ROOT
ATOM      1  C   UNL     1     -15.903 -42.181  26.049  1.00  0.00     0.072 C 
ENDROOT
BRANCH   1   2
ATOM      2  C   UNL     1     -17.357 -42.508  25.962  1.00  0.00    -0.019 C 
ATOM      3  C   UNL     1     -18.051 -42.808  24.854  1.00  0.00     0.123 C 
ATOM      4  C   UNL     1     -19.451 -43.016  25.195  1.00  0.00     0.024 A 
ATOM      5  C   UNL     1     -18.255 -42.467  27.179  1.00  0.00     0.071 C 
ATOM      6  C   UNL     1     -20.545 -43.367  24.420  1.00  0.00     0.062 A 
ATOM      7  C   UNL     1     -19.586 -42.812  26.575  1.00  0.00    -0.029 A 
ATOM      8  C   UNL     1     -21.793 -43.505  25.045  1.00  0.00     0.161 A 
ATOM      9  C   UNL     1     -20.808 -42.943  27.214  1.00  0.00     0.055 A 
ATOM     10  C   UNL     1     -21.926 -43.291  26.445  1.00  0.00     0.161 A 
BRANCH   3  11
ATOM     11  O   UNL     1     -17.560 -42.907  23.590  1.00  0.00    -0.507 OA
ATOM     12  H   UNL     1     -16.844 -43.566  23.597  1.00  0.00     0.293 HD
ENDBRANCH   3  11
BRANCH   8  13
ATOM     13  O   UNL     1     -22.948 -43.857  24.388  1.00  0.00    -0.493 OA
ATOM     14  C   UNL     1     -22.856 -44.819  23.347  1.00  0.00     0.278 C 
ENDBRANCH   8  13
BRANCH  10  15
ATOM     15  O   UNL     1     -23.189 -43.460  26.956  1.00  0.00    -0.493 OA
ATOM     16  C   UNL     1     -23.401 -44.536  27.858  1.00  0.00     0.278 C 
ENDBRANCH  10  15
ENDBRANCH   1   2
BRANCH   1  17
ATOM     17  C   UNL     1     -15.083 -43.338  26.585  1.00  0.00    -0.018 A 
ATOM     18  C   UNL     1     -14.923 -43.441  27.975  1.00  0.00     0.076 A 
ATOM     19  C   UNL     1     -14.442 -44.286  25.786  1.00  0.00     0.085 A 
ATOM     20  C   UNL     1     -14.157 -44.461  28.526  1.00  0.00     0.308 A 
ATOM     21  C   UNL     1     -13.684 -45.295  26.380  1.00  0.00     0.324 A 
ATOM     22  N   UNL     1     -13.557 -45.371  27.727  1.00  0.00    -0.200 N 
ATOM     23  Br  UNL     1     -14.538 -44.281  23.893  1.00  0.00    -0.044 Br
BRANCH  22  24
ATOM     24  C   UNL     1     -12.735 -46.453  28.326  1.00  0.00     0.393 C 
BRANCH  24  25
ATOM     25  C   UNL     1     -11.716 -45.892  29.283  1.00  0.00     0.017 A 
ATOM     26  C   UNL     1     -10.630 -45.144  28.801  1.00  0.00     0.010 A 
ATOM     27  C   UNL     1     -11.832 -46.108  30.665  1.00  0.00     0.010 A 
ATOM     28  C   UNL     1      -9.677 -44.634  29.685  1.00  0.00     0.001 A 
ATOM     29  C   UNL     1     -10.876 -45.596  31.543  1.00  0.00     0.001 A 
ATOM     30  C   UNL     1      -9.799 -44.862  31.053  1.00  0.00     0.000 A 
ENDBRANCH  24  25
ENDBRANCH  22  24
ENDBRANCH   1  17
TORSDOF 7
ENDMDL
