MODEL 1
REMARK VINA RESULT:   -10.276      0.000      0.000
REMARK INTER + INTRA:         -19.097
REMARK INTER:                 -18.086
REMARK INTRA:                  -1.011
REMARK UNBOUND:                -1.011
REMARK SMILES C#CCNc1[nH]c(=NCCCC[C@H]2CC[N@H+](Cc3ccccc3)CC2)c(C#N)cc1C#N
REMARK SMILES IDX 9 1 8 2 7 3 6 4 5 5 30 6 26 7 29 8 4 10 3 12 2 13 1 14 31 15
REMARK SMILES IDX 32 16 27 17 28 18 10 19 11 20 12 21 13 22 25 23 14 24 24 25
REMARK SMILES IDX 15 26 16 27 17 29 18 30 19 31 23 32 20 33 22 34 21 35
REMARK H PARENT 6 9 4 11 16 28
ROOT
ATOM      1  C   UNL     1     -11.362 -46.305  29.552  1.00  0.00     0.144 C 
ENDROOT
BRANCH   1   2
ATOM      2  N   UNL     1     -10.242 -45.464  29.967  1.00  0.00    -0.267 NA
BRANCH   2   3
ATOM      3  C   UNL     1     -10.433 -44.591  30.907  1.00  0.00     0.144 A 
ATOM      4  N   UNL     1     -11.590 -43.862  31.106  1.00  0.00    -0.325 N 
ATOM      5  C   UNL     1     -11.816 -42.969  32.147  1.00  0.00     0.123 A 
ATOM      6  C   UNL     1     -10.798 -42.774  33.030  1.00  0.00     0.094 A 
ATOM      7  C   UNL     1      -9.297 -44.357  31.863  1.00  0.00     0.096 A 
ATOM      8  C   UNL     1      -9.525 -43.481  32.858  1.00  0.00     0.046 A 
ATOM      9  H   UNL     1     -12.403 -44.076  30.550  1.00  0.00     0.170 HD
BRANCH   5  10
ATOM     10  N   UNL     1     -13.071 -42.390  32.162  1.00  0.00    -0.360 N 
ATOM     11  H   UNL     1     -13.060 -41.391  31.979  1.00  0.00     0.163 HD
BRANCH  10  12
ATOM     12  C   UNL     1     -14.279 -42.795  32.868  1.00  0.00     0.204 C 
BRANCH  12  13
ATOM     13  C   UNL     1     -14.552 -41.827  33.941  1.00  0.00    -0.085 C 
ATOM     14  C   UNL     1     -14.777 -41.036  34.816  1.00  0.00     0.006 C 
ENDBRANCH  12  13
ENDBRANCH  10  12
ENDBRANCH   5  10
BRANCH   6  15
ATOM     15  C   UNL     1     -10.877 -41.895  34.151  1.00  0.00     0.103 C 
ATOM     16  N   UNL     1     -10.921 -41.165  35.051  1.00  0.00    -0.192 NA
ENDBRANCH   6  15
BRANCH   7  17
ATOM     17  C   UNL     1      -8.061 -45.040  31.715  1.00  0.00     0.103 C 
ATOM     18  N   UNL     1      -7.044 -45.594  31.617  1.00  0.00    -0.192 NA
ENDBRANCH   7  17
ENDBRANCH   2   3
ENDBRANCH   1   2
BRANCH   1  19
ATOM     19  C   UNL     1     -11.315 -46.514  28.037  1.00  0.00     0.024 C 
BRANCH  19  20
ATOM     20  C   UNL     1     -12.662 -46.337  27.326  1.00  0.00     0.002 C 
BRANCH  20  21
ATOM     21  C   UNL     1     -13.478 -45.096  27.704  1.00  0.00     0.004 C 
BRANCH  21  22
ATOM     22  C   UNL     1     -13.870 -44.168  26.538  1.00  0.00    -0.000 C 
ATOM     23  C   UNL     1     -14.254 -45.011  25.312  1.00  0.00     0.065 C 
ATOM     24  C   UNL     1     -15.023 -43.221  26.891  1.00  0.00     0.065 C 
ATOM     25  C   UNL     1     -14.647 -44.136  24.131  1.00  0.00     0.262 C 
ATOM     26  C   UNL     1     -15.441 -42.364  25.701  1.00  0.00     0.262 C 
ATOM     27  N   UNL     1     -15.800 -43.247  24.531  1.00  0.00    -0.331 N 
ATOM     28  H   UNL     1     -16.573 -43.852  24.831  1.00  0.00     0.348 HD
BRANCH  27  29
ATOM     29  C   UNL     1     -16.311 -42.461  23.342  1.00  0.00     0.299 C 
BRANCH  29  30
ATOM     30  C   UNL     1     -17.724 -41.977  23.520  1.00  0.00     0.006 A 
ATOM     31  C   UNL     1     -18.313 -41.131  22.566  1.00  0.00     0.009 A 
ATOM     32  C   UNL     1     -18.481 -42.377  24.633  1.00  0.00     0.009 A 
ATOM     33  C   UNL     1     -19.633 -40.704  22.719  1.00  0.00     0.001 A 
ATOM     34  C   UNL     1     -19.800 -41.947  24.781  1.00  0.00     0.001 A 
ATOM     35  C   UNL     1     -20.376 -41.114  23.824  1.00  0.00     0.000 A 
ENDBRANCH  29  30
ENDBRANCH  27  29
ENDBRANCH  21  22
ENDBRANCH  20  21
ENDBRANCH  19  20
ENDBRANCH   1  19
TORSDOF 13
ENDMDL
MODEL 2
REMARK VINA RESULT:   -10.133      2.713     10.564
REMARK INTER + INTRA:         -18.845
REMARK INTER:                 -17.815
REMARK INTRA:                  -1.030
REMARK UNBOUND:                -1.011
REMARK SMILES C#CCNc1[nH]c(=NCCCC[C@H]2CC[N@H+](Cc3ccccc3)CC2)c(C#N)cc1C#N
REMARK SMILES IDX 9 1 8 2 7 3 6 4 5 5 30 6 26 7 29 8 4 10 3 12 2 13 1 14 31 15
REMARK SMILES IDX 32 16 27 17 28 18 10 19 11 20 12 21 13 22 25 23 14 24 24 25
REMARK SMILES IDX 15 26 16 27 17 29 18 30 19 31 23 32 20 33 22 34 21 35
REMARK H PARENT 6 9 4 11 16 28
ROOT
ATOM      1  C   UNL     1     -16.156 -42.759  24.237  1.00  0.00     0.144 C 
ENDROOT
BRANCH   1   2
ATOM      2  N   UNL     1     -16.807 -42.956  25.530  1.00  0.00    -0.267 NA
BRANCH   2   3
ATOM      3  C   UNL     1     -17.967 -42.413  25.732  1.00  0.00     0.144 A 
ATOM      4  N   UNL     1     -18.861 -42.034  24.749  1.00  0.00    -0.325 N 
ATOM      5  C   UNL     1     -20.128 -41.505  24.965  1.00  0.00     0.123 A 
ATOM      6  C   UNL     1     -20.510 -41.317  26.260  1.00  0.00     0.094 A 
ATOM      7  C   UNL     1     -18.373 -42.181  27.161  1.00  0.00     0.096 A 
ATOM      8  C   UNL     1     -19.597 -41.657  27.356  1.00  0.00     0.046 A 
ATOM      9  H   UNL     1     -18.664 -42.276  23.791  1.00  0.00     0.170 HD
BRANCH   5  10
ATOM     10  N   UNL     1     -20.859 -41.243  23.822  1.00  0.00    -0.360 N 
ATOM     11  H   UNL     1     -21.059 -42.071  23.269  1.00  0.00     0.163 HD
BRANCH  10  12
ATOM     12  C   UNL     1     -20.942 -40.028  23.024  1.00  0.00     0.204 C 
BRANCH  12  13
ATOM     13  C   UNL     1     -19.867 -40.042  22.020  1.00  0.00    -0.085 C 
ATOM     14  C   UNL     1     -18.988 -40.054  21.203  1.00  0.00     0.006 C 
ENDBRANCH  12  13
ENDBRANCH  10  12
ENDBRANCH   5  10
BRANCH   6  15
ATOM     15  C   UNL     1     -21.777 -40.789  26.645  1.00  0.00     0.103 C 
ATOM     16  N   UNL     1     -22.799 -40.335  26.953  1.00  0.00    -0.192 NA
ENDBRANCH   6  15
BRANCH   7  17
ATOM     17  C   UNL     1     -17.504 -42.512  28.233  1.00  0.00     0.103 C 
ATOM     18  N   UNL     1     -16.776 -42.767  29.102  1.00  0.00    -0.192 NA
ENDBRANCH   7  17
ENDBRANCH   2   3
ENDBRANCH   1   2
BRANCH   1  19
ATOM     19  C   UNL     1     -14.752 -43.366  24.270  1.00  0.00     0.024 C 
BRANCH  19  20
ATOM     20  C   UNL     1     -14.477 -44.274  25.474  1.00  0.00     0.002 C 
BRANCH  20  21
ATOM     21  C   UNL     1     -13.715 -43.646  26.646  1.00  0.00     0.004 C 
BRANCH  21  22
ATOM     22  C   UNL     1     -12.962 -44.630  27.563  1.00  0.00    -0.000 C 
ATOM     23  C   UNL     1     -11.635 -44.002  28.016  1.00  0.00     0.065 C 
ATOM     24  C   UNL     1     -13.780 -45.044  28.793  1.00  0.00     0.065 C 
ATOM     25  C   UNL     1     -10.853 -44.940  28.924  1.00  0.00     0.262 C 
ATOM     26  C   UNL     1     -12.988 -45.960  29.720  1.00  0.00     0.262 C 
ATOM     27  N   UNL     1     -11.697 -45.291  30.125  1.00  0.00    -0.331 N 
ATOM     28  H   UNL     1     -11.943 -44.416  30.603  1.00  0.00     0.348 HD
BRANCH  27  29
ATOM     29  C   UNL     1     -10.903 -46.110  31.120  1.00  0.00     0.299 C 
BRANCH  29  30
ATOM     30  C   UNL     1      -9.647 -45.423  31.579  1.00  0.00     0.006 A 
ATOM     31  C   UNL     1      -8.394 -46.030  31.394  1.00  0.00     0.009 A 
ATOM     32  C   UNL     1      -9.706 -44.158  32.183  1.00  0.00     0.009 A 
ATOM     33  C   UNL     1      -7.227 -45.380  31.798  1.00  0.00     0.001 A 
ATOM     34  C   UNL     1      -8.536 -43.511  32.585  1.00  0.00     0.001 A 
ATOM     35  C   UNL     1      -7.298 -44.120  32.390  1.00  0.00     0.000 A 
ENDBRANCH  29  30
ENDBRANCH  27  29
ENDBRANCH  21  22
ENDBRANCH  20  21
ENDBRANCH  19  20
ENDBRANCH   1  19
TORSDOF 13
ENDMDL
MODEL 3
REMARK VINA RESULT:    -9.847      2.538      4.573
REMARK INTER + INTRA:         -18.342
REMARK INTER:                 -17.225
REMARK INTRA:                  -1.116
REMARK UNBOUND:                -1.011
REMARK SMILES C#CCNc1[nH]c(=NCCCC[C@H]2CC[N@H+](Cc3ccccc3)CC2)c(C#N)cc1C#N
REMARK SMILES IDX 9 1 8 2 7 3 6 4 5 5 30 6 26 7 29 8 4 10 3 12 2 13 1 14 31 15
REMARK SMILES IDX 32 16 27 17 28 18 10 19 11 20 12 21 13 22 25 23 14 24 24 25
REMARK SMILES IDX 15 26 16 27 17 29 18 30 19 31 23 32 20 33 22 34 21 35
REMARK H PARENT 6 9 4 11 16 28
ROOT
ATOM      1  C   UNL     1     -13.124 -45.654  27.249  1.00  0.00     0.144 C 
ENDROOT
BRANCH   1   2
ATOM      2  N   UNL     1     -13.261 -45.241  28.644  1.00  0.00    -0.267 NA
BRANCH   2   3
ATOM      3  C   UNL     1     -12.206 -44.838  29.282  1.00  0.00     0.144 A 
ATOM      4  N   UNL     1     -11.209 -44.035  28.762  1.00  0.00    -0.325 N 
ATOM      5  C   UNL     1     -10.108 -43.556  29.461  1.00  0.00     0.123 A 
ATOM      6  C   UNL     1      -9.986 -43.935  30.764  1.00  0.00     0.094 A 
ATOM      7  C   UNL     1     -12.061 -45.282  30.710  1.00  0.00     0.096 A 
ATOM      8  C   UNL     1     -10.984 -44.821  31.372  1.00  0.00     0.046 A 
ATOM      9  H   UNL     1     -11.334 -43.634  27.846  1.00  0.00     0.170 HD
BRANCH   5  10
ATOM     10  N   UNL     1      -9.266 -42.731  28.739  1.00  0.00    -0.360 N 
ATOM     11  H   UNL     1      -8.645 -42.175  29.320  1.00  0.00     0.163 HD
BRANCH  10  12
ATOM     12  C   UNL     1      -9.442 -42.141  27.419  1.00  0.00     0.204 C 
BRANCH  12  13
ATOM     13  C   UNL     1      -8.134 -41.689  26.921  1.00  0.00    -0.085 C 
ATOM     14  C   UNL     1      -7.067 -41.317  26.515  1.00  0.00     0.006 C 
ENDBRANCH  12  13
ENDBRANCH  10  12
ENDBRANCH   5  10
BRANCH   6  15
ATOM     15  C   UNL     1      -8.917 -43.524  31.614  1.00  0.00     0.103 C 
ATOM     16  N   UNL     1      -8.039 -43.216  32.307  1.00  0.00    -0.192 NA
ENDBRANCH   6  15
BRANCH   7  17
ATOM     17  C   UNL     1     -13.023 -46.133  31.315  1.00  0.00     0.103 C 
ATOM     18  N   UNL     1     -13.810 -46.844  31.790  1.00  0.00    -0.192 NA
ENDBRANCH   7  17
ENDBRANCH   2   3
ENDBRANCH   1   2
BRANCH   1  19
ATOM     19  C   UNL     1     -14.108 -44.869  26.380  1.00  0.00     0.024 C 
BRANCH  19  20
ATOM     20  C   UNL     1     -13.877 -43.353  26.365  1.00  0.00     0.002 C 
BRANCH  20  21
ATOM     21  C   UNL     1     -15.129 -42.469  26.344  1.00  0.00     0.004 C 
BRANCH  21  22
ATOM     22  C   UNL     1     -16.198 -42.842  25.299  1.00  0.00    -0.000 C 
ATOM     23  C   UNL     1     -17.586 -42.417  25.804  1.00  0.00     0.065 C 
ATOM     24  C   UNL     1     -15.937 -42.210  23.926  1.00  0.00     0.065 C 
ATOM     25  C   UNL     1     -18.678 -42.768  24.804  1.00  0.00     0.262 C 
ATOM     26  C   UNL     1     -17.045 -42.535  22.930  1.00  0.00     0.262 C 
ATOM     27  N   UNL     1     -18.379 -42.099  23.485  1.00  0.00    -0.331 N 
ATOM     28  H   UNL     1     -18.326 -41.087  23.650  1.00  0.00     0.348 HD
BRANCH  27  29
ATOM     29  C   UNL     1     -19.514 -42.310  22.505  1.00  0.00     0.299 C 
BRANCH  29  30
ATOM     30  C   UNL     1     -19.931 -41.045  21.805  1.00  0.00     0.006 A 
ATOM     31  C   UNL     1     -20.168 -41.042  20.421  1.00  0.00     0.009 A 
ATOM     32  C   UNL     1     -20.106 -39.855  22.527  1.00  0.00     0.009 A 
ATOM     33  C   UNL     1     -20.580 -39.874  19.777  1.00  0.00     0.001 A 
ATOM     34  C   UNL     1     -20.518 -38.689  21.879  1.00  0.00     0.001 A 
ATOM     35  C   UNL     1     -20.756 -38.700  20.506  1.00  0.00     0.000 A 
ENDBRANCH  29  30
ENDBRANCH  27  29
ENDBRANCH  21  22
ENDBRANCH  20  21
ENDBRANCH  19  20
ENDBRANCH   1  19
TORSDOF 13
ENDMDL
MODEL 4
REMARK VINA RESULT:    -9.838      2.633     11.248
REMARK INTER + INTRA:         -18.326
REMARK INTER:                 -17.207
REMARK INTRA:                  -1.119
REMARK UNBOUND:                -1.011
REMARK SMILES C#CCNc1[nH]c(=NCCCC[C@H]2CC[N@H+](Cc3ccccc3)CC2)c(C#N)cc1C#N
REMARK SMILES IDX 9 1 8 2 7 3 6 4 5 5 30 6 26 7 29 8 4 10 3 12 2 13 1 14 31 15
REMARK SMILES IDX 32 16 27 17 28 18 10 19 11 20 12 21 13 22 25 23 14 24 24 25
REMARK SMILES IDX 15 26 16 27 17 29 18 30 19 31 23 32 20 33 22 34 21 35
REMARK H PARENT 6 9 4 11 16 28
ROOT
ATOM      1  C   UNL     1     -15.666 -43.082  23.998  1.00  0.00     0.144 C 
ENDROOT
BRANCH   1   2
ATOM      2  N   UNL     1     -16.798 -43.020  24.920  1.00  0.00    -0.267 NA
BRANCH   2   3
ATOM      3  C   UNL     1     -17.867 -42.385  24.553  1.00  0.00     0.144 A 
ATOM      4  N   UNL     1     -18.189 -42.033  23.256  1.00  0.00    -0.325 N 
ATOM      5  C   UNL     1     -19.361 -41.404  22.854  1.00  0.00     0.123 A 
ATOM      6  C   UNL     1     -20.257 -41.080  23.828  1.00  0.00     0.094 A 
ATOM      7  C   UNL     1     -18.840 -42.004  25.633  1.00  0.00     0.096 A 
ATOM      8  C   UNL     1     -19.965 -41.384  25.232  1.00  0.00     0.046 A 
ATOM      9  H   UNL     1     -17.612 -42.371  22.501  1.00  0.00     0.170 HD
BRANCH   5  10
ATOM     10  N   UNL     1     -19.478 -41.193  21.493  1.00  0.00    -0.360 N 
ATOM     11  H   UNL     1     -19.528 -42.051  20.952  1.00  0.00     0.163 HD
BRANCH  10  12
ATOM     12  C   UNL     1     -19.039 -40.067  20.680  1.00  0.00     0.204 C 
BRANCH  12  13
ATOM     13  C   UNL     1     -20.201 -39.224  20.364  1.00  0.00    -0.085 C 
ATOM     14  C   UNL     1     -21.151 -38.535  20.108  1.00  0.00     0.006 C 
ENDBRANCH  12  13
ENDBRANCH  10  12
ENDBRANCH   5  10
BRANCH   6  15
ATOM     15  C   UNL     1     -21.505 -40.437  23.576  1.00  0.00     0.103 C 
ATOM     16  N   UNL     1     -22.533 -39.934  23.384  1.00  0.00    -0.192 NA
ENDBRANCH   6  15
BRANCH   7  17
ATOM     17  C   UNL     1     -18.575 -42.299  26.996  1.00  0.00     0.103 C 
ATOM     18  N   UNL     1     -18.362 -42.517  28.118  1.00  0.00    -0.192 NA
ENDBRANCH   7  17
ENDBRANCH   2   3
ENDBRANCH   1   2
BRANCH   1  19
ATOM     19  C   UNL     1     -14.580 -43.993  24.575  1.00  0.00     0.024 C 
BRANCH  19  20
ATOM     20  C   UNL     1     -13.906 -43.457  25.843  1.00  0.00     0.002 C 
BRANCH  20  21
ATOM     21  C   UNL     1     -14.523 -43.882  27.180  1.00  0.00     0.004 C 
BRANCH  21  22
ATOM     22  C   UNL     1     -13.695 -44.876  28.018  1.00  0.00    -0.000 C 
ATOM     23  C   UNL     1     -12.210 -44.490  27.958  1.00  0.00     0.065 C 
ATOM     24  C   UNL     1     -14.149 -44.945  29.481  1.00  0.00     0.065 C 
ATOM     25  C   UNL     1     -11.349 -45.447  28.771  1.00  0.00     0.262 C 
ATOM     26  C   UNL     1     -13.270 -45.879  30.306  1.00  0.00     0.262 C 
ATOM     27  N   UNL     1     -11.826 -45.452  30.203  1.00  0.00    -0.331 N 
ATOM     28  H   UNL     1     -11.766 -44.491  30.558  1.00  0.00     0.348 HD
BRANCH  27  29
ATOM     29  C   UNL     1     -10.909 -46.285  31.073  1.00  0.00     0.299 C 
BRANCH  29  30
ATOM     30  C   UNL     1      -9.677 -45.542  31.511  1.00  0.00     0.006 A 
ATOM     31  C   UNL     1      -8.401 -46.089  31.297  1.00  0.00     0.009 A 
ATOM     32  C   UNL     1      -9.783 -44.283  32.122  1.00  0.00     0.009 A 
ATOM     33  C   UNL     1      -7.258 -45.386  31.680  1.00  0.00     0.001 A 
ATOM     34  C   UNL     1      -8.636 -43.584  32.503  1.00  0.00     0.001 A 
ATOM     35  C   UNL     1      -7.376 -44.134  32.280  1.00  0.00     0.000 A 
ENDBRANCH  29  30
ENDBRANCH  27  29
ENDBRANCH  21  22
ENDBRANCH  20  21
ENDBRANCH  19  20
ENDBRANCH   1  19
TORSDOF 13
ENDMDL
MODEL 5
REMARK VINA RESULT:    -9.655      2.697     10.824
REMARK INTER + INTRA:         -18.004
REMARK INTER:                 -16.724
REMARK INTRA:                  -1.280
REMARK UNBOUND:                -1.011
REMARK SMILES C#CCNc1[nH]c(=NCCCC[C@H]2CC[N@H+](Cc3ccccc3)CC2)c(C#N)cc1C#N
REMARK SMILES IDX 9 1 8 2 7 3 6 4 5 5 30 6 26 7 29 8 4 10 3 12 2 13 1 14 31 15
REMARK SMILES IDX 32 16 27 17 28 18 10 19 11 20 12 21 13 22 25 23 14 24 24 25
REMARK SMILES IDX 15 26 16 27 17 29 18 30 19 31 23 32 20 33 22 34 21 35
REMARK H PARENT 6 9 4 11 16 28
ROOT
ATOM      1  C   UNL     1     -16.646 -43.090  23.410  1.00  0.00     0.144 C 
ENDROOT
BRANCH   1   2
ATOM      2  N   UNL     1     -17.399 -41.937  22.922  1.00  0.00    -0.267 NA
BRANCH   2   3
ATOM      3  C   UNL     1     -18.509 -41.621  23.513  1.00  0.00     0.144 A 
ATOM      4  N   UNL     1     -18.833 -41.909  24.825  1.00  0.00    -0.325 N 
ATOM      5  C   UNL     1     -19.998 -41.521  25.476  1.00  0.00     0.123 A 
ATOM      6  C   UNL     1     -20.913 -40.822  24.748  1.00  0.00     0.094 A 
ATOM      7  C   UNL     1     -19.528 -40.875  22.698  1.00  0.00     0.096 A 
ATOM      8  C   UNL     1     -20.658 -40.517  23.336  1.00  0.00     0.046 A 
ATOM      9  H   UNL     1     -18.129 -42.310  25.424  1.00  0.00     0.170 HD
BRANCH   5  10
ATOM     10  N   UNL     1     -20.079 -41.889  26.805  1.00  0.00    -0.360 N 
ATOM     11  H   UNL     1     -20.248 -41.109  27.433  1.00  0.00     0.163 HD
BRANCH  10  12
ATOM     12  C   UNL     1     -19.481 -43.020  27.501  1.00  0.00     0.204 C 
BRANCH  12  13
ATOM     13  C   UNL     1     -18.166 -42.618  28.023  1.00  0.00    -0.085 C 
ATOM     14  C   UNL     1     -17.093 -42.288  28.449  1.00  0.00     0.006 C 
ENDBRANCH  12  13
ENDBRANCH  10  12
ENDBRANCH   5  10
BRANCH   6  15
ATOM     15  C   UNL     1     -22.153 -40.352  25.272  1.00  0.00     0.103 C 
ATOM     16  N   UNL     1     -23.156 -39.944  25.690  1.00  0.00    -0.192 NA
ENDBRANCH   6  15
BRANCH   7  17
ATOM     17  C   UNL     1     -19.292 -40.565  21.333  1.00  0.00     0.103 C 
ATOM     18  N   UNL     1     -19.122 -40.314  20.211  1.00  0.00    -0.192 NA
ENDBRANCH   7  17
ENDBRANCH   2   3
ENDBRANCH   1   2
BRANCH   1  19
ATOM     19  C   UNL     1     -15.466 -42.613  24.259  1.00  0.00     0.024 C 
BRANCH  19  20
ATOM     20  C   UNL     1     -14.919 -43.660  25.236  1.00  0.00     0.002 C 
BRANCH  20  21
ATOM     21  C   UNL     1     -14.042 -43.139  26.380  1.00  0.00     0.004 C 
BRANCH  21  22
ATOM     22  C   UNL     1     -13.332 -44.213  27.226  1.00  0.00    -0.000 C 
ATOM     23  C   UNL     1     -11.955 -43.697  27.668  1.00  0.00     0.065 C 
ATOM     24  C   UNL     1     -14.143 -44.632  28.460  1.00  0.00     0.065 C 
ATOM     25  C   UNL     1     -11.213 -44.727  28.508  1.00  0.00     0.262 C 
ATOM     26  C   UNL     1     -13.390 -45.641  29.319  1.00  0.00     0.262 C 
ATOM     27  N   UNL     1     -12.046 -45.080  29.716  1.00  0.00    -0.331 N 
ATOM     28  H   UNL     1     -12.220 -44.215  30.241  1.00  0.00     0.348 HD
BRANCH  27  29
ATOM     29  C   UNL     1     -11.283 -45.997  30.647  1.00  0.00     0.299 C 
BRANCH  29  30
ATOM     30  C   UNL     1     -10.061 -45.351  31.240  1.00  0.00     0.006 A 
ATOM     31  C   UNL     1     -10.161 -44.124  31.916  1.00  0.00     0.009 A 
ATOM     32  C   UNL     1      -8.807 -45.972  31.142  1.00  0.00     0.009 A 
ATOM     33  C   UNL     1      -9.031 -43.538  32.487  1.00  0.00     0.001 A 
ATOM     34  C   UNL     1      -7.679 -45.383  31.716  1.00  0.00     0.001 A 
ATOM     35  C   UNL     1      -7.792 -44.168  32.390  1.00  0.00     0.000 A 
ENDBRANCH  29  30
ENDBRANCH  27  29
ENDBRANCH  21  22
ENDBRANCH  20  21
ENDBRANCH  19  20
ENDBRANCH   1  19
TORSDOF 13
ENDMDL
MODEL 6
REMARK VINA RESULT:    -9.607      1.621      3.012
REMARK INTER + INTRA:         -17.920
REMARK INTER:                 -16.800
REMARK INTRA:                  -1.120
REMARK UNBOUND:                -1.011
REMARK SMILES C#CCNc1[nH]c(=NCCCC[C@H]2CC[N@H+](Cc3ccccc3)CC2)c(C#N)cc1C#N
REMARK SMILES IDX 9 1 8 2 7 3 6 4 5 5 30 6 26 7 29 8 4 10 3 12 2 13 1 14 31 15
REMARK SMILES IDX 32 16 27 17 28 18 10 19 11 20 12 21 13 22 25 23 14 24 24 25
REMARK SMILES IDX 15 26 16 27 17 29 18 30 19 31 23 32 20 33 22 34 21 35
REMARK H PARENT 6 9 4 11 16 28
ROOT
ATOM      1  C   UNL     1     -14.257 -44.634  28.559  1.00  0.00     0.144 C 
ENDROOT
BRANCH   1   2
ATOM      2  N   UNL     1     -13.443 -45.424  29.480  1.00  0.00    -0.267 NA
BRANCH   2   3
ATOM      3  C   UNL     1     -12.669 -44.805  30.316  1.00  0.00     0.144 A 
ATOM      4  N   UNL     1     -13.079 -43.899  31.275  1.00  0.00    -0.325 N 
ATOM      5  C   UNL     1     -12.258 -43.279  32.209  1.00  0.00     0.123 A 
ATOM      6  C   UNL     1     -10.927 -43.568  32.154  1.00  0.00     0.094 A 
ATOM      7  C   UNL     1     -11.198 -45.105  30.235  1.00  0.00     0.096 A 
ATOM      8  C   UNL     1     -10.412 -44.489  31.136  1.00  0.00     0.046 A 
ATOM      9  H   UNL     1     -14.067 -43.761  31.425  1.00  0.00     0.170 HD
BRANCH   5  10
ATOM     10  N   UNL     1     -12.905 -42.442  33.097  1.00  0.00    -0.360 N 
ATOM     11  H   UNL     1     -12.285 -41.781  33.558  1.00  0.00     0.163 HD
BRANCH  10  12
ATOM     12  C   UNL     1     -14.130 -42.651  33.857  1.00  0.00     0.204 C 
BRANCH  12  13
ATOM     13  C   UNL     1     -15.151 -41.704  33.386  1.00  0.00    -0.085 C 
ATOM     14  C   UNL     1     -15.984 -40.931  33.000  1.00  0.00     0.006 C 
ENDBRANCH  12  13
ENDBRANCH  10  12
ENDBRANCH   5  10
BRANCH   6  15
ATOM     15  C   UNL     1      -9.959 -43.017  33.044  1.00  0.00     0.103 C 
ATOM     16  N   UNL     1      -9.170 -42.592  33.782  1.00  0.00    -0.192 NA
ENDBRANCH   6  15
BRANCH   7  17
ATOM     17  C   UNL     1     -10.685 -46.000  29.260  1.00  0.00     0.103 C 
ATOM     18  N   UNL     1     -10.243 -46.727  28.468  1.00  0.00    -0.192 NA
ENDBRANCH   7  17
ENDBRANCH   2   3
ENDBRANCH   1   2
BRANCH   1  19
ATOM     19  C   UNL     1     -13.759 -44.838  27.127  1.00  0.00     0.024 C 
BRANCH  19  20
ATOM     20  C   UNL     1     -13.761 -43.570  26.264  1.00  0.00     0.002 C 
BRANCH  20  21
ATOM     21  C   UNL     1     -15.001 -42.675  26.363  1.00  0.00     0.004 C 
BRANCH  21  22
ATOM     22  C   UNL     1     -16.148 -43.006  25.390  1.00  0.00    -0.000 C 
ATOM     23  C   UNL     1     -17.465 -42.423  25.925  1.00  0.00     0.065 C 
ATOM     24  C   UNL     1     -15.896 -42.484  23.970  1.00  0.00     0.065 C 
ATOM     25  C   UNL     1     -18.631 -42.727  24.996  1.00  0.00     0.262 C 
ATOM     26  C   UNL     1     -17.075 -42.759  23.044  1.00  0.00     0.262 C 
ATOM     27  N   UNL     1     -18.336 -42.168  23.625  1.00  0.00    -0.331 N 
ATOM     28  H   UNL     1     -18.182 -41.158  23.724  1.00  0.00     0.348 HD
BRANCH  27  29
ATOM     29  C   UNL     1     -19.531 -42.328  22.709  1.00  0.00     0.299 C 
BRANCH  29  30
ATOM     30  C   UNL     1     -19.955 -41.037  22.064  1.00  0.00     0.006 A 
ATOM     31  C   UNL     1     -20.940 -40.233  22.660  1.00  0.00     0.009 A 
ATOM     32  C   UNL     1     -19.360 -40.608  20.868  1.00  0.00     0.009 A 
ATOM     33  C   UNL     1     -21.314 -39.023  22.074  1.00  0.00     0.001 A 
ATOM     34  C   UNL     1     -19.738 -39.397  20.285  1.00  0.00     0.001 A 
ATOM     35  C   UNL     1     -20.712 -38.605  20.889  1.00  0.00     0.000 A 
ENDBRANCH  29  30
ENDBRANCH  27  29
ENDBRANCH  21  22
ENDBRANCH  20  21
ENDBRANCH  19  20
ENDBRANCH   1  19
TORSDOF 13
ENDMDL
MODEL 7
REMARK VINA RESULT:    -9.148      1.415      2.101
REMARK INTER + INTRA:         -17.112
REMARK INTER:                 -16.090
REMARK INTRA:                  -1.022
REMARK UNBOUND:                -1.011
REMARK SMILES C#CCNc1[nH]c(=NCCCC[C@H]2CC[N@H+](Cc3ccccc3)CC2)c(C#N)cc1C#N
REMARK SMILES IDX 9 1 8 2 7 3 6 4 5 5 30 6 26 7 29 8 4 10 3 12 2 13 1 14 31 15
REMARK SMILES IDX 32 16 27 17 28 18 10 19 11 20 12 21 13 22 25 23 14 24 24 25
REMARK SMILES IDX 15 26 16 27 17 29 18 30 19 31 23 32 20 33 22 34 21 35
REMARK H PARENT 6 9 4 11 16 28
ROOT
ATOM      1  C   UNL     1     -11.927 -44.844  28.823  1.00  0.00     0.144 C 
ENDROOT
BRANCH   1   2
ATOM      2  N   UNL     1     -11.606 -45.441  30.118  1.00  0.00    -0.267 NA
BRANCH   2   3
ATOM      3  C   UNL     1     -11.238 -44.663  31.088  1.00  0.00     0.144 A 
ATOM      4  N   UNL     1     -12.014 -43.679  31.671  1.00  0.00    -0.325 N 
ATOM      5  C   UNL     1     -11.641 -42.884  32.748  1.00  0.00     0.123 A 
ATOM      6  C   UNL     1     -10.391 -43.073  33.255  1.00  0.00     0.094 A 
ATOM      7  C   UNL     1      -9.848 -44.854  31.626  1.00  0.00     0.096 A 
ATOM      8  C   UNL     1      -9.495 -44.070  32.661  1.00  0.00     0.046 A 
ATOM      9  H   UNL     1     -12.984 -43.602  31.406  1.00  0.00     0.170 HD
BRANCH   5  10
ATOM     10  N   UNL     1     -12.606 -41.997  33.186  1.00  0.00    -0.360 N 
ATOM     11  H   UNL     1     -12.278 -41.037  33.243  1.00  0.00     0.163 HD
BRANCH  10  12
ATOM     12  C   UNL     1     -13.767 -42.221  34.036  1.00  0.00     0.204 C 
BRANCH  12  13
ATOM     13  C   UNL     1     -14.963 -41.700  33.358  1.00  0.00    -0.085 C 
ATOM     14  C   UNL     1     -15.939 -41.272  32.805  1.00  0.00     0.006 C 
ENDBRANCH  12  13
ENDBRANCH  10  12
ENDBRANCH   5  10
BRANCH   6  15
ATOM     15  C   UNL     1      -9.864 -42.340  34.359  1.00  0.00     0.103 C 
ATOM     16  N   UNL     1      -9.419 -41.730  35.241  1.00  0.00    -0.192 NA
ENDBRANCH   6  15
BRANCH   7  17
ATOM     17  C   UNL     1      -8.972 -45.820  31.067  1.00  0.00     0.103 C 
ATOM     18  N   UNL     1      -8.274 -46.625  30.601  1.00  0.00    -0.192 NA
ENDBRANCH   7  17
ENDBRANCH   2   3
ENDBRANCH   1   2
BRANCH   1  19
ATOM     19  C   UNL     1     -13.320 -45.293  28.379  1.00  0.00     0.024 C 
BRANCH  19  20
ATOM     20  C   UNL     1     -13.645 -45.006  26.909  1.00  0.00     0.002 C 
BRANCH  20  21
ATOM     21  C   UNL     1     -13.422 -43.569  26.425  1.00  0.00     0.004 C 
BRANCH  21  22
ATOM     22  C   UNL     1     -14.673 -42.832  25.908  1.00  0.00    -0.000 C 
ATOM     23  C   UNL     1     -14.952 -43.245  24.455  1.00  0.00     0.065 C 
ATOM     24  C   UNL     1     -15.917 -43.095  26.764  1.00  0.00     0.065 C 
ATOM     25  C   UNL     1     -16.180 -42.539  23.898  1.00  0.00     0.262 C 
ATOM     26  C   UNL     1     -17.156 -42.415  26.193  1.00  0.00     0.262 C 
ATOM     27  N   UNL     1     -17.374 -42.856  24.766  1.00  0.00    -0.331 N 
ATOM     28  H   UNL     1     -17.493 -43.875  24.776  1.00  0.00     0.348 HD
BRANCH  27  29
ATOM     29  C   UNL     1     -18.642 -42.285  24.167  1.00  0.00     0.299 C 
BRANCH  29  30
ATOM     30  C   UNL     1     -19.837 -42.433  25.068  1.00  0.00     0.006 A 
ATOM     31  C   UNL     1     -20.362 -43.705  25.352  1.00  0.00     0.009 A 
ATOM     32  C   UNL     1     -20.434 -41.306  25.652  1.00  0.00     0.009 A 
ATOM     33  C   UNL     1     -21.455 -43.842  26.208  1.00  0.00     0.001 A 
ATOM     34  C   UNL     1     -21.527 -41.448  26.509  1.00  0.00     0.001 A 
ATOM     35  C   UNL     1     -22.035 -42.715  26.788  1.00  0.00     0.000 A 
ENDBRANCH  29  30
ENDBRANCH  27  29
ENDBRANCH  21  22
ENDBRANCH  20  21
ENDBRANCH  19  20
ENDBRANCH   1  19
TORSDOF 13
ENDMDL
MODEL 8
REMARK VINA RESULT:    -8.968      2.274      3.817
REMARK INTER + INTRA:         -16.795
REMARK INTER:                 -15.756
REMARK INTRA:                  -1.040
REMARK UNBOUND:                -1.011
REMARK SMILES C#CCNc1[nH]c(=NCCCC[C@H]2CC[N@H+](Cc3ccccc3)CC2)c(C#N)cc1C#N
REMARK SMILES IDX 9 1 8 2 7 3 6 4 5 5 30 6 26 7 29 8 4 10 3 12 2 13 1 14 31 15
REMARK SMILES IDX 32 16 27 17 28 18 10 19 11 20 12 21 13 22 25 23 14 24 24 25
REMARK SMILES IDX 15 26 16 27 17 29 18 30 19 31 23 32 20 33 22 34 21 35
REMARK H PARENT 6 9 4 11 16 28
ROOT
ATOM      1  C   UNL     1     -12.095 -43.863  27.382  1.00  0.00     0.144 C 
ENDROOT
BRANCH   1   2
ATOM      2  N   UNL     1     -11.523 -42.684  28.029  1.00  0.00    -0.267 NA
BRANCH   2   3
ATOM      3  C   UNL     1     -10.724 -42.851  29.036  1.00  0.00     0.144 A 
ATOM      4  N   UNL     1     -11.112 -43.101  30.338  1.00  0.00    -0.325 N 
ATOM      5  C   UNL     1     -10.256 -43.338  31.408  1.00  0.00     0.123 A 
ATOM      6  C   UNL     1      -8.918 -43.290  31.155  1.00  0.00     0.094 A 
ATOM      7  C   UNL     1      -9.249 -42.770  28.759  1.00  0.00     0.096 A 
ATOM      8  C   UNL     1      -8.431 -42.988  29.805  1.00  0.00     0.046 A 
ATOM      9  H   UNL     1     -12.086 -43.269  30.534  1.00  0.00     0.170 HD
BRANCH   5  10
ATOM     10  N   UNL     1     -10.879 -43.608  32.611  1.00  0.00    -0.360 N 
ATOM     11  H   UNL     1     -11.357 -44.504  32.629  1.00  0.00     0.163 HD
BRANCH  10  12
ATOM     12  C   UNL     1     -11.408 -42.696  33.616  1.00  0.00     0.204 C 
BRANCH  12  13
ATOM     13  C   UNL     1     -10.304 -42.240  34.474  1.00  0.00    -0.085 C 
ATOM     14  C   UNL     1      -9.402 -41.870  35.175  1.00  0.00     0.006 C 
ENDBRANCH  12  13
ENDBRANCH  10  12
ENDBRANCH   5  10
BRANCH   6  15
ATOM     15  C   UNL     1      -7.915 -43.514  32.143  1.00  0.00     0.103 C 
ATOM     16  N   UNL     1      -7.105 -43.673  32.959  1.00  0.00    -0.192 NA
ENDBRANCH   6  15
BRANCH   7  17
ATOM     17  C   UNL     1      -8.763 -42.486  27.456  1.00  0.00     0.103 C 
ATOM     18  N   UNL     1      -8.386 -42.262  26.379  1.00  0.00    -0.192 NA
ENDBRANCH   7  17
ENDBRANCH   2   3
ENDBRANCH   1   2
BRANCH   1  19
ATOM     19  C   UNL     1     -13.620 -43.826  27.498  1.00  0.00     0.024 C 
BRANCH  19  20
ATOM     20  C   UNL     1     -14.360 -43.774  26.156  1.00  0.00     0.002 C 
BRANCH  20  21
ATOM     21  C   UNL     1     -15.384 -42.649  25.981  1.00  0.00     0.004 C 
BRANCH  21  22
ATOM     22  C   UNL     1     -16.508 -42.914  24.960  1.00  0.00    -0.000 C 
ATOM     23  C   UNL     1     -17.865 -42.542  25.576  1.00  0.00     0.065 C 
ATOM     24  C   UNL     1     -16.313 -42.148  23.646  1.00  0.00     0.065 C 
ATOM     25  C   UNL     1     -19.009 -42.790  24.603  1.00  0.00     0.262 C 
ATOM     26  C   UNL     1     -17.472 -42.370  22.681  1.00  0.00     0.262 C 
ATOM     27  N   UNL     1     -18.774 -41.992  23.343  1.00  0.00    -0.331 N 
ATOM     28  H   UNL     1     -18.707 -41.002  23.607  1.00  0.00     0.348 HD
BRANCH  27  29
ATOM     29  C   UNL     1     -19.959 -42.104  22.407  1.00  0.00     0.299 C 
BRANCH  29  30
ATOM     30  C   UNL     1     -20.266 -40.817  21.690  1.00  0.00     0.006 A 
ATOM     31  C   UNL     1     -19.849 -40.625  20.363  1.00  0.00     0.009 A 
ATOM     32  C   UNL     1     -20.988 -39.799  22.330  1.00  0.00     0.009 A 
ATOM     33  C   UNL     1     -20.157 -39.441  19.691  1.00  0.00     0.001 A 
ATOM     34  C   UNL     1     -21.294 -38.617  21.654  1.00  0.00     0.001 A 
ATOM     35  C   UNL     1     -20.881 -38.440  20.335  1.00  0.00     0.000 A 
ENDBRANCH  29  30
ENDBRANCH  27  29
ENDBRANCH  21  22
ENDBRANCH  20  21
ENDBRANCH  19  20
ENDBRANCH   1  19
TORSDOF 13
ENDMDL
MODEL 9
REMARK VINA RESULT:    -8.814      2.617     10.798
REMARK INTER + INTRA:         -16.523
REMARK INTER:                 -15.915
REMARK INTRA:                  -0.608
REMARK UNBOUND:                -1.011
REMARK SMILES C#CCNc1[nH]c(=NCCCC[C@H]2CC[N@H+](Cc3ccccc3)CC2)c(C#N)cc1C#N
REMARK SMILES IDX 9 1 8 2 7 3 6 4 5 5 30 6 26 7 29 8 4 10 3 12 2 13 1 14 31 15
REMARK SMILES IDX 32 16 27 17 28 18 10 19 11 20 12 21 13 22 25 23 14 24 24 25
REMARK SMILES IDX 15 26 16 27 17 29 18 30 19 31 23 32 20 33 22 34 21 35
REMARK H PARENT 6 9 4 11 16 28
ROOT
ATOM      1  C   UNL     1     -15.641 -42.716  24.798  1.00  0.00     0.144 C 
ENDROOT
BRANCH   1   2
ATOM      2  N   UNL     1     -16.537 -43.134  23.722  1.00  0.00    -0.267 NA
BRANCH   2   3
ATOM      3  C   UNL     1     -17.734 -42.637  23.681  1.00  0.00     0.144 A 
ATOM      4  N   UNL     1     -18.821 -43.095  24.399  1.00  0.00    -0.325 N 
ATOM      5  C   UNL     1     -20.091 -42.528  24.400  1.00  0.00     0.123 A 
ATOM      6  C   UNL     1     -20.286 -41.443  23.598  1.00  0.00     0.094 A 
ATOM      7  C   UNL     1     -17.953 -41.458  22.774  1.00  0.00     0.096 A 
ATOM      8  C   UNL     1     -19.189 -40.926  22.774  1.00  0.00     0.046 A 
ATOM      9  H   UNL     1     -18.680 -43.811  25.095  1.00  0.00     0.170 HD
BRANCH   5  10
ATOM     10  N   UNL     1     -21.007 -43.138  25.235  1.00  0.00    -0.360 N 
ATOM     11  H   UNL     1     -21.727 -43.656  24.739  1.00  0.00     0.163 HD
BRANCH  10  12
ATOM     12  C   UNL     1     -21.435 -42.774  26.578  1.00  0.00     0.204 C 
BRANCH  12  13
ATOM     13  C   UNL     1     -21.379 -43.967  27.436  1.00  0.00    -0.085 C 
ATOM     14  C   UNL     1     -21.336 -44.941  28.136  1.00  0.00     0.006 C 
ENDBRANCH  12  13
ENDBRANCH  10  12
ENDBRANCH   5  10
BRANCH   6  15
ATOM     15  C   UNL     1     -21.527 -40.749  23.492  1.00  0.00     0.103 C 
ATOM     16  N   UNL     1     -22.549 -40.205  23.416  1.00  0.00    -0.192 NA
ENDBRANCH   6  15
BRANCH   7  17
ATOM     17  C   UNL     1     -16.899 -40.941  21.977  1.00  0.00     0.103 C 
ATOM     18  N   UNL     1     -16.023 -40.514  21.343  1.00  0.00    -0.192 NA
ENDBRANCH   7  17
ENDBRANCH   2   3
ENDBRANCH   1   2
BRANCH   1  19
ATOM     19  C   UNL     1     -14.326 -43.493  24.704  1.00  0.00     0.024 C 
BRANCH  19  20
ATOM     20  C   UNL     1     -14.180 -44.625  25.727  1.00  0.00     0.002 C 
BRANCH  20  21
ATOM     21  C   UNL     1     -14.549 -44.293  27.176  1.00  0.00     0.004 C 
BRANCH  21  22
ATOM     22  C   UNL     1     -13.438 -44.516  28.221  1.00  0.00    -0.000 C 
ATOM     23  C   UNL     1     -14.066 -44.709  29.610  1.00  0.00     0.065 C 
ATOM     24  C   UNL     1     -12.541 -45.715  27.891  1.00  0.00     0.065 C 
ATOM     25  C   UNL     1     -13.005 -44.931  30.678  1.00  0.00     0.262 C 
ATOM     26  C   UNL     1     -11.497 -45.959  28.975  1.00  0.00     0.262 C 
ATOM     27  N   UNL     1     -12.173 -46.137  30.312  1.00  0.00    -0.331 N 
ATOM     28  H   UNL     1     -12.805 -46.941  30.231  1.00  0.00     0.348 HD
BRANCH  27  29
ATOM     29  C   UNL     1     -11.196 -46.473  31.419  1.00  0.00     0.299 C 
BRANCH  29  30
ATOM     30  C   UNL     1      -9.924 -45.674  31.344  1.00  0.00     0.006 A 
ATOM     31  C   UNL     1      -8.688 -46.318  31.172  1.00  0.00     0.009 A 
ATOM     32  C   UNL     1      -9.955 -44.273  31.427  1.00  0.00     0.009 A 
ATOM     33  C   UNL     1      -7.511 -45.574  31.077  1.00  0.00     0.001 A 
ATOM     34  C   UNL     1      -8.775 -43.533  31.331  1.00  0.00     0.001 A 
ATOM     35  C   UNL     1      -7.555 -44.183  31.154  1.00  0.00     0.000 A 
ENDBRANCH  29  30
ENDBRANCH  27  29
ENDBRANCH  21  22
ENDBRANCH  20  21
ENDBRANCH  19  20
ENDBRANCH   1  19
TORSDOF 13
ENDMDL
