MODEL 1
REMARK VINA RESULT:   -11.350      0.000      0.000
REMARK INTER + INTRA:         -17.499
REMARK INTER:                 -16.658
REMARK INTRA:                  -0.841
REMARK UNBOUND:                -0.841
REMARK SMILES COc1cc2c(cc1OC)S[C@@H](C(=O)CCc1cc[n+](Cc3ccc(F)cc3)cc1)C2
REMARK SMILES IDX 15 1 13 2 14 3 12 4 3 5 4 6 8 7 5 8 7 9 6 10 31 11 11 12
REMARK SMILES IDX 2 13 1 14 9 15 10 16 16 17 17 18 18 19 30 20 19 21 29 22
REMARK SMILES IDX 20 23 21 24 22 25 23 26 28 27 24 28 27 29 25 30 26 31
REMARK H PARENT
ROOT
ATOM      1  C   UNL     1     -14.159 -42.923  25.598  1.00  0.00     0.081 C 
ENDROOT
BRANCH   1   2
ATOM      2  C   UNL     1     -15.063 -42.437  24.472  1.00  0.00     0.146 C 
ATOM      3  O   UNL     1     -14.609 -41.741  23.559  1.00  0.00    -0.298 OA
BRANCH   2   4
ATOM      4  C   UNL     1     -16.536 -42.805  24.500  1.00  0.00     0.123 C 
ATOM      5  C   UNL     1     -20.948 -41.446  25.909  1.00  0.00     0.161 A 
ATOM      6  C   UNL     1     -19.694 -41.876  26.358  1.00  0.00     0.055 A 
ATOM      7  C   UNL     1     -21.150 -41.166  24.535  1.00  0.00     0.161 A 
ATOM      8  C   UNL     1     -18.656 -42.028  25.441  1.00  0.00    -0.029 A 
ATOM      9  C   UNL     1     -20.095 -41.310  23.627  1.00  0.00     0.065 A 
ATOM     10  C   UNL     1     -18.861 -41.740  24.093  1.00  0.00     0.015 A 
ATOM     11  C   UNL     1     -17.255 -42.438  25.804  1.00  0.00     0.059 C 
ATOM     12  S   UNL     1     -17.404 -41.972  23.118  1.00  0.00    -0.114 SA
BRANCH   5  13
ATOM     13  O   UNL     1     -22.038 -41.260  26.722  1.00  0.00    -0.493 OA
ATOM     14  C   UNL     1     -22.789 -42.405  27.100  1.00  0.00     0.278 C 
ENDBRANCH   5  13
BRANCH   7  15
ATOM     15  O   UNL     1     -22.410 -40.740  24.190  1.00  0.00    -0.493 OA
ATOM     16  C   UNL     1     -22.540 -39.934  23.028  1.00  0.00     0.278 C 
ENDBRANCH   7  15
ENDBRANCH   2   4
ENDBRANCH   1   2
BRANCH   1  17
ATOM     17  C   UNL     1     -14.172 -44.447  25.730  1.00  0.00     0.044 C 
BRANCH  17  18
ATOM     18  C   UNL     1     -13.837 -44.914  27.130  1.00  0.00    -0.036 A 
ATOM     19  C   UNL     1     -14.410 -44.309  28.247  1.00  0.00     0.074 A 
ATOM     20  C   UNL     1     -12.902 -45.930  27.330  1.00  0.00     0.074 A 
ATOM     21  C   UNL     1     -14.034 -44.720  29.523  1.00  0.00     0.308 A 
ATOM     22  C   UNL     1     -12.555 -46.308  28.620  1.00  0.00     0.308 A 
ATOM     23  N   UNL     1     -13.122 -45.704  29.691  1.00  0.00    -0.201 N 
BRANCH  23  24
ATOM     24  C   UNL     1     -12.711 -46.110  31.058  1.00  0.00     0.393 C 
BRANCH  24  25
ATOM     25  C   UNL     1     -11.306 -45.654  31.365  1.00  0.00     0.017 A 
ATOM     26  C   UNL     1     -11.061 -44.361  31.859  1.00  0.00     0.013 A 
ATOM     27  C   UNL     1     -10.218 -46.519  31.153  1.00  0.00     0.013 A 
ATOM     28  C   UNL     1      -9.757 -43.950  32.146  1.00  0.00     0.040 A 
ATOM     29  C   UNL     1      -8.917 -46.103  31.442  1.00  0.00     0.040 A 
ATOM     30  C   UNL     1      -8.698 -44.824  31.938  1.00  0.00     0.123 A 
ATOM     31  F   UNL     1      -7.451 -44.428  32.215  1.00  0.00    -0.207 F 
ENDBRANCH  24  25
ENDBRANCH  23  24
ENDBRANCH  17  18
ENDBRANCH   1  17
TORSDOF 8
ENDMDL
MODEL 2
REMARK VINA RESULT:   -11.067      1.219      2.423
REMARK INTER + INTRA:         -17.084
REMARK INTER:                 -16.475
REMARK INTRA:                  -0.609
REMARK UNBOUND:                -0.841
REMARK SMILES COc1cc2c(cc1OC)S[C@@H](C(=O)CCc1cc[n+](Cc3ccc(F)cc3)cc1)C2
REMARK SMILES IDX 15 1 13 2 14 3 12 4 3 5 4 6 8 7 5 8 7 9 6 10 31 11 11 12
REMARK SMILES IDX 2 13 1 14 9 15 10 16 16 17 17 18 18 19 30 20 19 21 29 22
REMARK SMILES IDX 20 23 21 24 22 25 23 26 28 27 24 28 27 29 25 30 26 31
REMARK H PARENT
ROOT
ATOM      1  C   UNL     1     -13.839 -43.740  25.991  1.00  0.00     0.081 C 
ENDROOT
BRANCH   1   2
ATOM      2  C   UNL     1     -14.883 -43.444  24.921  1.00  0.00     0.146 C 
ATOM      3  O   UNL     1     -14.850 -44.028  23.833  1.00  0.00    -0.298 OA
BRANCH   2   4
ATOM      4  C   UNL     1     -15.955 -42.406  25.205  1.00  0.00     0.123 C 
ATOM      5  C   UNL     1     -20.679 -41.432  25.075  1.00  0.00     0.161 A 
ATOM      6  C   UNL     1     -19.544 -41.659  24.289  1.00  0.00     0.055 A 
ATOM      7  C   UNL     1     -20.613 -41.597  26.480  1.00  0.00     0.161 A 
ATOM      8  C   UNL     1     -18.354 -42.043  24.903  1.00  0.00    -0.029 A 
ATOM      9  C   UNL     1     -19.414 -41.997  27.083  1.00  0.00     0.065 A 
ATOM     10  C   UNL     1     -18.300 -42.214  26.285  1.00  0.00     0.015 A 
ATOM     11  C   UNL     1     -17.082 -42.360  24.167  1.00  0.00     0.059 C 
ATOM     12  S   UNL     1     -16.705 -42.732  26.845  1.00  0.00    -0.114 SA
BRANCH   5  13
ATOM     13  O   UNL     1     -21.902 -41.054  24.577  1.00  0.00    -0.493 OA
ATOM     14  C   UNL     1     -21.975 -40.682  23.208  1.00  0.00     0.278 C 
ENDBRANCH   5  13
BRANCH   7  15
ATOM     15  O   UNL     1     -21.779 -41.363  27.167  1.00  0.00    -0.493 OA
ATOM     16  C   UNL     1     -22.704 -42.435  27.285  1.00  0.00     0.278 C 
ENDBRANCH   7  15
ENDBRANCH   2   4
ENDBRANCH   1   2
BRANCH   1  17
ATOM     17  C   UNL     1     -13.801 -45.222  26.365  1.00  0.00     0.044 C 
BRANCH  17  18
ATOM     18  C   UNL     1     -13.085 -45.474  27.674  1.00  0.00    -0.036 A 
ATOM     19  C   UNL     1     -11.895 -46.198  27.717  1.00  0.00     0.074 A 
ATOM     20  C   UNL     1     -13.635 -45.028  28.876  1.00  0.00     0.074 A 
ATOM     21  C   UNL     1     -11.294 -46.465  28.944  1.00  0.00     0.308 A 
ATOM     22  C   UNL     1     -13.002 -45.318  30.078  1.00  0.00     0.308 A 
ATOM     23  N   UNL     1     -11.849 -46.026  30.096  1.00  0.00    -0.201 N 
BRANCH  23  24
ATOM     24  C   UNL     1     -11.210 -46.344  31.396  1.00  0.00     0.393 C 
BRANCH  24  25
ATOM     25  C   UNL     1     -10.012 -45.462  31.647  1.00  0.00     0.017 A 
ATOM     26  C   UNL     1      -8.710 -45.925  31.389  1.00  0.00     0.013 A 
ATOM     27  C   UNL     1     -10.184 -44.161  32.151  1.00  0.00     0.013 A 
ATOM     28  C   UNL     1      -7.608 -45.098  31.619  1.00  0.00     0.040 A 
ATOM     29  C   UNL     1      -9.079 -43.339  32.379  1.00  0.00     0.040 A 
ATOM     30  C   UNL     1      -7.801 -43.813  32.110  1.00  0.00     0.123 A 
ATOM     31  F   UNL     1      -6.744 -43.023  32.327  1.00  0.00    -0.207 F 
ENDBRANCH  24  25
ENDBRANCH  23  24
ENDBRANCH  17  18
ENDBRANCH   1  17
TORSDOF 8
ENDMDL
MODEL 3
REMARK VINA RESULT:   -11.065      1.520      2.612
REMARK INTER + INTRA:         -17.081
REMARK INTER:                 -16.391
REMARK INTRA:                  -0.690
REMARK UNBOUND:                -0.841
REMARK SMILES COc1cc2c(cc1OC)S[C@@H](C(=O)CCc1cc[n+](Cc3ccc(F)cc3)cc1)C2
REMARK SMILES IDX 15 1 13 2 14 3 12 4 3 5 4 6 8 7 5 8 7 9 6 10 31 11 11 12
REMARK SMILES IDX 2 13 1 14 9 15 10 16 16 17 17 18 18 19 30 20 19 21 29 22
REMARK SMILES IDX 20 23 21 24 22 25 23 26 28 27 24 28 27 29 25 30 26 31
REMARK H PARENT
ROOT
ATOM      1  C   UNL     1     -14.020 -43.707  25.898  1.00  0.00     0.081 C 
ENDROOT
BRANCH   1   2
ATOM      2  C   UNL     1     -14.797 -43.493  24.604  1.00  0.00     0.146 C 
ATOM      3  O   UNL     1     -14.627 -44.243  23.639  1.00  0.00    -0.298 OA
BRANCH   2   4
ATOM      4  C   UNL     1     -15.771 -42.330  24.516  1.00  0.00     0.123 C 
ATOM      5  C   UNL     1     -19.705 -40.601  22.320  1.00  0.00     0.161 A 
ATOM      6  C   UNL     1     -18.356 -40.925  22.143  1.00  0.00     0.055 A 
ATOM      7  C   UNL     1     -20.356 -40.918  23.538  1.00  0.00     0.161 A 
ATOM      8  C   UNL     1     -17.664 -41.557  23.175  1.00  0.00    -0.029 A 
ATOM      9  C   UNL     1     -19.654 -41.565  24.561  1.00  0.00     0.065 A 
ATOM     10  C   UNL     1     -18.316 -41.876  24.365  1.00  0.00     0.015 A 
ATOM     11  C   UNL     1     -16.229 -41.997  23.091  1.00  0.00     0.059 C 
ATOM     12  S   UNL     1     -17.259 -42.698  25.519  1.00  0.00    -0.114 SA
BRANCH   5  13
ATOM     13  O   UNL     1     -20.483 -39.981  21.372  1.00  0.00    -0.493 OA
ATOM     14  C   UNL     1     -19.927 -39.791  20.079  1.00  0.00     0.278 C 
ENDBRANCH   5  13
BRANCH   7  15
ATOM     15  O   UNL     1     -21.683 -40.571  23.616  1.00  0.00    -0.493 OA
ATOM     16  C   UNL     1     -22.437 -41.079  24.707  1.00  0.00     0.278 C 
ENDBRANCH   7  15
ENDBRANCH   2   4
ENDBRANCH   1   2
BRANCH   1  17
ATOM     17  C   UNL     1     -13.828 -45.191  26.216  1.00  0.00     0.044 C 
BRANCH  17  18
ATOM     18  C   UNL     1     -13.189 -45.418  27.569  1.00  0.00    -0.036 A 
ATOM     19  C   UNL     1     -12.035 -46.188  27.701  1.00  0.00     0.074 A 
ATOM     20  C   UNL     1     -13.778 -44.900  28.723  1.00  0.00     0.074 A 
ATOM     21  C   UNL     1     -11.508 -46.429  28.966  1.00  0.00     0.308 A 
ATOM     22  C   UNL     1     -13.219 -45.167  29.966  1.00  0.00     0.308 A 
ATOM     23  N   UNL     1     -12.100 -45.920  30.070  1.00  0.00    -0.201 N 
BRANCH  23  24
ATOM     24  C   UNL     1     -11.541 -46.212  31.413  1.00  0.00     0.393 C 
BRANCH  24  25
ATOM     25  C   UNL     1     -10.292 -45.405  31.672  1.00  0.00     0.017 A 
ATOM     26  C   UNL     1     -10.373 -44.089  32.159  1.00  0.00     0.013 A 
ATOM     27  C   UNL     1      -9.025 -45.961  31.422  1.00  0.00     0.013 A 
ATOM     28  C   UNL     1      -9.211 -43.352  32.402  1.00  0.00     0.040 A 
ATOM     29  C   UNL     1      -7.867 -45.220  31.667  1.00  0.00     0.040 A 
ATOM     30  C   UNL     1      -7.970 -43.924  32.156  1.00  0.00     0.123 A 
ATOM     31  F   UNL     1      -6.859 -43.217  32.391  1.00  0.00    -0.207 F 
ENDBRANCH  24  25
ENDBRANCH  23  24
ENDBRANCH  17  18
ENDBRANCH   1  17
TORSDOF 8
ENDMDL
MODEL 4
REMARK VINA RESULT:   -11.021      1.659      2.326
REMARK INTER + INTRA:         -17.017
REMARK INTER:                 -16.176
REMARK INTRA:                  -0.841
REMARK UNBOUND:                -0.841
REMARK SMILES COc1cc2c(cc1OC)S[C@@H](C(=O)CCc1cc[n+](Cc3ccc(F)cc3)cc1)C2
REMARK SMILES IDX 15 1 13 2 14 3 12 4 3 5 4 6 8 7 5 8 7 9 6 10 31 11 11 12
REMARK SMILES IDX 2 13 1 14 9 15 10 16 16 17 17 18 18 19 30 20 19 21 29 22
REMARK SMILES IDX 20 23 21 24 22 25 23 26 28 27 24 28 27 29 25 30 26 31
REMARK H PARENT
ROOT
ATOM      1  C   UNL     1     -13.998 -43.358  26.367  1.00  0.00     0.081 C 
ENDROOT
BRANCH   1   2
ATOM      2  C   UNL     1     -15.419 -42.853  26.590  1.00  0.00     0.146 C 
ATOM      3  O   UNL     1     -15.713 -42.241  27.620  1.00  0.00    -0.298 OA
BRANCH   2   4
ATOM      4  C   UNL     1     -16.472 -43.132  25.531  1.00  0.00     0.123 C 
ATOM      5  C   UNL     1     -20.393 -41.439  23.284  1.00  0.00     0.161 A 
ATOM      6  C   UNL     1     -19.900 -41.918  24.504  1.00  0.00     0.055 A 
ATOM      7  C   UNL     1     -19.509 -41.222  22.199  1.00  0.00     0.161 A 
ATOM      8  C   UNL     1     -18.538 -42.181  24.633  1.00  0.00    -0.029 A 
ATOM      9  C   UNL     1     -18.141 -41.477  22.347  1.00  0.00     0.065 A 
ATOM     10  C   UNL     1     -17.674 -41.953  23.563  1.00  0.00     0.015 A 
ATOM     11  C   UNL     1     -17.881 -42.652  25.900  1.00  0.00     0.059 C 
ATOM     12  S   UNL     1     -15.991 -42.324  23.958  1.00  0.00    -0.114 SA
BRANCH   5  13
ATOM     13  O   UNL     1     -21.714 -41.145  23.046  1.00  0.00    -0.493 OA
ATOM     14  C   UNL     1     -22.355 -40.219  23.912  1.00  0.00     0.278 C 
ENDBRANCH   5  13
BRANCH   7  15
ATOM     15  O   UNL     1     -20.082 -40.741  21.047  1.00  0.00    -0.493 OA
ATOM     16  C   UNL     1     -19.346 -39.792  20.288  1.00  0.00     0.278 C 
ENDBRANCH   7  15
ENDBRANCH   2   4
ENDBRANCH   1   2
BRANCH   1  17
ATOM     17  C   UNL     1     -13.888 -44.872  26.555  1.00  0.00     0.044 C 
BRANCH  17  18
ATOM     18  C   UNL     1     -13.089 -45.250  27.783  1.00  0.00    -0.036 A 
ATOM     19  C   UNL     1     -11.885 -45.943  27.674  1.00  0.00     0.074 A 
ATOM     20  C   UNL     1     -13.572 -44.954  29.058  1.00  0.00     0.074 A 
ATOM     21  C   UNL     1     -11.205 -46.330  28.825  1.00  0.00     0.308 A 
ATOM     22  C   UNL     1     -12.862 -45.361  30.180  1.00  0.00     0.308 A 
ATOM     23  N   UNL     1     -11.696 -46.037  30.050  1.00  0.00    -0.201 N 
BRANCH  23  24
ATOM     24  C   UNL     1     -10.973 -46.482  31.266  1.00  0.00     0.393 C 
BRANCH  24  25
ATOM     25  C   UNL     1      -9.847 -45.538  31.609  1.00  0.00     0.017 A 
ATOM     26  C   UNL     1     -10.112 -44.268  32.152  1.00  0.00     0.013 A 
ATOM     27  C   UNL     1      -8.512 -45.916  31.384  1.00  0.00     0.013 A 
ATOM     28  C   UNL     1      -9.063 -43.404  32.473  1.00  0.00     0.040 A 
ATOM     29  C   UNL     1      -7.467 -45.048  31.706  1.00  0.00     0.040 A 
ATOM     30  C   UNL     1      -7.751 -43.801  32.249  1.00  0.00     0.123 A 
ATOM     31  F   UNL     1      -6.748 -42.971  32.559  1.00  0.00    -0.207 F 
ENDBRANCH  24  25
ENDBRANCH  23  24
ENDBRANCH  17  18
ENDBRANCH   1  17
TORSDOF 8
ENDMDL
MODEL 5
REMARK VINA RESULT:   -10.456      5.360     11.647
REMARK INTER + INTRA:         -16.188
REMARK INTER:                 -15.369
REMARK INTRA:                  -0.819
REMARK UNBOUND:                -0.841
REMARK SMILES COc1cc2c(cc1OC)S[C@@H](C(=O)CCc1cc[n+](Cc3ccc(F)cc3)cc1)C2
REMARK SMILES IDX 15 1 13 2 14 3 12 4 3 5 4 6 8 7 5 8 7 9 6 10 31 11 11 12
REMARK SMILES IDX 2 13 1 14 9 15 10 16 16 17 17 18 18 19 30 20 19 21 29 22
REMARK SMILES IDX 20 23 21 24 22 25 23 26 28 27 24 28 27 29 25 30 26 31
REMARK H PARENT
ROOT
ATOM      1  C   UNL     1     -15.420 -43.443  26.750  1.00  0.00     0.081 C 
ENDROOT
BRANCH   1   2
ATOM      2  C   UNL     1     -14.694 -44.045  27.947  1.00  0.00     0.146 C 
ATOM      3  O   UNL     1     -15.309 -44.314  28.983  1.00  0.00    -0.298 OA
BRANCH   2   4
ATOM      4  C   UNL     1     -13.199 -44.293  27.852  1.00  0.00     0.123 C 
ATOM      5  C   UNL     1      -8.809 -42.348  28.339  1.00  0.00     0.161 A 
ATOM      6  C   UNL     1      -9.977 -42.338  27.568  1.00  0.00     0.055 A 
ATOM      7  C   UNL     1      -8.754 -43.110  29.531  1.00  0.00     0.161 A 
ATOM      8  C   UNL     1     -11.076 -43.085  27.985  1.00  0.00    -0.029 A 
ATOM      9  C   UNL     1      -9.870 -43.846  29.946  1.00  0.00     0.065 A 
ATOM     10  C   UNL     1     -11.017 -43.823  29.166  1.00  0.00     0.015 A 
ATOM     11  C   UNL     1     -12.399 -43.120  27.271  1.00  0.00     0.059 C 
ATOM     12  S   UNL     1     -12.530 -44.667  29.516  1.00  0.00    -0.114 SA
BRANCH   5  13
ATOM     13  O   UNL     1      -7.669 -41.649  28.025  1.00  0.00    -0.493 OA
ATOM     14  C   UNL     1      -7.480 -41.259  26.673  1.00  0.00     0.278 C 
ENDBRANCH   5  13
BRANCH   7  15
ATOM     15  O   UNL     1      -7.571 -43.051  30.226  1.00  0.00    -0.493 OA
ATOM     16  C   UNL     1      -7.485 -43.767  31.450  1.00  0.00     0.278 C 
ENDBRANCH   7  15
ENDBRANCH   2   4
ENDBRANCH   1   2
BRANCH   1  17
ATOM     17  C   UNL     1     -16.518 -42.466  27.174  1.00  0.00     0.044 C 
BRANCH  17  18
ATOM     18  C   UNL     1     -17.697 -42.467  26.225  1.00  0.00    -0.036 A 
ATOM     19  C   UNL     1     -17.534 -42.766  24.874  1.00  0.00     0.074 A 
ATOM     20  C   UNL     1     -18.968 -42.116  26.680  1.00  0.00     0.074 A 
ATOM     21  C   UNL     1     -18.628 -42.698  24.016  1.00  0.00     0.308 A 
ATOM     22  C   UNL     1     -20.032 -42.060  25.789  1.00  0.00     0.308 A 
ATOM     23  N   UNL     1     -19.850 -42.350  24.479  1.00  0.00    -0.201 N 
BRANCH  23  24
ATOM     24  C   UNL     1     -20.998 -42.255  23.545  1.00  0.00     0.393 C 
BRANCH  24  25
ATOM     25  C   UNL     1     -20.737 -41.241  22.459  1.00  0.00     0.017 A 
ATOM     26  C   UNL     1     -20.527 -39.886  22.774  1.00  0.00     0.013 A 
ATOM     27  C   UNL     1     -20.706 -41.639  21.111  1.00  0.00     0.013 A 
ATOM     28  C   UNL     1     -20.279 -38.956  21.762  1.00  0.00     0.040 A 
ATOM     29  C   UNL     1     -20.458 -40.704  20.103  1.00  0.00     0.040 A 
ATOM     30  C   UNL     1     -20.245 -39.372  20.437  1.00  0.00     0.123 A 
ATOM     31  F   UNL     1     -20.006 -38.480  19.470  1.00  0.00    -0.207 F 
ENDBRANCH  24  25
ENDBRANCH  23  24
ENDBRANCH  17  18
ENDBRANCH   1  17
TORSDOF 8
ENDMDL
MODEL 6
REMARK VINA RESULT:   -10.212      4.919     11.012
REMARK INTER + INTRA:         -15.829
REMARK INTER:                 -15.179
REMARK INTRA:                  -0.650
REMARK UNBOUND:                -0.841
REMARK SMILES COc1cc2c(cc1OC)S[C@@H](C(=O)CCc1cc[n+](Cc3ccc(F)cc3)cc1)C2
REMARK SMILES IDX 15 1 13 2 14 3 12 4 3 5 4 6 8 7 5 8 7 9 6 10 31 11 11 12
REMARK SMILES IDX 2 13 1 14 9 15 10 16 16 17 17 18 18 19 30 20 19 21 29 22
REMARK SMILES IDX 20 23 21 24 22 25 23 26 28 27 24 28 27 29 25 30 26 31
REMARK H PARENT
ROOT
ATOM      1  C   UNL     1     -13.772 -44.808  27.555  1.00  0.00     0.081 C 
ENDROOT
BRANCH   1   2
ATOM      2  C   UNL     1     -12.758 -45.931  27.734  1.00  0.00     0.146 C 
ATOM      3  O   UNL     1     -12.639 -46.813  26.878  1.00  0.00    -0.298 OA
BRANCH   2   4
ATOM      4  C   UNL     1     -11.906 -45.960  28.992  1.00  0.00     0.123 C 
ATOM      5  C   UNL     1      -8.780 -43.509  31.733  1.00  0.00     0.161 A 
ATOM      6  C   UNL     1      -8.951 -44.151  30.501  1.00  0.00     0.055 A 
ATOM      7  C   UNL     1      -9.883 -43.350  32.608  1.00  0.00     0.161 A 
ATOM      8  C   UNL     1     -10.211 -44.632  30.151  1.00  0.00    -0.029 A 
ATOM      9  C   UNL     1     -11.146 -43.826  32.237  1.00  0.00     0.065 A 
ATOM     10  C   UNL     1     -11.293 -44.461  31.013  1.00  0.00     0.015 A 
ATOM     11  C   UNL     1     -10.532 -45.296  28.841  1.00  0.00     0.059 C 
ATOM     12  S   UNL     1     -12.796 -45.119  30.355  1.00  0.00    -0.114 SA
BRANCH   5  13
ATOM     13  O   UNL     1      -7.587 -42.995  32.178  1.00  0.00    -0.493 OA
ATOM     14  C   UNL     1      -6.694 -43.874  32.846  1.00  0.00     0.278 C 
ENDBRANCH   5  13
BRANCH   7  15
ATOM     15  O   UNL     1      -9.622 -42.699  33.788  1.00  0.00    -0.493 OA
ATOM     16  C   UNL     1     -10.661 -41.912  34.353  1.00  0.00     0.278 C 
ENDBRANCH   7  15
ENDBRANCH   2   4
ENDBRANCH   1   2
BRANCH   1  17
ATOM     17  C   UNL     1     -13.633 -44.116  26.198  1.00  0.00     0.044 C 
BRANCH  17  18
ATOM     18  C   UNL     1     -14.954 -43.605  25.667  1.00  0.00    -0.036 A 
ATOM     19  C   UNL     1     -15.249 -43.649  24.306  1.00  0.00     0.074 A 
ATOM     20  C   UNL     1     -15.886 -43.028  26.531  1.00  0.00     0.074 A 
ATOM     21  C   UNL     1     -16.448 -43.114  23.842  1.00  0.00     0.308 A 
ATOM     22  C   UNL     1     -17.068 -42.505  26.025  1.00  0.00     0.308 A 
ATOM     23  N   UNL     1     -17.333 -42.555  24.699  1.00  0.00    -0.201 N 
BRANCH  23  24
ATOM     24  C   UNL     1     -18.592 -41.964  24.184  1.00  0.00     0.393 C 
BRANCH  24  25
ATOM     25  C   UNL     1     -19.754 -42.272  25.096  1.00  0.00     0.017 A 
ATOM     26  C   UNL     1     -20.245 -43.584  25.217  1.00  0.00     0.013 A 
ATOM     27  C   UNL     1     -20.366 -41.245  25.835  1.00  0.00     0.013 A 
ATOM     28  C   UNL     1     -21.317 -43.860  26.070  1.00  0.00     0.040 A 
ATOM     29  C   UNL     1     -21.438 -41.527  26.685  1.00  0.00     0.040 A 
ATOM     30  C   UNL     1     -21.902 -42.832  26.796  1.00  0.00     0.123 A 
ATOM     31  F   UNL     1     -22.927 -43.100  27.612  1.00  0.00    -0.207 F 
ENDBRANCH  24  25
ENDBRANCH  23  24
ENDBRANCH  17  18
ENDBRANCH   1  17
TORSDOF 8
ENDMDL
MODEL 7
REMARK VINA RESULT:    -9.989      1.642      2.052
REMARK INTER + INTRA:         -15.502
REMARK INTER:                 -15.010
REMARK INTRA:                  -0.492
REMARK UNBOUND:                -0.841
REMARK SMILES COc1cc2c(cc1OC)S[C@@H](C(=O)CCc1cc[n+](Cc3ccc(F)cc3)cc1)C2
REMARK SMILES IDX 15 1 13 2 14 3 12 4 3 5 4 6 8 7 5 8 7 9 6 10 31 11 11 12
REMARK SMILES IDX 2 13 1 14 9 15 10 16 16 17 17 18 18 19 30 20 19 21 29 22
REMARK SMILES IDX 20 23 21 24 22 25 23 26 28 27 24 28 27 29 25 30 26 31
REMARK H PARENT
ROOT
ATOM      1  C   UNL     1     -14.652 -43.898  24.990  1.00  0.00     0.081 C 
ENDROOT
BRANCH   1   2
ATOM      2  C   UNL     1     -15.453 -42.725  24.438  1.00  0.00     0.146 C 
ATOM      3  O   UNL     1     -14.892 -41.666  24.141  1.00  0.00    -0.298 OA
BRANCH   2   4
ATOM      4  C   UNL     1     -16.956 -42.873  24.274  1.00  0.00     0.123 C 
ATOM      5  C   UNL     1     -21.260 -40.845  25.082  1.00  0.00     0.161 A 
ATOM      6  C   UNL     1     -20.152 -41.442  25.695  1.00  0.00     0.055 A 
ATOM      7  C   UNL     1     -21.240 -40.574  23.692  1.00  0.00     0.161 A 
ATOM      8  C   UNL     1     -19.039 -41.769  24.923  1.00  0.00    -0.029 A 
ATOM      9  C   UNL     1     -20.110 -40.895  22.931  1.00  0.00     0.065 A 
ATOM     10  C   UNL     1     -19.024 -41.489  23.558  1.00  0.00     0.015 A 
ATOM     11  C   UNL     1     -17.774 -42.370  25.470  1.00  0.00     0.059 C 
ATOM     12  S   UNL     1     -17.505 -41.958  22.785  1.00  0.00    -0.114 SA
BRANCH   5  13
ATOM     13  O   UNL     1     -22.407 -40.480  25.745  1.00  0.00    -0.493 OA
ATOM     14  C   UNL     1     -22.449 -40.665  27.152  1.00  0.00     0.278 C 
ENDBRANCH   5  13
BRANCH   7  15
ATOM     15  O   UNL     1     -22.367 -39.977  23.182  1.00  0.00    -0.493 OA
ATOM     16  C   UNL     1     -23.052 -40.646  22.132  1.00  0.00     0.278 C 
ENDBRANCH   7  15
ENDBRANCH   2   4
ENDBRANCH   1   2
BRANCH   1  17
ATOM     17  C   UNL     1     -14.745 -43.992  26.514  1.00  0.00     0.044 C 
BRANCH  17  18
ATOM     18  C   UNL     1     -13.386 -44.052  27.178  1.00  0.00    -0.036 A 
ATOM     19  C   UNL     1     -13.018 -45.137  27.971  1.00  0.00     0.074 A 
ATOM     20  C   UNL     1     -12.491 -42.989  27.049  1.00  0.00     0.074 A 
ATOM     21  C   UNL     1     -11.785 -45.132  28.617  1.00  0.00     0.308 A 
ATOM     22  C   UNL     1     -11.272 -43.025  27.713  1.00  0.00     0.308 A 
ATOM     23  N   UNL     1     -10.937 -44.088  28.481  1.00  0.00    -0.201 N 
BRANCH  23  24
ATOM     24  C   UNL     1      -9.640 -44.087  29.200  1.00  0.00     0.393 C 
BRANCH  24  25
ATOM     25  C   UNL     1      -9.816 -43.688  30.644  1.00  0.00     0.017 A 
ATOM     26  C   UNL     1     -11.074 -43.298  31.136  1.00  0.00     0.013 A 
ATOM     27  C   UNL     1      -8.716 -43.694  31.520  1.00  0.00     0.013 A 
ATOM     28  C   UNL     1     -11.228 -42.937  32.476  1.00  0.00     0.040 A 
ATOM     29  C   UNL     1      -8.876 -43.331  32.859  1.00  0.00     0.040 A 
ATOM     30  C   UNL     1     -10.130 -42.958  33.326  1.00  0.00     0.123 A 
ATOM     31  F   UNL     1     -10.281 -42.612  34.609  1.00  0.00    -0.207 F 
ENDBRANCH  24  25
ENDBRANCH  23  24
ENDBRANCH  17  18
ENDBRANCH   1  17
TORSDOF 8
ENDMDL
MODEL 8
REMARK VINA RESULT:    -9.961      1.747      2.472
REMARK INTER + INTRA:         -15.460
REMARK INTER:                 -14.798
REMARK INTRA:                  -0.663
REMARK UNBOUND:                -0.841
REMARK SMILES COc1cc2c(cc1OC)S[C@@H](C(=O)CCc1cc[n+](Cc3ccc(F)cc3)cc1)C2
REMARK SMILES IDX 15 1 13 2 14 3 12 4 3 5 4 6 8 7 5 8 7 9 6 10 31 11 11 12
REMARK SMILES IDX 2 13 1 14 9 15 10 16 16 17 17 18 18 19 30 20 19 21 29 22
REMARK SMILES IDX 20 23 21 24 22 25 23 26 28 27 24 28 27 29 25 30 26 31
REMARK H PARENT
ROOT
ATOM      1  C   UNL     1     -14.754 -43.685  25.319  1.00  0.00     0.081 C 
ENDROOT
BRANCH   1   2
ATOM      2  C   UNL     1     -15.431 -42.593  24.501  1.00  0.00     0.146 C 
ATOM      3  O   UNL     1     -14.854 -42.080  23.538  1.00  0.00    -0.298 OA
BRANCH   2   4
ATOM      4  C   UNL     1     -16.822 -42.130  24.901  1.00  0.00     0.123 C 
ATOM      5  C   UNL     1     -21.422 -43.450  25.529  1.00  0.00     0.161 A 
ATOM      6  C   UNL     1     -20.420 -43.239  24.574  1.00  0.00     0.055 A 
ATOM      7  C   UNL     1     -21.112 -43.371  26.909  1.00  0.00     0.161 A 
ATOM      8  C   UNL     1     -19.125 -42.948  24.996  1.00  0.00    -0.029 A 
ATOM      9  C   UNL     1     -19.803 -43.093  27.320  1.00  0.00     0.065 A 
ATOM     10  C   UNL     1     -18.827 -42.884  26.356  1.00  0.00     0.015 A 
ATOM     11  C   UNL     1     -17.956 -42.747  24.073  1.00  0.00     0.059 C 
ATOM     12  S   UNL     1     -17.121 -42.534  26.663  1.00  0.00    -0.114 SA
BRANCH   5  13
ATOM     13  O   UNL     1     -22.729 -43.744  25.227  1.00  0.00    -0.493 OA
ATOM     14  C   UNL     1     -23.025 -45.053  24.764  1.00  0.00     0.278 C 
ENDBRANCH   5  13
BRANCH   7  15
ATOM     15  O   UNL     1     -22.156 -43.603  27.771  1.00  0.00    -0.493 OA
ATOM     16  C   UNL     1     -22.095 -44.766  28.586  1.00  0.00     0.278 C 
ENDBRANCH   7  15
ENDBRANCH   2   4
ENDBRANCH   1   2
BRANCH   1  17
ATOM     17  C   UNL     1     -13.375 -43.257  25.824  1.00  0.00     0.044 C 
BRANCH  17  18
ATOM     18  C   UNL     1     -13.028 -43.870  27.163  1.00  0.00    -0.036 A 
ATOM     19  C   UNL     1     -13.801 -44.894  27.708  1.00  0.00     0.074 A 
ATOM     20  C   UNL     1     -11.952 -43.383  27.905  1.00  0.00     0.074 A 
ATOM     21  C   UNL     1     -13.492 -45.394  28.970  1.00  0.00     0.308 A 
ATOM     22  C   UNL     1     -11.680 -43.910  29.160  1.00  0.00     0.308 A 
ATOM     23  N   UNL     1     -12.446 -44.902  29.671  1.00  0.00    -0.201 N 
BRANCH  23  24
ATOM     24  C   UNL     1     -12.149 -45.427  31.027  1.00  0.00     0.393 C 
BRANCH  24  25
ATOM     25  C   UNL     1     -10.664 -45.444  31.293  1.00  0.00     0.017 A 
ATOM     26  C   UNL     1     -10.031 -44.352  31.912  1.00  0.00     0.013 A 
ATOM     27  C   UNL     1      -9.889 -46.555  30.917  1.00  0.00     0.013 A 
ATOM     28  C   UNL     1      -8.656 -44.380  32.160  1.00  0.00     0.040 A 
ATOM     29  C   UNL     1      -8.516 -46.577  31.167  1.00  0.00     0.040 A 
ATOM     30  C   UNL     1      -7.912 -45.491  31.788  1.00  0.00     0.123 A 
ATOM     31  F   UNL     1      -6.596 -45.515  32.028  1.00  0.00    -0.207 F 
ENDBRANCH  24  25
ENDBRANCH  23  24
ENDBRANCH  17  18
ENDBRANCH   1  17
TORSDOF 8
ENDMDL
MODEL 9
REMARK VINA RESULT:    -9.525      5.100     11.453
REMARK INTER + INTRA:         -14.821
REMARK INTER:                 -14.726
REMARK INTRA:                  -0.096
REMARK UNBOUND:                -0.841
REMARK SMILES COc1cc2c(cc1OC)S[C@@H](C(=O)CCc1cc[n+](Cc3ccc(F)cc3)cc1)C2
REMARK SMILES IDX 15 1 13 2 14 3 12 4 3 5 4 6 8 7 5 8 7 9 6 10 31 11 11 12
REMARK SMILES IDX 2 13 1 14 9 15 10 16 16 17 17 18 18 19 30 20 19 21 29 22
REMARK SMILES IDX 20 23 21 24 22 25 23 26 28 27 24 28 27 29 25 30 26 31
REMARK H PARENT
ROOT
ATOM      1  C   UNL     1     -14.801 -43.922  27.495  1.00  0.00     0.081 C 
ENDROOT
BRANCH   1   2
ATOM      2  C   UNL     1     -13.727 -44.987  27.315  1.00  0.00     0.146 C 
ATOM      3  O   UNL     1     -13.623 -45.601  26.249  1.00  0.00    -0.298 OA
BRANCH   2   4
ATOM      4  C   UNL     1     -12.796 -45.296  28.475  1.00  0.00     0.123 C 
ATOM      5  C   UNL     1      -9.377 -43.553  31.401  1.00  0.00     0.161 A 
ATOM      6  C   UNL     1      -9.661 -43.929  30.084  1.00  0.00     0.055 A 
ATOM      7  C   UNL     1     -10.410 -43.533  32.371  1.00  0.00     0.161 A 
ATOM      8  C   UNL     1     -10.963 -44.287  29.742  1.00  0.00    -0.029 A 
ATOM      9  C   UNL     1     -11.717 -43.880  32.010  1.00  0.00     0.065 A 
ATOM     10  C   UNL     1     -11.975 -44.253  30.699  1.00  0.00     0.015 A 
ATOM     11  C   UNL     1     -11.404 -44.664  28.355  1.00  0.00     0.059 C 
ATOM     12  S   UNL     1     -13.550 -44.714  30.040  1.00  0.00    -0.114 SA
BRANCH   5  13
ATOM     13  O   UNL     1      -8.132 -43.180  31.848  1.00  0.00    -0.493 OA
ATOM     14  C   UNL     1      -7.154 -44.196  32.011  1.00  0.00     0.278 C 
ENDBRANCH   5  13
BRANCH   7  15
ATOM     15  O   UNL     1     -10.038 -43.140  33.633  1.00  0.00    -0.493 OA
ATOM     16  C   UNL     1     -10.714 -42.030  34.206  1.00  0.00     0.278 C 
ENDBRANCH   7  15
ENDBRANCH   2   4
ENDBRANCH   1   2
BRANCH   1  17
ATOM     17  C   UNL     1     -14.882 -42.976  26.296  1.00  0.00     0.044 C 
BRANCH  17  18
ATOM     18  C   UNL     1     -16.288 -42.841  25.754  1.00  0.00    -0.036 A 
ATOM     19  C   UNL     1     -16.562 -43.040  24.402  1.00  0.00     0.074 A 
ATOM     20  C   UNL     1     -17.334 -42.460  26.595  1.00  0.00     0.074 A 
ATOM     21  C   UNL     1     -17.855 -42.847  23.925  1.00  0.00     0.308 A 
ATOM     22  C   UNL     1     -18.609 -42.278  26.076  1.00  0.00     0.308 A 
ATOM     23  N   UNL     1     -18.851 -42.474  24.759  1.00  0.00    -0.201 N 
BRANCH  23  24
ATOM     24  C   UNL     1     -20.217 -42.245  24.228  1.00  0.00     0.393 C 
BRANCH  24  25
ATOM     25  C   UNL     1     -20.217 -41.180  23.159  1.00  0.00     0.017 A 
ATOM     26  C   UNL     1     -19.251 -41.184  22.138  1.00  0.00     0.013 A 
ATOM     27  C   UNL     1     -21.185 -40.160  23.175  1.00  0.00     0.013 A 
ATOM     28  C   UNL     1     -19.263 -40.197  21.149  1.00  0.00     0.040 A 
ATOM     29  C   UNL     1     -21.192 -39.176  22.184  1.00  0.00     0.040 A 
ATOM     30  C   UNL     1     -20.233 -39.204  21.180  1.00  0.00     0.123 A 
ATOM     31  F   UNL     1     -20.243 -38.261  20.231  1.00  0.00    -0.207 F 
ENDBRANCH  24  25
ENDBRANCH  23  24
ENDBRANCH  17  18
ENDBRANCH   1  17
TORSDOF 8
ENDMDL
