MODEL 1
REMARK VINA RESULT:    -9.798      0.000      0.000
REMARK INTER + INTRA:         -10.084
REMARK INTER:                 -10.084
REMARK INTRA:                   0.000
REMARK UNBOUND:                 0.000
REMARK SMILES CC1=C[C@H]2Cc3nc4cc(Cl)ccc4c(N)c3[C@@H](C1)C2
REMARK SMILES IDX 15 1 17 2 6 3 7 4 8 5 9 6 10 7 11 8 12 9 13 10 14 11 5 12
REMARK SMILES IDX 4 13 3 14 2 15 1 16 19 17 18 18 20 19 16 20
REMARK H PARENT 16 21 16 22
ROOT
ATOM      1  C   UNL     1     -13.246 -45.684  27.559  1.00  0.00     0.046 A 
ATOM      2  C   UNL     1     -13.238 -45.489  28.957  1.00  0.00     0.001 A 
ATOM      3  C   UNL     1     -14.123 -44.539  29.486  1.00  0.00     0.047 A 
ATOM      4  N   UNL     1     -14.969 -43.809  28.725  1.00  0.00    -0.252 NA
ATOM      5  C   UNL     1     -14.921 -43.938  27.396  1.00  0.00     0.074 A 
ATOM      6  C   UNL     1     -15.758 -43.123  26.647  1.00  0.00     0.049 A 
ATOM      7  C   UNL     1     -15.753 -43.166  25.256  1.00  0.00     0.043 A 
ATOM      8  Cl  UNL     1     -16.801 -42.135  24.362  1.00  0.00    -0.084 Cl
ATOM      9  C   UNL     1     -14.901 -44.029  24.587  1.00  0.00     0.021 A 
ATOM     10  C   UNL     1     -14.057 -44.860  25.325  1.00  0.00     0.014 A 
ATOM     11  C   UNL     1     -14.059 -44.844  26.744  1.00  0.00     0.024 A 
ATOM     12  C   UNL     1     -14.230 -44.280  30.974  1.00  0.00     0.064 C 
ATOM     13  C   UNL     1     -13.080 -44.879  31.793  1.00  0.00     0.018 C 
ATOM     14  C   UNL     1     -11.826 -44.038  31.664  1.00  0.00    -0.024 C 
ATOM     15  C   UNL     1     -10.822 -44.347  30.824  1.00  0.00    -0.076 C 
ATOM     16  C   UNL     1      -9.579 -43.513  30.719  1.00  0.00     0.039 C 
ATOM     17  C   UNL     1     -10.893 -45.556  29.911  1.00  0.00     0.039 C 
ATOM     18  C   UNL     1     -12.283 -46.236  29.882  1.00  0.00     0.028 C 
ATOM     19  C   UNL     1     -12.837 -46.309  31.310  1.00  0.00     0.017 C 
ENDROOT
BRANCH   1  20
ATOM     20  N   UNL     1     -12.304 -46.556  26.958  1.00  0.00    -0.398 N 
ATOM     21  H   UNL     1     -11.682 -46.110  26.295  1.00  0.00     0.156 HD
ATOM     22  H   UNL     1     -11.769 -47.096  27.629  1.00  0.00     0.156 HD
ENDBRANCH   1  20
TORSDOF 1
ENDMDL
MODEL 2
REMARK VINA RESULT:    -9.681      4.282      8.042
REMARK INTER + INTRA:          -9.964
REMARK INTER:                  -9.964
REMARK INTRA:                   0.000
REMARK UNBOUND:                 0.000
REMARK SMILES CC1=C[C@H]2Cc3nc4cc(Cl)ccc4c(N)c3[C@@H](C1)C2
REMARK SMILES IDX 15 1 17 2 6 3 7 4 8 5 9 6 10 7 11 8 12 9 13 10 14 11 5 12
REMARK SMILES IDX 4 13 3 14 2 15 1 16 19 17 18 18 20 19 16 20
REMARK H PARENT 16 21 16 22
ROOT
ATOM      1  C   UNL     1     -17.646 -42.519  24.143  1.00  0.00     0.046 A 
ATOM      2  C   UNL     1     -18.788 -42.108  24.864  1.00  0.00     0.001 A 
ATOM      3  C   UNL     1     -18.682 -42.026  26.260  1.00  0.00     0.047 A 
ATOM      4  N   UNL     1     -17.548 -42.321  26.936  1.00  0.00    -0.252 NA
ATOM      5  C   UNL     1     -16.492 -42.783  26.260  1.00  0.00     0.074 A 
ATOM      6  C   UNL     1     -15.371 -43.138  26.996  1.00  0.00     0.049 A 
ATOM      7  C   UNL     1     -14.237 -43.658  26.381  1.00  0.00     0.043 A 
ATOM      8  Cl  UNL     1     -12.869 -44.092  27.330  1.00  0.00    -0.084 Cl
ATOM      9  C   UNL     1     -14.207 -43.837  25.008  1.00  0.00     0.021 A 
ATOM     10  C   UNL     1     -15.324 -43.479  24.251  1.00  0.00     0.014 A 
ATOM     11  C   UNL     1     -16.484 -42.931  24.857  1.00  0.00     0.024 A 
ATOM     12  C   UNL     1     -19.829 -41.556  27.128  1.00  0.00     0.064 C 
ATOM     13  C   UNL     1     -21.180 -41.512  26.403  1.00  0.00     0.018 C 
ATOM     14  C   UNL     1     -21.764 -42.902  26.258  1.00  0.00    -0.024 C 
ATOM     15  C   UNL     1     -21.663 -43.625  25.128  1.00  0.00    -0.076 C 
ATOM     16  C   UNL     1     -22.260 -44.994  24.995  1.00  0.00     0.039 C 
ATOM     17  C   UNL     1     -20.916 -43.102  23.916  1.00  0.00     0.039 C 
ATOM     18  C   UNL     1     -20.119 -41.803  24.184  1.00  0.00     0.028 C 
ATOM     19  C   UNL     1     -20.973 -40.856  25.037  1.00  0.00     0.017 C 
ENDROOT
BRANCH   1  20
ATOM     20  N   UNL     1     -17.724 -42.718  22.743  1.00  0.00    -0.398 N 
ATOM     21  H   UNL     1     -17.101 -43.431  22.384  1.00  0.00     0.156 HD
ATOM     22  H   UNL     1     -18.668 -42.880  22.410  1.00  0.00     0.156 HD
ENDBRANCH   1  20
TORSDOF 1
ENDMDL
MODEL 3
REMARK VINA RESULT:    -9.424      3.327      5.840
REMARK INTER + INTRA:          -9.699
REMARK INTER:                  -9.699
REMARK INTRA:                   0.000
REMARK UNBOUND:                 0.000
REMARK SMILES CC1=C[C@H]2Cc3nc4cc(Cl)ccc4c(N)c3[C@@H](C1)C2
REMARK SMILES IDX 15 1 17 2 6 3 7 4 8 5 9 6 10 7 11 8 12 9 13 10 14 11 5 12
REMARK SMILES IDX 4 13 3 14 2 15 1 16 19 17 18 18 20 19 16 20
REMARK H PARENT 16 21 16 22
ROOT
ATOM      1  C   UNL     1     -13.245 -45.378  31.552  1.00  0.00     0.046 A 
ATOM      2  C   UNL     1     -12.346 -45.078  30.506  1.00  0.00     0.001 A 
ATOM      3  C   UNL     1     -11.782 -43.795  30.481  1.00  0.00     0.047 A 
ATOM      4  N   UNL     1     -12.060 -42.844  31.401  1.00  0.00    -0.252 NA
ATOM      5  C   UNL     1     -12.970 -43.103  32.345  1.00  0.00     0.074 A 
ATOM      6  C   UNL     1     -13.277 -42.080  33.231  1.00  0.00     0.049 A 
ATOM      7  C   UNL     1     -14.235 -42.248  34.226  1.00  0.00     0.043 A 
ATOM      8  Cl  UNL     1     -14.592 -40.954  35.301  1.00  0.00    -0.084 Cl
ATOM      9  C   UNL     1     -14.909 -43.452  34.350  1.00  0.00     0.021 A 
ATOM     10  C   UNL     1     -14.607 -44.494  33.472  1.00  0.00     0.014 A 
ATOM     11  C   UNL     1     -13.622 -44.348  32.462  1.00  0.00     0.024 A 
ATOM     12  C   UNL     1     -10.773 -43.379  29.431  1.00  0.00     0.064 C 
ATOM     13  C   UNL     1     -10.689 -44.337  28.236  1.00  0.00     0.018 C 
ATOM     14  C   UNL     1     -11.859 -44.136  27.295  1.00  0.00    -0.024 C 
ATOM     15  C   UNL     1     -12.949 -44.924  27.305  1.00  0.00    -0.076 C 
ATOM     16  C   UNL     1     -14.093 -44.721  26.356  1.00  0.00     0.039 C 
ATOM     17  C   UNL     1     -13.098 -46.062  28.296  1.00  0.00     0.039 C 
ATOM     18  C   UNL     1     -12.014 -46.075  29.400  1.00  0.00     0.028 C 
ATOM     19  C   UNL     1     -10.649 -45.769  28.769  1.00  0.00     0.017 C 
ENDROOT
BRANCH   1  20
ATOM     20  N   UNL     1     -13.922 -46.622  31.570  1.00  0.00    -0.398 N 
ATOM     21  H   UNL     1     -13.402 -47.378  32.000  1.00  0.00     0.156 HD
ATOM     22  H   UNL     1     -14.853 -46.570  31.967  1.00  0.00     0.156 HD
ENDBRANCH   1  20
TORSDOF 1
ENDMDL
MODEL 4
REMARK VINA RESULT:    -9.397      4.299      5.817
REMARK INTER + INTRA:          -9.672
REMARK INTER:                  -9.672
REMARK INTRA:                   0.000
REMARK UNBOUND:                 0.000
REMARK SMILES CC1=C[C@H]2Cc3nc4cc(Cl)ccc4c(N)c3[C@@H](C1)C2
REMARK SMILES IDX 15 1 17 2 6 3 7 4 8 5 9 6 10 7 11 8 12 9 13 10 14 11 5 12
REMARK SMILES IDX 4 13 3 14 2 15 1 16 19 17 18 18 20 19 16 20
REMARK H PARENT 16 21 16 22
ROOT
ATOM      1  C   UNL     1     -12.534 -44.429  31.233  1.00  0.00     0.046 A 
ATOM      2  C   UNL     1     -11.125 -44.510  31.206  1.00  0.00     0.001 A 
ATOM      3  C   UNL     1     -10.412 -43.789  32.174  1.00  0.00     0.047 A 
ATOM      4  N   UNL     1     -11.008 -43.026  33.118  1.00  0.00    -0.252 NA
ATOM      5  C   UNL     1     -12.337 -42.888  33.096  1.00  0.00     0.074 A 
ATOM      6  C   UNL     1     -12.905 -42.044  34.039  1.00  0.00     0.049 A 
ATOM      7  C   UNL     1     -14.277 -41.815  34.071  1.00  0.00     0.043 A 
ATOM      8  Cl  UNL     1     -14.943 -40.757  35.253  1.00  0.00    -0.084 Cl
ATOM      9  C   UNL     1     -15.109 -42.427  33.149  1.00  0.00     0.021 A 
ATOM     10  C   UNL     1     -14.555 -43.284  32.197  1.00  0.00     0.014 A 
ATOM     11  C   UNL     1     -13.161 -43.545  32.158  1.00  0.00     0.024 A 
ATOM     12  C   UNL     1      -8.902 -43.839  32.265  1.00  0.00     0.064 C 
ATOM     13  C   UNL     1      -8.225 -44.449  31.032  1.00  0.00     0.018 C 
ATOM     14  C   UNL     1      -8.195 -43.462  29.883  1.00  0.00    -0.024 C 
ATOM     15  C   UNL     1      -9.087 -43.484  28.876  1.00  0.00    -0.076 C 
ATOM     16  C   UNL     1      -9.035 -42.509  27.738  1.00  0.00     0.039 C 
ATOM     17  C   UNL     1     -10.219 -44.492  28.840  1.00  0.00     0.039 C 
ATOM     18  C   UNL     1     -10.372 -45.308  30.146  1.00  0.00     0.028 C 
ATOM     19  C   UNL     1      -8.981 -45.721  30.646  1.00  0.00     0.017 C 
ENDROOT
BRANCH   1  20
ATOM     20  N   UNL     1     -13.301 -45.053  30.219  1.00  0.00    -0.398 N 
ATOM     21  H   UNL     1     -14.289 -45.132  30.427  1.00  0.00     0.156 HD
ATOM     22  H   UNL     1     -13.170 -44.641  29.302  1.00  0.00     0.156 HD
ENDBRANCH   1  20
TORSDOF 1
ENDMDL
MODEL 5
REMARK VINA RESULT:    -9.147      3.619      6.690
REMARK INTER + INTRA:          -9.414
REMARK INTER:                  -9.414
REMARK INTRA:                   0.000
REMARK UNBOUND:                 0.000
REMARK SMILES CC1=C[C@H]2Cc3nc4cc(Cl)ccc4c(N)c3[C@@H](C1)C2
REMARK SMILES IDX 15 1 17 2 6 3 7 4 8 5 9 6 10 7 11 8 12 9 13 10 14 11 5 12
REMARK SMILES IDX 4 13 3 14 2 15 1 16 19 17 18 18 20 19 16 20
REMARK H PARENT 16 21 16 22
ROOT
ATOM      1  C   UNL     1     -11.890 -44.447  31.475  1.00  0.00     0.046 A 
ATOM      2  C   UNL     1     -12.039 -45.202  30.291  1.00  0.00     0.001 A 
ATOM      3  C   UNL     1     -10.872 -45.627  29.640  1.00  0.00     0.047 A 
ATOM      4  N   UNL     1      -9.628 -45.347  30.089  1.00  0.00    -0.252 NA
ATOM      5  C   UNL     1      -9.488 -44.568  31.166  1.00  0.00     0.074 A 
ATOM      6  C   UNL     1      -8.196 -44.248  31.556  1.00  0.00     0.049 A 
ATOM      7  C   UNL     1      -7.954 -43.417  32.645  1.00  0.00     0.043 A 
ATOM      8  Cl  UNL     1      -6.337 -43.039  33.094  1.00  0.00    -0.084 Cl
ATOM      9  C   UNL     1      -9.011 -42.884  33.365  1.00  0.00     0.021 A 
ATOM     10  C   UNL     1     -10.317 -43.201  32.990  1.00  0.00     0.014 A 
ATOM     11  C   UNL     1     -10.584 -44.060  31.894  1.00  0.00     0.024 A 
ATOM     12  C   UNL     1     -10.914 -46.479  28.389  1.00  0.00     0.064 C 
ATOM     13  C   UNL     1     -12.295 -46.540  27.725  1.00  0.00     0.018 C 
ATOM     14  C   UNL     1     -12.584 -45.268  26.955  1.00  0.00    -0.024 C 
ATOM     15  C   UNL     1     -13.338 -44.269  27.450  1.00  0.00    -0.076 C 
ATOM     16  C   UNL     1     -13.629 -43.022  26.669  1.00  0.00     0.039 C 
ATOM     17  C   UNL     1     -13.929 -44.336  28.844  1.00  0.00     0.039 C 
ATOM     18  C   UNL     1     -13.404 -45.521  29.690  1.00  0.00     0.028 C 
ATOM     19  C   UNL     1     -13.343 -46.778  28.812  1.00  0.00     0.017 C 
ENDROOT
BRANCH   1  20
ATOM     20  N   UNL     1     -13.030 -43.904  32.118  1.00  0.00    -0.398 N 
ATOM     21  H   UNL     1     -13.167 -42.912  31.964  1.00  0.00     0.156 HD
ATOM     22  H   UNL     1     -13.886 -44.409  31.918  1.00  0.00     0.156 HD
ENDBRANCH   1  20
TORSDOF 1
ENDMDL
MODEL 6
REMARK VINA RESULT:    -9.038      1.958      3.015
REMARK INTER + INTRA:          -9.302
REMARK INTER:                  -9.302
REMARK INTRA:                   0.000
REMARK UNBOUND:                 0.000
REMARK SMILES CC1=C[C@H]2Cc3nc4cc(Cl)ccc4c(N)c3[C@@H](C1)C2
REMARK SMILES IDX 15 1 17 2 6 3 7 4 8 5 9 6 10 7 11 8 12 9 13 10 14 11 5 12
REMARK SMILES IDX 4 13 3 14 2 15 1 16 19 17 18 18 20 19 16 20
REMARK H PARENT 16 21 16 22
ROOT
ATOM      1  C   UNL     1     -13.042 -44.705  29.717  1.00  0.00     0.046 A 
ATOM      2  C   UNL     1     -11.873 -44.245  30.361  1.00  0.00     0.001 A 
ATOM      3  C   UNL     1     -11.088 -43.299  29.688  1.00  0.00     0.047 A 
ATOM      4  N   UNL     1     -11.398 -42.815  28.464  1.00  0.00    -0.252 NA
ATOM      5  C   UNL     1     -12.462 -43.307  27.822  1.00  0.00     0.074 A 
ATOM      6  C   UNL     1     -12.708 -42.834  26.541  1.00  0.00     0.049 A 
ATOM      7  C   UNL     1     -13.774 -43.312  25.786  1.00  0.00     0.043 A 
ATOM      8  Cl  UNL     1     -14.042 -42.705  24.199  1.00  0.00    -0.084 Cl
ATOM      9  C   UNL     1     -14.616 -44.283  26.303  1.00  0.00     0.021 A 
ATOM     10  C   UNL     1     -14.387 -44.765  27.593  1.00  0.00     0.014 A 
ATOM     11  C   UNL     1     -13.316 -44.278  28.385  1.00  0.00     0.024 A 
ATOM     12  C   UNL     1      -9.839 -42.705  30.303  1.00  0.00     0.064 C 
ATOM     13  C   UNL     1      -9.334 -43.462  31.537  1.00  0.00     0.018 C 
ATOM     14  C   UNL     1      -8.620 -44.737  31.138  1.00  0.00    -0.024 C 
ATOM     15  C   UNL     1      -9.210 -45.946  31.166  1.00  0.00    -0.076 C 
ATOM     16  C   UNL     1      -8.484 -47.202  30.783  1.00  0.00     0.039 C 
ATOM     17  C   UNL     1     -10.661 -46.112  31.572  1.00  0.00     0.039 C 
ATOM     18  C   UNL     1     -11.426 -44.774  31.721  1.00  0.00     0.028 C 
ATOM     19  C   UNL     1     -10.529 -43.760  32.443  1.00  0.00     0.017 C 
ENDROOT
BRANCH   1  20
ATOM     20  N   UNL     1     -13.818 -45.735  30.304  1.00  0.00    -0.398 N 
ATOM     21  H   UNL     1     -14.395 -45.436  31.081  1.00  0.00     0.156 HD
ATOM     22  H   UNL     1     -14.377 -46.252  29.634  1.00  0.00     0.156 HD
ENDBRANCH   1  20
TORSDOF 1
ENDMDL
MODEL 7
REMARK VINA RESULT:    -8.912      1.728      2.224
REMARK INTER + INTRA:          -9.173
REMARK INTER:                  -9.173
REMARK INTRA:                   0.000
REMARK UNBOUND:                 0.000
REMARK SMILES CC1=C[C@H]2Cc3nc4cc(Cl)ccc4c(N)c3[C@@H](C1)C2
REMARK SMILES IDX 15 1 17 2 6 3 7 4 8 5 9 6 10 7 11 8 12 9 13 10 14 11 5 12
REMARK SMILES IDX 4 13 3 14 2 15 1 16 19 17 18 18 20 19 16 20
REMARK H PARENT 16 21 16 22
ROOT
ATOM      1  C   UNL     1     -11.643 -43.559  27.701  1.00  0.00     0.046 A 
ATOM      2  C   UNL     1     -11.488 -44.472  28.766  1.00  0.00     0.001 A 
ATOM      3  C   UNL     1     -12.622 -45.180  29.186  1.00  0.00     0.047 A 
ATOM      4  N   UNL     1     -13.843 -45.025  28.625  1.00  0.00    -0.252 NA
ATOM      5  C   UNL     1     -14.006 -44.105  27.671  1.00  0.00     0.074 A 
ATOM      6  C   UNL     1     -15.286 -43.929  27.167  1.00  0.00     0.049 A 
ATOM      7  C   UNL     1     -15.556 -42.972  26.193  1.00  0.00     0.043 A 
ATOM      8  Cl  UNL     1     -17.159 -42.781  25.599  1.00  0.00    -0.084 Cl
ATOM      9  C   UNL     1     -14.540 -42.166  25.707  1.00  0.00     0.021 A 
ATOM     10  C   UNL     1     -13.244 -42.334  26.198  1.00  0.00     0.014 A 
ATOM     11  C   UNL     1     -12.946 -43.315  27.178  1.00  0.00     0.024 A 
ATOM     12  C   UNL     1     -12.562 -46.216  30.289  1.00  0.00     0.064 C 
ATOM     13  C   UNL     1     -11.269 -46.173  31.112  1.00  0.00     0.018 C 
ATOM     14  C   UNL     1     -11.289 -45.022  32.096  1.00  0.00    -0.024 C 
ATOM     15  C   UNL     1     -10.675 -43.848  31.861  1.00  0.00    -0.076 C 
ATOM     16  C   UNL     1     -10.690 -42.722  32.852  1.00  0.00     0.039 C 
ATOM     17  C   UNL     1      -9.939 -43.582  30.562  1.00  0.00     0.039 C 
ATOM     18  C   UNL     1     -10.157 -44.673  29.485  1.00  0.00     0.028 C 
ATOM     19  C   UNL     1     -10.088 -46.055  30.148  1.00  0.00     0.017 C 
ENDROOT
BRANCH   1  20
ATOM     20  N   UNL     1     -10.555 -42.743  27.302  1.00  0.00    -0.398 N 
ATOM     21  H   UNL     1      -9.830 -42.638  28.001  1.00  0.00     0.156 HD
ATOM     22  H   UNL     1     -10.148 -43.017  26.415  1.00  0.00     0.156 HD
ENDBRANCH   1  20
TORSDOF 1
ENDMDL
MODEL 8
REMARK VINA RESULT:    -8.535      5.431      9.913
REMARK INTER + INTRA:          -8.785
REMARK INTER:                  -8.785
REMARK INTRA:                   0.000
REMARK UNBOUND:                 0.000
REMARK SMILES CC1=C[C@H]2Cc3nc4cc(Cl)ccc4c(N)c3[C@@H](C1)C2
REMARK SMILES IDX 15 1 17 2 6 3 7 4 8 5 9 6 10 7 11 8 12 9 13 10 14 11 5 12
REMARK SMILES IDX 4 13 3 14 2 15 1 16 19 17 18 18 20 19 16 20
REMARK H PARENT 16 21 16 22
ROOT
ATOM      1  C   UNL     1     -17.575 -40.917  22.475  1.00  0.00     0.046 A 
ATOM      2  C   UNL     1     -18.971 -40.752  22.610  1.00  0.00     0.001 A 
ATOM      3  C   UNL     1     -19.575 -41.250  23.773  1.00  0.00     0.047 A 
ATOM      4  N   UNL     1     -18.888 -41.876  24.756  1.00  0.00    -0.252 NA
ATOM      5  C   UNL     1     -17.581 -42.100  24.592  1.00  0.00     0.074 A 
ATOM      6  C   UNL     1     -16.926 -42.803  25.592  1.00  0.00     0.049 A 
ATOM      7  C   UNL     1     -15.572 -43.110  25.492  1.00  0.00     0.043 A 
ATOM      8  Cl  UNL     1     -14.796 -43.990  26.751  1.00  0.00    -0.084 Cl
ATOM      9  C   UNL     1     -14.848 -42.719  24.378  1.00  0.00     0.021 A 
ATOM     10  C   UNL     1     -15.490 -42.005  23.366  1.00  0.00     0.014 A 
ATOM     11  C   UNL     1     -16.865 -41.667  23.456  1.00  0.00     0.024 A 
ATOM     12  C   UNL     1     -21.056 -41.090  24.043  1.00  0.00     0.064 C 
ATOM     13  C   UNL     1     -21.868 -40.658  22.816  1.00  0.00     0.018 C 
ATOM     14  C   UNL     1     -22.092 -41.824  21.875  1.00  0.00    -0.024 C 
ATOM     15  C   UNL     1     -21.344 -42.032  20.776  1.00  0.00    -0.076 C 
ATOM     16  C   UNL     1     -21.588 -43.182  19.845  1.00  0.00     0.039 C 
ATOM     17  C   UNL     1     -20.187 -41.118  20.419  1.00  0.00     0.039 C 
ATOM     18  C   UNL     1     -19.827 -40.101  21.528  1.00  0.00     0.028 C 
ATOM     19  C   UNL     1     -21.120 -39.522  22.118  1.00  0.00     0.017 C 
ENDROOT
BRANCH   1  20
ATOM     20  N   UNL     1     -16.928 -40.525  21.277  1.00  0.00    -0.398 N 
ATOM     21  H   UNL     1     -17.209 -39.618  20.925  1.00  0.00     0.156 HD
ATOM     22  H   UNL     1     -15.917 -40.581  21.328  1.00  0.00     0.156 HD
ENDBRANCH   1  20
TORSDOF 1
ENDMDL
MODEL 9
REMARK VINA RESULT:    -7.481      7.743     12.224
REMARK INTER + INTRA:          -7.700
REMARK INTER:                  -7.700
REMARK INTRA:                   0.000
REMARK UNBOUND:                 0.000
REMARK SMILES CC1=C[C@H]2Cc3nc4cc(Cl)ccc4c(N)c3[C@@H](C1)C2
REMARK SMILES IDX 15 1 17 2 6 3 7 4 8 5 9 6 10 7 11 8 12 9 13 10 14 11 5 12
REMARK SMILES IDX 4 13 3 14 2 15 1 16 19 17 18 18 20 19 16 20
REMARK H PARENT 16 21 16 22
ROOT
ATOM      1  C   UNL     1     -19.595 -40.274  21.674  1.00  0.00     0.046 A 
ATOM      2  C   UNL     1     -20.784 -39.580  21.363  1.00  0.00     0.001 A 
ATOM      3  C   UNL     1     -21.746 -39.450  22.374  1.00  0.00     0.047 A 
ATOM      4  N   UNL     1     -21.587 -39.957  23.618  1.00  0.00    -0.252 NA
ATOM      5  C   UNL     1     -20.496 -40.680  23.889  1.00  0.00     0.074 A 
ATOM      6  C   UNL     1     -20.400 -41.239  25.155  1.00  0.00     0.049 A 
ATOM      7  C   UNL     1     -19.316 -42.032  25.516  1.00  0.00     0.043 A 
ATOM      8  Cl  UNL     1     -19.237 -42.712  27.094  1.00  0.00    -0.084 Cl
ATOM      9  C   UNL     1     -18.302 -42.285  24.605  1.00  0.00     0.021 A 
ATOM     10  C   UNL     1     -18.379 -41.724  23.329  1.00  0.00     0.014 A 
ATOM     11  C   UNL     1     -19.467 -40.899  22.948  1.00  0.00     0.024 A 
ATOM     12  C   UNL     1     -23.037 -38.689  22.164  1.00  0.00     0.064 C 
ATOM     13  C   UNL     1     -23.345 -38.381  20.694  1.00  0.00     0.018 C 
ATOM     14  C   UNL     1     -23.869 -39.610  19.980  1.00  0.00    -0.024 C 
ATOM     15  C   UNL     1     -23.094 -40.395  19.210  1.00  0.00    -0.076 C 
ATOM     16  C   UNL     1     -23.631 -41.600  18.496  1.00  0.00     0.039 C 
ATOM     17  C   UNL     1     -21.614 -40.118  19.030  1.00  0.00     0.039 C 
ATOM     18  C   UNL     1     -21.064 -39.019  19.972  1.00  0.00     0.028 C 
ATOM     19  C   UNL     1     -22.069 -37.861  20.033  1.00  0.00     0.017 C 
ENDROOT
BRANCH   1  20
ATOM     20  N   UNL     1     -18.633 -40.523  20.663  1.00  0.00    -0.398 N 
ATOM     21  H   UNL     1     -18.407 -41.502  20.531  1.00  0.00     0.156 HD
ATOM     22  H   UNL     1     -18.862 -40.095  19.773  1.00  0.00     0.156 HD
ENDBRANCH   1  20
TORSDOF 1
ENDMDL
