MODEL 1
REMARK VINA RESULT:   -12.723      0.000      0.000
REMARK INTER + INTRA:         -15.791
REMARK INTER:                 -15.698
REMARK INTRA:                  -0.093
REMARK UNBOUND:                -0.093
REMARK SMILES O=C(Nc1ccc2c(c1)CN(C(=O)c1cccc(Cl)c1)C(=O)C2)c1ccccc1
REMARK SMILES IDX 4 1 5 2 6 3 7 4 8 5 9 6 10 7 11 8 21 9 22 10 23 11 3 12 2 13
REMARK SMILES IDX 1 14 24 16 25 17 29 18 26 19 28 20 27 21 12 22 13 23 14 24
REMARK SMILES IDX 15 25 20 26 16 27 18 28 17 29 19 30
REMARK H PARENT 3 15
ROOT
ATOM      1  C   UNL     1     -13.563 -44.485  26.689  1.00  0.00     0.041 A 
ATOM      2  C   UNL     1     -13.352 -45.860  26.524  1.00  0.00     0.026 A 
ATOM      3  C   UNL     1     -12.475 -46.555  27.362  1.00  0.00     0.007 A 
ATOM      4  C   UNL     1     -11.788 -45.877  28.371  1.00  0.00    -0.033 A 
ATOM      5  C   UNL     1     -11.995 -44.507  28.546  1.00  0.00    -0.022 A 
ATOM      6  C   UNL     1     -12.887 -43.817  27.712  1.00  0.00     0.032 A 
ATOM      7  C   UNL     1     -11.282 -43.822  29.677  1.00  0.00     0.164 C 
ATOM      8  N   UNL     1      -9.936 -44.347  29.860  1.00  0.00    -0.274 N 
ATOM      9  C   UNL     1      -9.777 -45.731  29.935  1.00  0.00     0.234 C 
ATOM     10  O   UNL     1      -8.808 -46.282  30.464  1.00  0.00    -0.274 OA
ATOM     11  C   UNL     1     -10.871 -46.596  29.320  1.00  0.00     0.136 C 
ENDROOT
BRANCH   1  12
ATOM     12  N   UNL     1     -14.470 -43.863  25.807  1.00  0.00    -0.322 N 
ATOM     13  C   UNL     1     -15.586 -43.116  26.142  1.00  0.00     0.255 C 
ATOM     14  O   UNL     1     -15.952 -42.804  27.268  1.00  0.00    -0.269 OA
ATOM     15  H   UNL     1     -14.231 -43.911  24.826  1.00  0.00     0.170 HD
BRANCH  13  16
ATOM     16  C   UNL     1     -16.378 -42.620  24.980  1.00  0.00     0.040 A 
ATOM     17  C   UNL     1     -15.691 -42.186  23.839  1.00  0.00     0.014 A 
ATOM     18  C   UNL     1     -17.778 -42.556  25.015  1.00  0.00     0.014 A 
ATOM     19  C   UNL     1     -16.399 -41.717  22.732  1.00  0.00     0.001 A 
ATOM     20  C   UNL     1     -18.482 -42.085  23.904  1.00  0.00     0.001 A 
ATOM     21  C   UNL     1     -17.793 -41.672  22.763  1.00  0.00     0.000 A 
ENDBRANCH  13  16
ENDBRANCH   1  12
BRANCH   8  22
ATOM     22  C   UNL     1      -9.063 -43.498  30.542  1.00  0.00     0.260 C 
ATOM     23  O   UNL     1      -8.007 -43.096  30.055  1.00  0.00    -0.269 OA
BRANCH  22  24
ATOM     24  C   UNL     1      -9.414 -43.076  31.926  1.00  0.00     0.041 A 
ATOM     25  C   UNL     1      -8.396 -43.011  32.888  1.00  0.00     0.014 A 
ATOM     26  C   UNL     1     -10.739 -42.809  32.292  1.00  0.00     0.034 A 
ATOM     27  C   UNL     1      -8.696 -42.649  34.203  1.00  0.00     0.002 A 
ATOM     28  C   UNL     1     -11.026 -42.446  33.607  1.00  0.00     0.041 A 
ATOM     29  C   UNL     1     -10.012 -42.363  34.562  1.00  0.00     0.020 A 
ATOM     30  Cl  UNL     1     -12.653 -42.110  34.060  1.00  0.00    -0.084 Cl
ENDBRANCH  22  24
ENDBRANCH   8  22
TORSDOF 4
ENDMDL
MODEL 2
REMARK VINA RESULT:   -12.097      4.157     10.010
REMARK INTER + INTRA:         -15.018
REMARK INTER:                 -14.428
REMARK INTRA:                  -0.591
REMARK UNBOUND:                -0.093
REMARK SMILES O=C(Nc1ccc2c(c1)CN(C(=O)c1cccc(Cl)c1)C(=O)C2)c1ccccc1
REMARK SMILES IDX 4 1 5 2 6 3 7 4 8 5 9 6 10 7 11 8 21 9 22 10 23 11 3 12 2 13
REMARK SMILES IDX 1 14 24 16 25 17 29 18 26 19 28 20 27 21 12 22 13 23 14 24
REMARK SMILES IDX 15 25 20 26 16 27 18 28 17 29 19 30
REMARK H PARENT 3 15
ROOT
ATOM      1  C   UNL     1     -14.404 -43.939  26.887  1.00  0.00     0.041 A 
ATOM      2  C   UNL     1     -14.174 -44.112  25.517  1.00  0.00     0.026 A 
ATOM      3  C   UNL     1     -15.084 -43.629  24.572  1.00  0.00     0.007 A 
ATOM      4  C   UNL     1     -16.245 -42.976  24.989  1.00  0.00    -0.033 A 
ATOM      5  C   UNL     1     -16.482 -42.795  26.355  1.00  0.00    -0.022 A 
ATOM      6  C   UNL     1     -15.558 -43.269  27.298  1.00  0.00     0.032 A 
ATOM      7  C   UNL     1     -17.712 -42.039  26.765  1.00  0.00     0.164 C 
ATOM      8  N   UNL     1     -18.845 -42.346  25.902  1.00  0.00    -0.274 N 
ATOM      9  C   UNL     1     -18.654 -42.276  24.522  1.00  0.00     0.234 C 
ATOM     10  O   UNL     1     -19.570 -42.121  23.710  1.00  0.00    -0.274 OA
ATOM     11  C   UNL     1     -17.225 -42.405  24.005  1.00  0.00     0.136 C 
ENDROOT
BRANCH   1  12
ATOM     12  N   UNL     1     -13.431 -44.448  27.773  1.00  0.00    -0.322 N 
ATOM     13  C   UNL     1     -12.833 -45.695  27.735  1.00  0.00     0.255 C 
ATOM     14  O   UNL     1     -12.993 -46.561  26.885  1.00  0.00    -0.269 OA
ATOM     15  H   UNL     1     -13.085 -43.797  28.465  1.00  0.00     0.170 HD
BRANCH  13  16
ATOM     16  C   UNL     1     -11.867 -45.958  28.840  1.00  0.00     0.040 A 
ATOM     17  C   UNL     1     -12.319 -45.859  30.161  1.00  0.00     0.014 A 
ATOM     18  C   UNL     1     -10.525 -46.273  28.586  1.00  0.00     0.014 A 
ATOM     19  C   UNL     1     -11.444 -46.100  31.221  1.00  0.00     0.001 A 
ATOM     20  C   UNL     1      -9.653 -46.513  29.650  1.00  0.00     0.001 A 
ATOM     21  C   UNL     1     -10.113 -46.431  30.964  1.00  0.00     0.000 A 
ENDBRANCH  13  16
ENDBRANCH   1  12
BRANCH   8  22
ATOM     22  C   UNL     1     -20.096 -42.072  26.456  1.00  0.00     0.260 C 
ATOM     23  O   UNL     1     -20.512 -40.926  26.629  1.00  0.00    -0.269 OA
BRANCH  22  24
ATOM     24  C   UNL     1     -20.957 -43.213  26.873  1.00  0.00     0.041 A 
ATOM     25  C   UNL     1     -20.600 -43.942  28.015  1.00  0.00     0.014 A 
ATOM     26  C   UNL     1     -22.067 -43.602  26.113  1.00  0.00     0.034 A 
ATOM     27  C   UNL     1     -21.369 -45.037  28.416  1.00  0.00     0.002 A 
ATOM     28  C   UNL     1     -22.828 -44.695  26.524  1.00  0.00     0.041 A 
ATOM     29  C   UNL     1     -22.486 -45.412  27.671  1.00  0.00     0.020 A 
ATOM     30  Cl  UNL     1     -24.198 -45.174  25.597  1.00  0.00    -0.084 Cl
ENDBRANCH  22  24
ENDBRANCH   8  22
TORSDOF 4
ENDMDL
MODEL 3
REMARK VINA RESULT:   -11.697      4.147     10.364
REMARK INTER + INTRA:         -14.525
REMARK INTER:                 -13.987
REMARK INTRA:                  -0.538
REMARK UNBOUND:                -0.093
REMARK SMILES O=C(Nc1ccc2c(c1)CN(C(=O)c1cccc(Cl)c1)C(=O)C2)c1ccccc1
REMARK SMILES IDX 4 1 5 2 6 3 7 4 8 5 9 6 10 7 11 8 21 9 22 10 23 11 3 12 2 13
REMARK SMILES IDX 1 14 24 16 25 17 29 18 26 19 28 20 27 21 12 22 13 23 14 24
REMARK SMILES IDX 15 25 20 26 16 27 18 28 17 29 19 30
REMARK H PARENT 3 15
ROOT
ATOM      1  C   UNL     1     -14.352 -43.569  26.606  1.00  0.00     0.041 A 
ATOM      2  C   UNL     1     -13.788 -43.154  25.393  1.00  0.00     0.026 A 
ATOM      3  C   UNL     1     -14.583 -42.591  24.391  1.00  0.00     0.007 A 
ATOM      4  C   UNL     1     -15.958 -42.448  24.586  1.00  0.00    -0.033 A 
ATOM      5  C   UNL     1     -16.529 -42.854  25.795  1.00  0.00    -0.022 A 
ATOM      6  C   UNL     1     -15.724 -43.405  26.804  1.00  0.00     0.032 A 
ATOM      7  C   UNL     1     -18.001 -42.632  25.993  1.00  0.00     0.164 C 
ATOM      8  N   UNL     1     -18.748 -42.861  24.764  1.00  0.00    -0.274 N 
ATOM      9  C   UNL     1     -18.301 -42.236  23.599  1.00  0.00     0.234 C 
ATOM     10  O   UNL     1     -19.019 -42.017  22.620  1.00  0.00    -0.274 OA
ATOM     11  C   UNL     1     -16.839 -41.808  23.551  1.00  0.00     0.136 C 
ENDROOT
BRANCH   1  12
ATOM     12  N   UNL     1     -13.478 -44.117  27.568  1.00  0.00    -0.322 N 
ATOM     13  C   UNL     1     -12.941 -45.392  27.584  1.00  0.00     0.255 C 
ATOM     14  O   UNL     1     -13.078 -46.257  26.728  1.00  0.00    -0.269 OA
ATOM     15  H   UNL     1     -13.154 -43.477  28.281  1.00  0.00     0.170 HD
BRANCH  13  16
ATOM     16  C   UNL     1     -12.079 -45.693  28.762  1.00  0.00     0.040 A 
ATOM     17  C   UNL     1     -12.612 -45.514  30.044  1.00  0.00     0.014 A 
ATOM     18  C   UNL     1     -10.752 -46.121  28.614  1.00  0.00     0.014 A 
ATOM     19  C   UNL     1     -11.835 -45.788  31.170  1.00  0.00     0.001 A 
ATOM     20  C   UNL     1      -9.978 -46.392  29.745  1.00  0.00     0.001 A 
ATOM     21  C   UNL     1     -10.521 -46.231  31.020  1.00  0.00     0.000 A 
ENDBRANCH  13  16
ENDBRANCH   1  12
BRANCH   8  22
ATOM     22  C   UNL     1     -20.105 -43.129  24.944  1.00  0.00     0.260 C 
ATOM     23  O   UNL     1     -20.590 -44.250  24.790  1.00  0.00    -0.269 OA
BRANCH  22  24
ATOM     24  C   UNL     1     -21.011 -42.008  25.320  1.00  0.00     0.041 A 
ATOM     25  C   UNL     1     -21.161 -41.691  26.677  1.00  0.00     0.014 A 
ATOM     26  C   UNL     1     -21.756 -41.320  24.355  1.00  0.00     0.034 A 
ATOM     27  C   UNL     1     -22.027 -40.666  27.066  1.00  0.00     0.002 A 
ATOM     28  C   UNL     1     -22.616 -40.298  24.754  1.00  0.00     0.041 A 
ATOM     29  C   UNL     1     -22.753 -39.967  26.103  1.00  0.00     0.020 A 
ATOM     30  Cl  UNL     1     -23.529 -39.443  23.571  1.00  0.00    -0.084 Cl
ENDBRANCH  22  24
ENDBRANCH   8  22
TORSDOF 4
ENDMDL
MODEL 4
REMARK VINA RESULT:   -11.574      4.628     11.481
REMARK INTER + INTRA:         -14.373
REMARK INTER:                 -14.339
REMARK INTRA:                  -0.034
REMARK UNBOUND:                -0.093
REMARK SMILES O=C(Nc1ccc2c(c1)CN(C(=O)c1cccc(Cl)c1)C(=O)C2)c1ccccc1
REMARK SMILES IDX 4 1 5 2 6 3 7 4 8 5 9 6 10 7 11 8 21 9 22 10 23 11 3 12 2 13
REMARK SMILES IDX 1 14 24 16 25 17 29 18 26 19 28 20 27 21 12 22 13 23 14 24
REMARK SMILES IDX 15 25 20 26 16 27 18 28 17 29 19 30
REMARK H PARENT 3 15
ROOT
ATOM      1  C   UNL     1     -16.089 -42.937  26.792  1.00  0.00     0.041 A 
ATOM      2  C   UNL     1     -17.023 -42.538  27.756  1.00  0.00     0.026 A 
ATOM      3  C   UNL     1     -18.296 -42.101  27.382  1.00  0.00     0.007 A 
ATOM      4  C   UNL     1     -18.648 -42.046  26.032  1.00  0.00    -0.033 A 
ATOM      5  C   UNL     1     -17.725 -42.447  25.062  1.00  0.00    -0.022 A 
ATOM      6  C   UNL     1     -16.453 -42.898  25.444  1.00  0.00     0.032 A 
ATOM      7  C   UNL     1     -18.157 -42.429  23.624  1.00  0.00     0.164 C 
ATOM      8  N   UNL     1     -19.013 -41.286  23.334  1.00  0.00    -0.274 N 
ATOM      9  C   UNL     1     -20.094 -41.046  24.183  1.00  0.00     0.234 C 
ATOM     10  O   UNL     1     -21.090 -40.395  23.856  1.00  0.00    -0.274 OA
ATOM     11  C   UNL     1     -20.021 -41.624  25.591  1.00  0.00     0.136 C 
ENDROOT
BRANCH   1  12
ATOM     12  N   UNL     1     -14.831 -43.373  27.255  1.00  0.00    -0.322 N 
ATOM     13  C   UNL     1     -14.034 -44.365  26.710  1.00  0.00     0.255 C 
ATOM     14  O   UNL     1     -14.248 -45.000  25.685  1.00  0.00    -0.269 OA
ATOM     15  H   UNL     1     -14.442 -42.849  28.027  1.00  0.00     0.170 HD
BRANCH  13  16
ATOM     16  C   UNL     1     -12.770 -44.630  27.454  1.00  0.00     0.040 A 
ATOM     17  C   UNL     1     -12.424 -45.958  27.732  1.00  0.00     0.014 A 
ATOM     18  C   UNL     1     -11.944 -43.588  27.899  1.00  0.00     0.014 A 
ATOM     19  C   UNL     1     -11.246 -46.244  28.425  1.00  0.00     0.001 A 
ATOM     20  C   UNL     1     -10.767 -43.880  28.593  1.00  0.00     0.001 A 
ATOM     21  C   UNL     1     -10.418 -45.206  28.851  1.00  0.00     0.000 A 
ENDBRANCH  13  16
ENDBRANCH   1  12
BRANCH   8  22
ATOM     22  C   UNL     1     -19.082 -40.931  21.987  1.00  0.00     0.260 C 
ATOM     23  O   UNL     1     -18.260 -40.189  21.449  1.00  0.00    -0.269 OA
BRANCH  22  24
ATOM     24  C   UNL     1     -20.208 -41.457  21.166  1.00  0.00     0.041 A 
ATOM     25  C   UNL     1     -20.804 -40.610  20.221  1.00  0.00     0.014 A 
ATOM     26  C   UNL     1     -20.716 -42.746  21.368  1.00  0.00     0.034 A 
ATOM     27  C   UNL     1     -21.882 -41.061  19.457  1.00  0.00     0.002 A 
ATOM     28  C   UNL     1     -21.791 -43.186  20.598  1.00  0.00     0.041 A 
ATOM     29  C   UNL     1     -22.375 -42.352  19.643  1.00  0.00     0.020 A 
ATOM     30  Cl  UNL     1     -22.415 -44.773  20.837  1.00  0.00    -0.084 Cl
ENDBRANCH  22  24
ENDBRANCH   8  22
TORSDOF 4
ENDMDL
MODEL 5
REMARK VINA RESULT:   -11.372      4.320     10.548
REMARK INTER + INTRA:         -14.124
REMARK INTER:                 -13.660
REMARK INTRA:                  -0.464
REMARK UNBOUND:                -0.093
REMARK SMILES O=C(Nc1ccc2c(c1)CN(C(=O)c1cccc(Cl)c1)C(=O)C2)c1ccccc1
REMARK SMILES IDX 4 1 5 2 6 3 7 4 8 5 9 6 10 7 11 8 21 9 22 10 23 11 3 12 2 13
REMARK SMILES IDX 1 14 24 16 25 17 29 18 26 19 28 20 27 21 12 22 13 23 14 24
REMARK SMILES IDX 15 25 20 26 16 27 18 28 17 29 19 30
REMARK H PARENT 3 15
ROOT
ATOM      1  C   UNL     1     -15.434 -43.417  25.299  1.00  0.00     0.041 A 
ATOM      2  C   UNL     1     -15.362 -43.323  23.904  1.00  0.00     0.026 A 
ATOM      3  C   UNL     1     -16.412 -42.766  23.168  1.00  0.00     0.007 A 
ATOM      4  C   UNL     1     -17.556 -42.305  23.822  1.00  0.00    -0.033 A 
ATOM      5  C   UNL     1     -17.636 -42.390  25.215  1.00  0.00    -0.022 A 
ATOM      6  C   UNL     1     -16.573 -42.937  25.949  1.00  0.00     0.032 A 
ATOM      7  C   UNL     1     -18.857 -41.832  25.889  1.00  0.00     0.164 C 
ATOM      8  N   UNL     1     -20.062 -42.084  25.110  1.00  0.00    -0.274 N 
ATOM      9  C   UNL     1     -20.047 -41.755  23.755  1.00  0.00     0.234 C 
ATOM     10  O   UNL     1     -21.063 -41.543  23.089  1.00  0.00    -0.274 OA
ATOM     11  C   UNL     1     -18.687 -41.660  23.072  1.00  0.00     0.136 C 
ENDROOT
BRANCH   1  12
ATOM     12  N   UNL     1     -14.327 -43.983  25.965  1.00  0.00    -0.322 N 
ATOM     13  C   UNL     1     -14.183 -44.190  27.326  1.00  0.00     0.255 C 
ATOM     14  O   UNL     1     -15.020 -43.977  28.194  1.00  0.00    -0.269 OA
ATOM     15  H   UNL     1     -13.594 -44.342  25.369  1.00  0.00     0.170 HD
BRANCH  13  16
ATOM     16  C   UNL     1     -12.873 -44.773  27.734  1.00  0.00     0.040 A 
ATOM     17  C   UNL     1     -11.863 -43.907  28.170  1.00  0.00     0.014 A 
ATOM     18  C   UNL     1     -12.625 -46.151  27.664  1.00  0.00     0.014 A 
ATOM     19  C   UNL     1     -10.624 -44.417  28.561  1.00  0.00     0.001 A 
ATOM     20  C   UNL     1     -11.384 -46.656  28.056  1.00  0.00     0.001 A 
ATOM     21  C   UNL     1     -10.387 -45.790  28.509  1.00  0.00     0.000 A 
ENDBRANCH  13  16
ENDBRANCH   1  12
BRANCH   8  22
ATOM     22  C   UNL     1     -21.252 -42.026  25.837  1.00  0.00     0.260 C 
ATOM     23  O   UNL     1     -21.698 -40.979  26.304  1.00  0.00    -0.269 OA
BRANCH  22  24
ATOM     24  C   UNL     1     -22.005 -43.289  26.074  1.00  0.00     0.041 A 
ATOM     25  C   UNL     1     -22.921 -43.336  27.134  1.00  0.00     0.014 A 
ATOM     26  C   UNL     1     -21.768 -44.434  25.304  1.00  0.00     0.034 A 
ATOM     27  C   UNL     1     -23.621 -44.514  27.403  1.00  0.00     0.002 A 
ATOM     28  C   UNL     1     -22.474 -45.603  25.581  1.00  0.00     0.041 A 
ATOM     29  C   UNL     1     -23.400 -45.648  26.623  1.00  0.00     0.020 A 
ATOM     30  Cl  UNL     1     -22.191 -47.012  24.632  1.00  0.00    -0.084 Cl
ENDBRANCH  22  24
ENDBRANCH   8  22
TORSDOF 4
ENDMDL
MODEL 6
REMARK VINA RESULT:   -11.142      2.156      2.606
REMARK INTER + INTRA:         -13.841
REMARK INTER:                 -15.082
REMARK INTRA:                   1.241
REMARK UNBOUND:                -0.093
REMARK SMILES O=C(Nc1ccc2c(c1)CN(C(=O)c1cccc(Cl)c1)C(=O)C2)c1ccccc1
REMARK SMILES IDX 4 1 5 2 6 3 7 4 8 5 9 6 10 7 11 8 21 9 22 10 23 11 3 12 2 13
REMARK SMILES IDX 1 14 24 16 25 17 29 18 26 19 28 20 27 21 12 22 13 23 14 24
REMARK SMILES IDX 15 25 20 26 16 27 18 28 17 29 19 30
REMARK H PARENT 3 15
ROOT
ATOM      1  C   UNL     1     -14.599 -44.320  26.704  1.00  0.00     0.041 A 
ATOM      2  C   UNL     1     -13.805 -45.373  26.233  1.00  0.00     0.026 A 
ATOM      3  C   UNL     1     -12.993 -46.103  27.105  1.00  0.00     0.007 A 
ATOM      4  C   UNL     1     -12.956 -45.779  28.462  1.00  0.00    -0.033 A 
ATOM      5  C   UNL     1     -13.748 -44.734  28.943  1.00  0.00    -0.022 A 
ATOM      6  C   UNL     1     -14.572 -44.013  28.066  1.00  0.00     0.032 A 
ATOM      7  C   UNL     1     -13.727 -44.450  30.418  1.00  0.00     0.164 C 
ATOM      8  N   UNL     1     -12.394 -44.622  30.979  1.00  0.00    -0.274 N 
ATOM      9  C   UNL     1     -11.708 -45.802  30.688  1.00  0.00     0.234 C 
ATOM     10  O   UNL     1     -10.788 -46.248  31.378  1.00  0.00    -0.274 OA
ATOM     11  C   UNL     1     -12.130 -46.568  29.439  1.00  0.00     0.136 C 
ENDROOT
BRANCH   1  12
ATOM     12  N   UNL     1     -15.396 -43.642  25.759  1.00  0.00    -0.322 N 
ATOM     13  C   UNL     1     -14.964 -42.938  24.648  1.00  0.00     0.255 C 
ATOM     14  O   UNL     1     -13.812 -42.833  24.247  1.00  0.00    -0.269 OA
ATOM     15  H   UNL     1     -16.395 -43.747  25.872  1.00  0.00     0.170 HD
BRANCH  13  16
ATOM     16  C   UNL     1     -16.050 -42.290  23.858  1.00  0.00     0.040 A 
ATOM     17  C   UNL     1     -17.380 -42.582  24.185  1.00  0.00     0.014 A 
ATOM     18  C   UNL     1     -15.770 -41.426  22.790  1.00  0.00     0.014 A 
ATOM     19  C   UNL     1     -18.422 -41.993  23.468  1.00  0.00     0.001 A 
ATOM     20  C   UNL     1     -16.817 -40.840  22.076  1.00  0.00     0.001 A 
ATOM     21  C   UNL     1     -18.140 -41.119  22.419  1.00  0.00     0.000 A 
ENDBRANCH  13  16
ENDBRANCH   1  12
BRANCH   8  22
ATOM     22  C   UNL     1     -12.176 -43.959  32.187  1.00  0.00     0.260 C 
ATOM     23  O   UNL     1     -13.090 -43.639  32.947  1.00  0.00    -0.269 OA
BRANCH  22  24
ATOM     24  C   UNL     1     -10.779 -43.607  32.566  1.00  0.00     0.041 A 
ATOM     25  C   UNL     1     -10.570 -42.836  33.718  1.00  0.00     0.014 A 
ATOM     26  C   UNL     1      -9.692 -43.974  31.764  1.00  0.00     0.034 A 
ATOM     27  C   UNL     1      -9.276 -42.461  34.085  1.00  0.00     0.002 A 
ATOM     28  C   UNL     1      -8.405 -43.596  32.141  1.00  0.00     0.041 A 
ATOM     29  C   UNL     1      -8.191 -42.844  33.297  1.00  0.00     0.020 A 
ATOM     30  Cl  UNL     1      -7.064 -44.051  31.162  1.00  0.00    -0.084 Cl
ENDBRANCH  22  24
ENDBRANCH   8  22
TORSDOF 4
ENDMDL
MODEL 7
REMARK VINA RESULT:   -10.621      4.698     11.565
REMARK INTER + INTRA:         -13.198
REMARK INTER:                 -12.459
REMARK INTRA:                  -0.739
REMARK UNBOUND:                -0.093
REMARK SMILES O=C(Nc1ccc2c(c1)CN(C(=O)c1cccc(Cl)c1)C(=O)C2)c1ccccc1
REMARK SMILES IDX 4 1 5 2 6 3 7 4 8 5 9 6 10 7 11 8 21 9 22 10 23 11 3 12 2 13
REMARK SMILES IDX 1 14 24 16 25 17 29 18 26 19 28 20 27 21 12 22 13 23 14 24
REMARK SMILES IDX 15 25 20 26 16 27 18 28 17 29 19 30
REMARK H PARENT 3 15
ROOT
ATOM      1  C   UNL     1     -16.175 -43.066  24.822  1.00  0.00     0.041 A 
ATOM      2  C   UNL     1     -15.610 -42.576  23.638  1.00  0.00     0.026 A 
ATOM      3  C   UNL     1     -16.367 -41.814  22.744  1.00  0.00     0.007 A 
ATOM      4  C   UNL     1     -17.708 -41.542  23.020  1.00  0.00    -0.033 A 
ATOM      5  C   UNL     1     -18.281 -42.022  24.201  1.00  0.00    -0.022 A 
ATOM      6  C   UNL     1     -17.512 -42.775  25.101  1.00  0.00     0.032 A 
ATOM      7  C   UNL     1     -19.709 -41.662  24.492  1.00  0.00     0.164 C 
ATOM      8  N   UNL     1     -20.520 -41.659  23.282  1.00  0.00    -0.274 N 
ATOM      9  C   UNL     1     -20.044 -40.955  22.176  1.00  0.00     0.234 C 
ATOM     10  O   UNL     1     -20.764 -40.544  21.263  1.00  0.00    -0.274 OA
ATOM     11  C   UNL     1     -18.544 -40.690  22.107  1.00  0.00     0.136 C 
ENDROOT
BRANCH   1  12
ATOM     12  N   UNL     1     -15.338 -43.818  25.672  1.00  0.00    -0.322 N 
ATOM     13  C   UNL     1     -15.143 -43.638  27.031  1.00  0.00     0.255 C 
ATOM     14  O   UNL     1     -15.714 -42.831  27.754  1.00  0.00    -0.269 OA
ATOM     15  H   UNL     1     -14.892 -44.621  25.250  1.00  0.00     0.170 HD
BRANCH  13  16
ATOM     16  C   UNL     1     -14.159 -44.570  27.650  1.00  0.00     0.040 A 
ATOM     17  C   UNL     1     -13.428 -45.422  26.813  1.00  0.00     0.014 A 
ATOM     18  C   UNL     1     -13.972 -44.630  29.038  1.00  0.00     0.014 A 
ATOM     19  C   UNL     1     -12.496 -46.308  27.357  1.00  0.00     0.001 A 
ATOM     20  C   UNL     1     -13.039 -45.518  29.577  1.00  0.00     0.001 A 
ATOM     21  C   UNL     1     -12.299 -46.351  28.737  1.00  0.00     0.000 A 
ENDBRANCH  13  16
ENDBRANCH   1  12
BRANCH   8  22
ATOM     22  C   UNL     1     -21.892 -41.794  23.496  1.00  0.00     0.260 C 
ATOM     23  O   UNL     1     -22.597 -40.872  23.907  1.00  0.00    -0.269 OA
BRANCH  22  24
ATOM     24  C   UNL     1     -22.530 -43.114  23.233  1.00  0.00     0.041 A 
ATOM     25  C   UNL     1     -23.687 -43.156  22.442  1.00  0.00     0.014 A 
ATOM     26  C   UNL     1     -22.036 -44.289  23.812  1.00  0.00     0.034 A 
ATOM     27  C   UNL     1     -24.328 -44.373  22.203  1.00  0.00     0.002 A 
ATOM     28  C   UNL     1     -22.683 -45.498  23.564  1.00  0.00     0.041 A 
ATOM     29  C   UNL     1     -23.823 -45.547  22.762  1.00  0.00     0.020 A 
ATOM     30  Cl  UNL     1     -22.074 -46.947  24.267  1.00  0.00    -0.084 Cl
ENDBRANCH  22  24
ENDBRANCH   8  22
TORSDOF 4
ENDMDL
MODEL 8
REMARK VINA RESULT:    -9.946      7.292     12.018
REMARK INTER + INTRA:         -12.365
REMARK INTER:                 -11.606
REMARK INTRA:                  -0.759
REMARK UNBOUND:                -0.093
REMARK SMILES O=C(Nc1ccc2c(c1)CN(C(=O)c1cccc(Cl)c1)C(=O)C2)c1ccccc1
REMARK SMILES IDX 4 1 5 2 6 3 7 4 8 5 9 6 10 7 11 8 21 9 22 10 23 11 3 12 2 13
REMARK SMILES IDX 1 14 24 16 25 17 29 18 26 19 28 20 27 21 12 22 13 23 14 24
REMARK SMILES IDX 15 25 20 26 16 27 18 28 17 29 19 30
REMARK H PARENT 3 15
ROOT
ATOM      1  C   UNL     1     -20.398 -42.269  26.724  1.00  0.00     0.041 A 
ATOM      2  C   UNL     1     -21.164 -43.438  26.827  1.00  0.00     0.026 A 
ATOM      3  C   UNL     1     -22.553 -43.374  26.964  1.00  0.00     0.007 A 
ATOM      4  C   UNL     1     -23.194 -42.134  27.012  1.00  0.00    -0.033 A 
ATOM      5  C   UNL     1     -22.440 -40.963  26.906  1.00  0.00    -0.022 A 
ATOM      6  C   UNL     1     -21.047 -41.033  26.755  1.00  0.00     0.032 A 
ATOM      7  C   UNL     1     -23.168 -39.650  26.905  1.00  0.00     0.164 C 
ATOM      8  N   UNL     1     -24.300 -39.663  27.822  1.00  0.00    -0.274 N 
ATOM      9  C   UNL     1     -25.196 -40.730  27.742  1.00  0.00     0.234 C 
ATOM     10  O   UNL     1     -26.359 -40.681  28.150  1.00  0.00    -0.274 OA
ATOM     11  C   UNL     1     -24.689 -42.024  27.114  1.00  0.00     0.136 C 
ENDROOT
BRANCH   1  12
ATOM     12  N   UNL     1     -19.004 -42.424  26.579  1.00  0.00    -0.322 N 
ATOM     13  C   UNL     1     -18.280 -42.434  25.400  1.00  0.00     0.255 C 
ATOM     14  O   UNL     1     -18.712 -42.245  24.270  1.00  0.00    -0.269 OA
ATOM     15  H   UNL     1     -18.474 -42.456  27.440  1.00  0.00     0.170 HD
BRANCH  13  16
ATOM     16  C   UNL     1     -16.816 -42.660  25.568  1.00  0.00     0.040 A 
ATOM     17  C   UNL     1     -16.017 -42.747  24.421  1.00  0.00     0.014 A 
ATOM     18  C   UNL     1     -16.233 -42.813  26.834  1.00  0.00     0.014 A 
ATOM     19  C   UNL     1     -14.642 -42.956  24.539  1.00  0.00     0.001 A 
ATOM     20  C   UNL     1     -14.857 -43.023  26.947  1.00  0.00     0.001 A 
ATOM     21  C   UNL     1     -14.063 -43.089  25.801  1.00  0.00     0.000 A 
ENDBRANCH  13  16
ENDBRANCH   1  12
BRANCH   8  22
ATOM     22  C   UNL     1     -24.740 -38.403  28.229  1.00  0.00     0.260 C 
ATOM     23  O   UNL     1     -25.213 -37.576  27.449  1.00  0.00    -0.269 OA
BRANCH  22  24
ATOM     24  C   UNL     1     -24.613 -38.032  29.666  1.00  0.00     0.041 A 
ATOM     25  C   UNL     1     -23.987 -36.822  29.996  1.00  0.00     0.014 A 
ATOM     26  C   UNL     1     -25.045 -38.895  30.681  1.00  0.00     0.034 A 
ATOM     27  C   UNL     1     -23.823 -36.460  31.335  1.00  0.00     0.002 A 
ATOM     28  C   UNL     1     -24.879 -38.521  32.013  1.00  0.00     0.041 A 
ATOM     29  C   UNL     1     -24.273 -37.309  32.345  1.00  0.00     0.020 A 
ATOM     30  Cl  UNL     1     -25.416 -39.575  33.265  1.00  0.00    -0.084 Cl
ENDBRANCH  22  24
ENDBRANCH   8  22
TORSDOF 4
ENDMDL
MODEL 9
REMARK VINA RESULT:    -9.801      5.738     12.516
REMARK INTER + INTRA:         -12.186
REMARK INTER:                 -11.776
REMARK INTRA:                  -0.410
REMARK UNBOUND:                -0.093
REMARK SMILES O=C(Nc1ccc2c(c1)CN(C(=O)c1cccc(Cl)c1)C(=O)C2)c1ccccc1
REMARK SMILES IDX 4 1 5 2 6 3 7 4 8 5 9 6 10 7 11 8 21 9 22 10 23 11 3 12 2 13
REMARK SMILES IDX 1 14 24 16 25 17 29 18 26 19 28 20 27 21 12 22 13 23 14 24
REMARK SMILES IDX 15 25 20 26 16 27 18 28 17 29 19 30
REMARK H PARENT 3 15
ROOT
ATOM      1  C   UNL     1     -16.811 -42.510  24.385  1.00  0.00     0.041 A 
ATOM      2  C   UNL     1     -16.152 -41.974  23.272  1.00  0.00     0.026 A 
ATOM      3  C   UNL     1     -16.854 -41.251  22.304  1.00  0.00     0.007 A 
ATOM      4  C   UNL     1     -18.232 -41.065  22.433  1.00  0.00    -0.033 A 
ATOM      5  C   UNL     1     -18.898 -41.592  23.543  1.00  0.00    -0.022 A 
ATOM      6  C   UNL     1     -18.186 -42.305  24.519  1.00  0.00     0.032 A 
ATOM      7  C   UNL     1     -20.370 -41.324  23.678  1.00  0.00     0.164 C 
ATOM      8  N   UNL     1     -21.043 -41.359  22.387  1.00  0.00    -0.274 N 
ATOM      9  C   UNL     1     -20.495 -40.615  21.342  1.00  0.00     0.234 C 
ATOM     10  O   UNL     1     -21.136 -40.240  20.357  1.00  0.00    -0.274 OA
ATOM     11  C   UNL     1     -19.016 -40.258  21.437  1.00  0.00     0.136 C 
ENDROOT
BRANCH   1  12
ATOM     12  N   UNL     1     -16.026 -43.217  25.319  1.00  0.00    -0.322 N 
ATOM     13  C   UNL     1     -14.822 -43.858  25.088  1.00  0.00     0.255 C 
ATOM     14  O   UNL     1     -14.186 -43.873  24.042  1.00  0.00    -0.269 OA
ATOM     15  H   UNL     1     -16.349 -43.185  26.277  1.00  0.00     0.170 HD
BRANCH  13  16
ATOM     16  C   UNL     1     -14.250 -44.560  26.272  1.00  0.00     0.040 A 
ATOM     17  C   UNL     1     -14.521 -44.049  27.547  1.00  0.00     0.014 A 
ATOM     18  C   UNL     1     -13.433 -45.691  26.136  1.00  0.00     0.014 A 
ATOM     19  C   UNL     1     -14.004 -44.681  28.680  1.00  0.00     0.001 A 
ATOM     20  C   UNL     1     -12.917 -46.319  27.272  1.00  0.00     0.001 A 
ATOM     21  C   UNL     1     -13.207 -45.817  28.541  1.00  0.00     0.000 A 
ENDBRANCH  13  16
ENDBRANCH   1  12
BRANCH   8  22
ATOM     22  C   UNL     1     -22.419 -41.581  22.448  1.00  0.00     0.260 C 
ATOM     23  O   UNL     1     -23.196 -40.802  23.001  1.00  0.00    -0.269 OA
BRANCH  22  24
ATOM     24  C   UNL     1     -22.971 -42.822  21.838  1.00  0.00     0.041 A 
ATOM     25  C   UNL     1     -22.182 -43.980  21.840  1.00  0.00     0.014 A 
ATOM     26  C   UNL     1     -24.223 -42.830  21.211  1.00  0.00     0.034 A 
ATOM     27  C   UNL     1     -22.657 -45.153  21.248  1.00  0.00     0.002 A 
ATOM     28  C   UNL     1     -24.687 -44.006  20.625  1.00  0.00     0.041 A 
ATOM     29  C   UNL     1     -23.913 -45.166  20.642  1.00  0.00     0.020 A 
ATOM     30  Cl  UNL     1     -26.230 -44.023  19.859  1.00  0.00    -0.084 Cl
ENDBRANCH  22  24
ENDBRANCH   8  22
TORSDOF 4
ENDMDL
