MODEL 1
REMARK VINA RESULT:    -9.058      0.000      0.000
REMARK INTER + INTRA:          -9.323
REMARK INTER:                  -9.323
REMARK INTRA:                   0.000
REMARK UNBOUND:                 0.000
REMARK SMILES Nc1c2c(nc3cc(Cl)ccc13)[C@@H]1CC[C@H]2C1
REMARK SMILES IDX 2 1 3 2 4 3 5 4 6 5 7 6 8 7 9 8 10 9 11 10 12 11 13 12 14 13
REMARK SMILES IDX 15 14 16 15 17 16 1 17
REMARK H PARENT 1 18 1 19
ROOT
ATOM      1  C   UNL     1     -16.582 -42.637  27.493  1.00  0.00     0.046 A 
ATOM      2  C   UNL     1     -15.544 -42.980  26.654  1.00  0.00     0.001 A 
ATOM      3  C   UNL     1     -15.723 -42.934  25.275  1.00  0.00     0.050 A 
ATOM      4  N   UNL     1     -16.851 -42.604  24.644  1.00  0.00    -0.252 NA
ATOM      5  C   UNL     1     -17.894 -42.322  25.442  1.00  0.00     0.074 A 
ATOM      6  C   UNL     1     -19.094 -42.013  24.824  1.00  0.00     0.049 A 
ATOM      7  C   UNL     1     -20.240 -41.737  25.565  1.00  0.00     0.043 A 
ATOM      8  Cl  UNL     1     -21.712 -41.360  24.756  1.00  0.00    -0.084 Cl
ATOM      9  C   UNL     1     -20.207 -41.771  26.952  1.00  0.00     0.021 A 
ATOM     10  C   UNL     1     -19.010 -42.075  27.601  1.00  0.00     0.014 A 
ATOM     11  C   UNL     1     -17.829 -42.344  26.873  1.00  0.00     0.024 A 
ATOM     12  C   UNL     1     -14.423 -43.401  24.640  1.00  0.00     0.039 C 
ATOM     13  C   UNL     1     -14.292 -44.908  24.930  1.00  0.00     0.010 C 
ATOM     14  C   UNL     1     -14.091 -44.960  26.472  1.00  0.00     0.009 C 
ATOM     15  C   UNL     1     -14.139 -43.474  26.888  1.00  0.00     0.024 C 
ATOM     16  C   UNL     1     -13.453 -42.813  25.677  1.00  0.00     0.018 C 
ENDROOT
BRANCH   1  17
ATOM     17  N   UNL     1     -16.439 -42.794  28.881  1.00  0.00    -0.398 N 
ATOM     18  H   UNL     1     -15.680 -43.410  29.152  1.00  0.00     0.156 HD
ATOM     19  H   UNL     1     -17.301 -43.045  29.354  1.00  0.00     0.156 HD
ENDBRANCH   1  17
TORSDOF 1
ENDMDL
MODEL 2
REMARK VINA RESULT:    -8.973      1.371      2.872
REMARK INTER + INTRA:          -9.236
REMARK INTER:                  -9.236
REMARK INTRA:                   0.000
REMARK UNBOUND:                 0.000
REMARK SMILES Nc1c2c(nc3cc(Cl)ccc13)[C@@H]1CC[C@H]2C1
REMARK SMILES IDX 2 1 3 2 4 3 5 4 6 5 7 6 8 7 9 8 10 9 11 10 12 11 13 12 14 13
REMARK SMILES IDX 15 14 16 15 17 16 1 17
REMARK H PARENT 1 18 1 19
ROOT
ATOM      1  C   UNL     1     -17.703 -42.730  24.018  1.00  0.00     0.046 A 
ATOM      2  C   UNL     1     -16.555 -43.010  24.727  1.00  0.00     0.001 A 
ATOM      3  C   UNL     1     -16.540 -42.860  26.111  1.00  0.00     0.050 A 
ATOM      4  N   UNL     1     -17.556 -42.429  26.860  1.00  0.00    -0.252 NA
ATOM      5  C   UNL     1     -18.667 -42.095  26.184  1.00  0.00     0.074 A 
ATOM      6  C   UNL     1     -19.731 -41.606  26.924  1.00  0.00     0.049 A 
ATOM      7  C   UNL     1     -20.915 -41.203  26.311  1.00  0.00     0.043 A 
ATOM      8  Cl  UNL     1     -22.211 -40.598  27.269  1.00  0.00    -0.084 Cl
ATOM      9  C   UNL     1     -21.055 -41.278  24.933  1.00  0.00     0.021 A 
ATOM     10  C   UNL     1     -20.001 -41.771  24.163  1.00  0.00     0.014 A 
ATOM     11  C   UNL     1     -18.794 -42.201  24.762  1.00  0.00     0.024 A 
ATOM     12  C   UNL     1     -15.137 -43.204  26.582  1.00  0.00     0.039 C 
ATOM     13  C   UNL     1     -14.204 -42.079  26.094  1.00  0.00     0.010 C 
ATOM     14  C   UNL     1     -14.219 -42.248  24.547  1.00  0.00     0.009 C 
ATOM     15  C   UNL     1     -15.167 -43.446  24.328  1.00  0.00     0.024 C 
ATOM     16  C   UNL     1     -14.830 -44.309  25.559  1.00  0.00     0.018 C 
ENDROOT
BRANCH   1  17
ATOM     17  N   UNL     1     -17.684 -42.770  22.615  1.00  0.00    -0.398 N 
ATOM     18  H   UNL     1     -17.712 -43.708  22.227  1.00  0.00     0.156 HD
ATOM     19  H   UNL     1     -16.936 -42.225  22.201  1.00  0.00     0.156 HD
ENDBRANCH   1  17
TORSDOF 1
ENDMDL
MODEL 3
REMARK VINA RESULT:    -8.854      2.628      5.718
REMARK INTER + INTRA:          -9.113
REMARK INTER:                  -9.113
REMARK INTRA:                   0.000
REMARK UNBOUND:                 0.000
REMARK SMILES Nc1c2c(nc3cc(Cl)ccc13)[C@@H]1CC[C@H]2C1
REMARK SMILES IDX 2 1 3 2 4 3 5 4 6 5 7 6 8 7 9 8 10 9 11 10 12 11 13 12 14 13
REMARK SMILES IDX 15 14 16 15 17 16 1 17
REMARK H PARENT 1 18 1 19
ROOT
ATOM      1  C   UNL     1     -17.826 -42.621  24.088  1.00  0.00     0.046 A 
ATOM      2  C   UNL     1     -18.913 -42.366  24.894  1.00  0.00     0.001 A 
ATOM      3  C   UNL     1     -18.741 -42.226  26.268  1.00  0.00     0.050 A 
ATOM      4  N   UNL     1     -17.586 -42.343  26.926  1.00  0.00    -0.252 NA
ATOM      5  C   UNL     1     -16.521 -42.648  26.167  1.00  0.00     0.074 A 
ATOM      6  C   UNL     1     -15.310 -42.816  26.819  1.00  0.00     0.049 A 
ATOM      7  C   UNL     1     -14.156 -43.165  26.124  1.00  0.00     0.043 A 
ATOM      8  Cl  UNL     1     -12.673 -43.366  26.974  1.00  0.00    -0.084 Cl
ATOM      9  C   UNL     1     -14.193 -43.359  24.750  1.00  0.00     0.021 A 
ATOM     10  C   UNL     1     -15.397 -43.192  24.067  1.00  0.00     0.014 A 
ATOM     11  C   UNL     1     -16.581 -42.823  24.747  1.00  0.00     0.024 A 
ATOM     12  C   UNL     1     -20.117 -41.994  26.870  1.00  0.00     0.039 C 
ATOM     13  C   UNL     1     -20.896 -43.317  26.745  1.00  0.00     0.010 C 
ATOM     14  C   UNL     1     -21.091 -43.473  25.209  1.00  0.00     0.009 C 
ATOM     15  C   UNL     1     -20.392 -42.224  24.631  1.00  0.00     0.024 C 
ATOM     16  C   UNL     1     -20.724 -41.181  25.716  1.00  0.00     0.018 C 
ENDROOT
BRANCH   1  17
ATOM     17  N   UNL     1     -18.015 -42.876  22.720  1.00  0.00    -0.398 N 
ATOM     18  H   UNL     1     -17.329 -42.434  22.118  1.00  0.00     0.156 HD
ATOM     19  H   UNL     1     -18.959 -42.691  22.397  1.00  0.00     0.156 HD
ENDBRANCH   1  17
TORSDOF 1
ENDMDL
MODEL 4
REMARK VINA RESULT:    -8.261      3.205      6.193
REMARK INTER + INTRA:          -8.502
REMARK INTER:                  -8.502
REMARK INTRA:                   0.000
REMARK UNBOUND:                 0.000
REMARK SMILES Nc1c2c(nc3cc(Cl)ccc13)[C@@H]1CC[C@H]2C1
REMARK SMILES IDX 2 1 3 2 4 3 5 4 6 5 7 6 8 7 9 8 10 9 11 10 12 11 13 12 14 13
REMARK SMILES IDX 15 14 16 15 17 16 1 17
REMARK H PARENT 1 18 1 19
ROOT
ATOM      1  C   UNL     1     -17.192 -40.952  22.417  1.00  0.00     0.046 A 
ATOM      2  C   UNL     1     -18.565 -40.838  22.438  1.00  0.00     0.001 A 
ATOM      3  C   UNL     1     -19.289 -41.367  23.502  1.00  0.00     0.050 A 
ATOM      4  N   UNL     1     -18.778 -42.027  24.542  1.00  0.00    -0.252 NA
ATOM      5  C   UNL     1     -17.447 -42.201  24.515  1.00  0.00     0.074 A 
ATOM      6  C   UNL     1     -16.883 -42.916  25.559  1.00  0.00     0.049 A 
ATOM      7  C   UNL     1     -15.516 -43.176  25.603  1.00  0.00     0.043 A 
ATOM      8  Cl  UNL     1     -14.858 -44.071  26.918  1.00  0.00    -0.084 Cl
ATOM      9  C   UNL     1     -14.681 -42.724  24.592  1.00  0.00     0.021 A 
ATOM     10  C   UNL     1     -15.220 -41.998  23.531  1.00  0.00     0.014 A 
ATOM     11  C   UNL     1     -16.602 -41.707  23.469  1.00  0.00     0.024 A 
ATOM     12  C   UNL     1     -20.760 -41.116  23.211  1.00  0.00     0.039 C 
ATOM     13  C   UNL     1     -21.151 -42.025  22.030  1.00  0.00     0.010 C 
ATOM     14  C   UNL     1     -20.343 -41.433  20.840  1.00  0.00     0.009 C 
ATOM     15  C   UNL     1     -19.575 -40.257  21.479  1.00  0.00     0.024 C 
ATOM     16  C   UNL     1     -20.612 -39.759  22.505  1.00  0.00     0.018 C 
ENDROOT
BRANCH   1  17
ATOM     17  N   UNL     1     -16.473 -40.521  21.291  1.00  0.00    -0.398 N 
ATOM     18  H   UNL     1     -16.957 -39.828  20.731  1.00  0.00     0.156 HD
ATOM     19  H   UNL     1     -16.125 -41.280  20.714  1.00  0.00     0.156 HD
ENDBRANCH   1  17
TORSDOF 1
ENDMDL
MODEL 5
REMARK VINA RESULT:    -8.069      2.789      5.445
REMARK INTER + INTRA:          -8.305
REMARK INTER:                  -8.305
REMARK INTRA:                   0.000
REMARK UNBOUND:                 0.000
REMARK SMILES Nc1c2c(nc3cc(Cl)ccc13)[C@@H]1CC[C@H]2C1
REMARK SMILES IDX 2 1 3 2 4 3 5 4 6 5 7 6 8 7 9 8 10 9 11 10 12 11 13 12 14 13
REMARK SMILES IDX 15 14 16 15 17 16 1 17
REMARK H PARENT 1 18 1 19
ROOT
ATOM      1  C   UNL     1     -19.419 -42.033  26.056  1.00  0.00     0.046 A 
ATOM      2  C   UNL     1     -19.876 -41.932  24.760  1.00  0.00     0.001 A 
ATOM      3  C   UNL     1     -19.032 -42.252  23.700  1.00  0.00     0.050 A 
ATOM      4  N   UNL     1     -17.761 -42.640  23.805  1.00  0.00    -0.252 NA
ATOM      5  C   UNL     1     -17.276 -42.691  25.056  1.00  0.00     0.074 A 
ATOM      6  C   UNL     1     -15.947 -43.053  25.203  1.00  0.00     0.049 A 
ATOM      7  C   UNL     1     -15.345 -43.103  26.457  1.00  0.00     0.043 A 
ATOM      8  Cl  UNL     1     -13.689 -43.555  26.593  1.00  0.00    -0.084 Cl
ATOM      9  C   UNL     1     -16.067 -42.785  27.598  1.00  0.00     0.021 A 
ATOM     10  C   UNL     1     -17.408 -42.421  27.481  1.00  0.00     0.014 A 
ATOM     11  C   UNL     1     -18.048 -42.377  26.221  1.00  0.00     0.024 A 
ATOM     12  C   UNL     1     -19.810 -42.001  22.419  1.00  0.00     0.039 C 
ATOM     13  C   UNL     1     -19.984 -40.477  22.284  1.00  0.00     0.010 C 
ATOM     14  C   UNL     1     -20.929 -40.118  23.467  1.00  0.00     0.009 C 
ATOM     15  C   UNL     1     -21.179 -41.480  24.149  1.00  0.00     0.024 C 
ATOM     16  C   UNL     1     -21.201 -42.416  22.925  1.00  0.00     0.018 C 
ENDROOT
BRANCH   1  17
ATOM     17  N   UNL     1     -20.230 -41.601  27.118  1.00  0.00    -0.398 N 
ATOM     18  H   UNL     1     -20.528 -40.634  27.044  1.00  0.00     0.156 HD
ATOM     19  H   UNL     1     -19.840 -41.795  28.034  1.00  0.00     0.156 HD
ENDBRANCH   1  17
TORSDOF 1
ENDMDL
MODEL 6
REMARK VINA RESULT:    -7.162      3.441      6.257
REMARK INTER + INTRA:          -7.371
REMARK INTER:                  -7.371
REMARK INTRA:                   0.000
REMARK UNBOUND:                 0.000
REMARK SMILES Nc1c2c(nc3cc(Cl)ccc13)[C@@H]1CC[C@H]2C1
REMARK SMILES IDX 2 1 3 2 4 3 5 4 6 5 7 6 8 7 9 8 10 9 11 10 12 11 13 12 14 13
REMARK SMILES IDX 15 14 16 15 17 16 1 17
REMARK H PARENT 1 18 1 19
ROOT
ATOM      1  C   UNL     1     -21.178 -40.962  24.584  1.00  0.00     0.046 A 
ATOM      2  C   UNL     1     -21.100 -40.799  23.218  1.00  0.00     0.001 A 
ATOM      3  C   UNL     1     -19.949 -41.187  22.538  1.00  0.00     0.050 A 
ATOM      4  N   UNL     1     -18.850 -41.699  23.093  1.00  0.00    -0.252 NA
ATOM      5  C   UNL     1     -18.881 -41.813  24.431  1.00  0.00     0.074 A 
ATOM      6  C   UNL     1     -17.742 -42.305  25.048  1.00  0.00     0.049 A 
ATOM      7  C   UNL     1     -17.666 -42.430  26.432  1.00  0.00     0.043 A 
ATOM      8  Cl  UNL     1     -16.230 -43.043  27.158  1.00  0.00    -0.084 Cl
ATOM      9  C   UNL     1     -18.736 -42.057  27.233  1.00  0.00     0.021 A 
ATOM     10  C   UNL     1     -19.897 -41.563  26.638  1.00  0.00     0.014 A 
ATOM     11  C   UNL     1     -20.006 -41.440  25.234  1.00  0.00     0.024 A 
ATOM     12  C   UNL     1     -20.159 -40.846  21.072  1.00  0.00     0.039 C 
ATOM     13  C   UNL     1     -20.139 -39.309  20.956  1.00  0.00     0.010 C 
ATOM     14  C   UNL     1     -21.426 -38.876  21.714  1.00  0.00     0.009 C 
ATOM     15  C   UNL     1     -22.032 -40.215  22.185  1.00  0.00     0.024 C 
ATOM     16  C   UNL     1     -21.668 -41.129  20.998  1.00  0.00     0.018 C 
ENDROOT
BRANCH   1  17
ATOM     17  N   UNL     1     -22.290 -40.466  25.283  1.00  0.00    -0.398 N 
ATOM     18  H   UNL     1     -22.838 -39.788  24.763  1.00  0.00     0.156 HD
ATOM     19  H   UNL     1     -22.068 -40.122  26.212  1.00  0.00     0.156 HD
ENDBRANCH   1  17
TORSDOF 1
ENDMDL
MODEL 7
REMARK VINA RESULT:    -7.129      2.748      6.382
REMARK INTER + INTRA:          -7.337
REMARK INTER:                  -7.337
REMARK INTRA:                   0.000
REMARK UNBOUND:                 0.000
REMARK SMILES Nc1c2c(nc3cc(Cl)ccc13)[C@@H]1CC[C@H]2C1
REMARK SMILES IDX 2 1 3 2 4 3 5 4 6 5 7 6 8 7 9 8 10 9 11 10 12 11 13 12 14 13
REMARK SMILES IDX 15 14 16 15 17 16 1 17
REMARK H PARENT 1 18 1 19
ROOT
ATOM      1  C   UNL     1     -19.871 -41.624  24.065  1.00  0.00     0.046 A 
ATOM      2  C   UNL     1     -20.926 -41.367  24.912  1.00  0.00     0.001 A 
ATOM      3  C   UNL     1     -20.742 -41.438  26.290  1.00  0.00     0.050 A 
ATOM      4  N   UNL     1     -19.609 -41.768  26.910  1.00  0.00    -0.252 NA
ATOM      5  C   UNL     1     -18.581 -42.079  26.104  1.00  0.00     0.074 A 
ATOM      6  C   UNL     1     -17.398 -42.465  26.711  1.00  0.00     0.049 A 
ATOM      7  C   UNL     1     -16.286 -42.837  25.959  1.00  0.00     0.043 A 
ATOM      8  Cl  UNL     1     -14.836 -43.312  26.755  1.00  0.00    -0.084 Cl
ATOM      9  C   UNL     1     -16.341 -42.833  24.573  1.00  0.00     0.021 A 
ATOM     10  C   UNL     1     -17.518 -42.445  23.935  1.00  0.00     0.014 A 
ATOM     11  C   UNL     1     -18.657 -42.048  24.674  1.00  0.00     0.024 A 
ATOM     12  C   UNL     1     -22.086 -41.145  26.936  1.00  0.00     0.039 C 
ATOM     13  C   UNL     1     -23.005 -42.346  26.639  1.00  0.00     0.010 C 
ATOM     14  C   UNL     1     -23.212 -42.266  25.099  1.00  0.00     0.009 C 
ATOM     15  C   UNL     1     -22.380 -41.032  24.690  1.00  0.00     0.024 C 
ATOM     16  C   UNL     1     -22.599 -40.119  25.912  1.00  0.00     0.018 C 
ENDROOT
BRANCH   1  17
ATOM     17  N   UNL     1     -20.083 -41.666  22.677  1.00  0.00    -0.398 N 
ATOM     18  H   UNL     1     -20.779 -41.006  22.345  1.00  0.00     0.156 HD
ATOM     19  H   UNL     1     -20.263 -42.598  22.320  1.00  0.00     0.156 HD
ENDBRANCH   1  17
TORSDOF 1
ENDMDL
MODEL 8
REMARK VINA RESULT:    -7.031      3.880      6.785
REMARK INTER + INTRA:          -7.237
REMARK INTER:                  -7.237
REMARK INTRA:                   0.000
REMARK UNBOUND:                 0.000
REMARK SMILES Nc1c2c(nc3cc(Cl)ccc13)[C@@H]1CC[C@H]2C1
REMARK SMILES IDX 2 1 3 2 4 3 5 4 6 5 7 6 8 7 9 8 10 9 11 10 12 11 13 12 14 13
REMARK SMILES IDX 15 14 16 15 17 16 1 17
REMARK H PARENT 1 18 1 19
ROOT
ATOM      1  C   UNL     1     -18.606 -40.665  22.150  1.00  0.00     0.046 A 
ATOM      2  C   UNL     1     -19.705 -40.045  21.598  1.00  0.00     0.001 A 
ATOM      3  C   UNL     1     -20.876 -39.916  22.340  1.00  0.00     0.050 A 
ATOM      4  N   UNL     1     -21.068 -40.372  23.579  1.00  0.00    -0.252 NA
ATOM      5  C   UNL     1     -20.029 -41.030  24.117  1.00  0.00     0.074 A 
ATOM      6  C   UNL     1     -20.204 -41.552  25.388  1.00  0.00     0.049 A 
ATOM      7  C   UNL     1     -19.197 -42.279  26.018  1.00  0.00     0.043 A 
ATOM      8  Cl  UNL     1     -19.458 -42.912  27.596  1.00  0.00    -0.084 Cl
ATOM      9  C   UNL     1     -17.986 -42.502  25.379  1.00  0.00     0.021 A 
ATOM     10  C   UNL     1     -17.780 -41.983  24.100  1.00  0.00     0.014 A 
ATOM     11  C   UNL     1     -18.781 -41.230  23.444  1.00  0.00     0.024 A 
ATOM     12  C   UNL     1     -21.899 -39.233  21.447  1.00  0.00     0.039 C 
ATOM     13  C   UNL     1     -22.287 -40.241  20.348  1.00  0.00     0.010 C 
ATOM     14  C   UNL     1     -20.979 -40.384  19.516  1.00  0.00     0.009 C 
ATOM     15  C   UNL     1     -19.990 -39.447  20.242  1.00  0.00     0.024 C 
ATOM     16  C   UNL     1     -20.937 -38.312  20.680  1.00  0.00     0.018 C 
ENDROOT
BRANCH   1  17
ATOM     17  N   UNL     1     -17.467 -40.897  21.364  1.00  0.00    -0.398 N 
ATOM     18  H   UNL     1     -17.382 -40.277  20.565  1.00  0.00     0.156 HD
ATOM     19  H   UNL     1     -17.352 -41.867  21.089  1.00  0.00     0.156 HD
ENDBRANCH   1  17
TORSDOF 1
ENDMDL
MODEL 9
REMARK VINA RESULT:    -6.123      4.147      6.054
REMARK INTER + INTRA:          -6.302
REMARK INTER:                  -6.302
REMARK INTRA:                   0.000
REMARK UNBOUND:                 0.000
REMARK SMILES Nc1c2c(nc3cc(Cl)ccc13)[C@@H]1CC[C@H]2C1
REMARK SMILES IDX 2 1 3 2 4 3 5 4 6 5 7 6 8 7 9 8 10 9 11 10 12 11 13 12 14 13
REMARK SMILES IDX 15 14 16 15 17 16 1 17
REMARK H PARENT 1 18 1 19
ROOT
ATOM      1  C   UNL     1     -22.136 -40.345  24.621  1.00  0.00     0.046 A 
ATOM      2  C   UNL     1     -21.139 -41.113  25.183  1.00  0.00     0.001 A 
ATOM      3  C   UNL     1     -19.944 -41.309  24.497  1.00  0.00     0.050 A 
ATOM      4  N   UNL     1     -19.653 -40.834  23.285  1.00  0.00    -0.252 NA
ATOM      5  C   UNL     1     -20.632 -40.130  22.693  1.00  0.00     0.074 A 
ATOM      6  C   UNL     1     -20.381 -39.653  21.417  1.00  0.00     0.049 A 
ATOM      7  C   UNL     1     -21.345 -38.940  20.709  1.00  0.00     0.043 A 
ATOM      8  Cl  UNL     1     -20.992 -38.368  19.124  1.00  0.00    -0.084 Cl
ATOM      9  C   UNL     1     -22.590 -38.693  21.268  1.00  0.00     0.021 A 
ATOM     10  C   UNL     1     -22.868 -39.157  22.553  1.00  0.00     0.014 A 
ATOM     11  C   UNL     1     -21.903 -39.871  23.300  1.00  0.00     0.024 A 
ATOM     12  C   UNL     1     -19.081 -42.221  25.353  1.00  0.00     0.039 C 
ATOM     13  C   UNL     1     -19.735 -43.616  25.333  1.00  0.00     0.010 C 
ATOM     14  C   UNL     1     -21.070 -43.398  26.101  1.00  0.00     0.009 C 
ATOM     15  C   UNL     1     -21.031 -41.898  26.466  1.00  0.00     0.024 C 
ATOM     16  C   UNL     1     -19.524 -41.706  26.732  1.00  0.00     0.018 C 
ENDROOT
BRANCH   1  17
ATOM     17  N   UNL     1     -23.382 -40.242  25.260  1.00  0.00    -0.398 N 
ATOM     18  H   UNL     1     -23.836 -41.134  25.428  1.00  0.00     0.156 HD
ATOM     19  H   UNL     1     -24.015 -39.586  24.815  1.00  0.00     0.156 HD
ENDBRANCH   1  17
TORSDOF 1
ENDMDL
