MODEL 1
REMARK VINA RESULT:   -11.921      0.000      0.000
REMARK INTER + INTRA:         -16.930
REMARK INTER:                 -16.102
REMARK INTRA:                  -0.828
REMARK UNBOUND:                -0.828
REMARK SMILES O=C(NCCCN=c1c2c([nH]c3ccccc13)CCCC2)c1ccc(F)cc1
REMARK SMILES IDX 5 1 6 2 7 3 8 4 11 5 10 6 12 7 9 8 18 9 13 10 17 11 21 12
REMARK SMILES IDX 19 13 14 14 16 15 20 16 15 17 4 19 3 20 2 21 1 23 22 24
REMARK SMILES IDX 23 25 28 26 24 27 27 28 25 29 26 30
REMARK H PARENT 11 18 3 22
ROOT
ATOM      1  C   UNL     1     -12.569 -45.970  27.929  1.00  0.00     0.045 C 
ENDROOT
BRANCH   1   2
ATOM      2  C   UNL     1     -11.403 -46.447  28.795  1.00  0.00     0.144 C 
BRANCH   2   3
ATOM      3  N   UNL     1     -11.794 -46.312  30.183  1.00  0.00    -0.284 NA
BRANCH   3   4
ATOM      4  C   UNL     1     -11.232 -45.536  31.050  1.00  0.00     0.072 A 
ATOM      5  N   UNL     1     -10.292 -43.200  32.313  1.00  0.00    -0.358 N 
ATOM      6  C   UNL     1     -11.637 -43.503  32.369  1.00  0.00     0.021 A 
ATOM      7  C   UNL     1      -9.354 -44.192  31.979  1.00  0.00     0.048 A 
ATOM      8  C   UNL     1     -12.154 -44.618  31.814  1.00  0.00    -0.003 A 
ATOM      9  C   UNL     1     -12.520 -42.504  33.085  1.00  0.00     0.054 C 
ATOM     10  C   UNL     1      -7.992 -43.974  32.226  1.00  0.00     0.027 A 
ATOM     11  C   UNL     1      -9.773 -45.393  31.375  1.00  0.00     0.024 A 
ATOM     12  C   UNL     1     -13.614 -44.979  31.860  1.00  0.00     0.039 C 
ATOM     13  C   UNL     1     -14.014 -42.689  32.814  1.00  0.00     0.007 C 
ATOM     14  C   UNL     1      -7.058 -44.972  31.955  1.00  0.00     0.002 A 
ATOM     15  C   UNL     1      -8.832 -46.408  31.161  1.00  0.00     0.012 A 
ATOM     16  C   UNL     1     -14.402 -44.160  32.884  1.00  0.00     0.005 C 
ATOM     17  C   UNL     1      -7.480 -46.195  31.443  1.00  0.00     0.001 A 
ATOM     18  H   UNL     1      -9.969 -42.460  32.926  1.00  0.00     0.166 HD
ENDBRANCH   3   4
ENDBRANCH   2   3
ENDBRANCH   1   2
BRANCH   1  19
ATOM     19  C   UNL     1     -12.547 -44.453  27.766  1.00  0.00     0.118 C 
BRANCH  19  20
ATOM     20  N   UNL     1     -13.888 -43.908  27.674  1.00  0.00    -0.352 N 
ATOM     21  C   UNL     1     -14.342 -43.320  26.511  1.00  0.00     0.251 C 
ATOM     22  H   UNL     1     -14.562 -44.221  28.359  1.00  0.00     0.163 HD
ATOM     23  O   UNL     1     -13.643 -43.145  25.520  1.00  0.00    -0.269 OA
BRANCH  21  24
ATOM     24  C   UNL     1     -15.778 -42.921  26.489  1.00  0.00     0.040 A 
ATOM     25  C   UNL     1     -16.493 -42.788  25.290  1.00  0.00     0.017 A 
ATOM     26  C   UNL     1     -16.425 -42.704  27.714  1.00  0.00     0.017 A 
ATOM     27  C   UNL     1     -17.841 -42.416  25.321  1.00  0.00     0.040 A 
ATOM     28  C   UNL     1     -17.771 -42.333  27.741  1.00  0.00     0.040 A 
ATOM     29  C   UNL     1     -18.464 -42.190  26.544  1.00  0.00     0.123 A 
ATOM     30  F   UNL     1     -19.756 -41.835  26.568  1.00  0.00    -0.207 F 
ENDBRANCH  21  24
ENDBRANCH  19  20
ENDBRANCH   1  19
TORSDOF 6
ENDMDL
MODEL 2
REMARK VINA RESULT:   -11.904      1.377      1.810
REMARK INTER + INTRA:         -16.908
REMARK INTER:                 -16.020
REMARK INTRA:                  -0.888
REMARK UNBOUND:                -0.828
REMARK SMILES O=C(NCCCN=c1c2c([nH]c3ccccc13)CCCC2)c1ccc(F)cc1
REMARK SMILES IDX 5 1 6 2 7 3 8 4 11 5 10 6 12 7 9 8 18 9 13 10 17 11 21 12
REMARK SMILES IDX 19 13 14 14 16 15 20 16 15 17 4 19 3 20 2 21 1 23 22 24
REMARK SMILES IDX 23 25 28 26 24 27 27 28 25 29 26 30
REMARK H PARENT 11 18 3 22
ROOT
ATOM      1  C   UNL     1     -11.725 -45.923  28.071  1.00  0.00     0.045 C 
ENDROOT
BRANCH   1   2
ATOM      2  C   UNL     1     -10.442 -46.119  28.880  1.00  0.00     0.144 C 
BRANCH   2   3
ATOM      3  N   UNL     1     -10.812 -46.261  30.273  1.00  0.00    -0.284 NA
BRANCH   3   4
ATOM      4  C   UNL     1     -10.567 -45.400  31.207  1.00  0.00     0.072 A 
ATOM      5  N   UNL     1     -10.369 -42.947  32.576  1.00  0.00    -0.358 N 
ATOM      6  C   UNL     1     -11.604 -43.548  32.444  1.00  0.00     0.021 A 
ATOM      7  C   UNL     1      -9.193 -43.691  32.384  1.00  0.00     0.048 A 
ATOM      8  C   UNL     1     -11.771 -44.735  31.827  1.00  0.00    -0.003 A 
ATOM      9  C   UNL     1     -12.782 -42.795  33.023  1.00  0.00     0.054 C 
ATOM     10  C   UNL     1      -7.964 -43.177  32.819  1.00  0.00     0.027 A 
ATOM     11  C   UNL     1      -9.239 -44.940  31.733  1.00  0.00     0.024 A 
ATOM     12  C   UNL     1     -13.103 -45.419  31.669  1.00  0.00     0.039 C 
ATOM     13  C   UNL     1     -14.142 -43.305  32.545  1.00  0.00     0.007 C 
ATOM     14  C   UNL     1      -6.798 -43.930  32.688  1.00  0.00     0.002 A 
ATOM     15  C   UNL     1      -8.071 -45.708  31.660  1.00  0.00     0.012 A 
ATOM     16  C   UNL     1     -14.190 -44.827  32.567  1.00  0.00     0.005 C 
ATOM     17  C   UNL     1      -6.856 -45.203  32.128  1.00  0.00     0.001 A 
ATOM     18  H   UNL     1     -10.312 -42.169  33.225  1.00  0.00     0.166 HD
ENDBRANCH   3   4
ENDBRANCH   2   3
ENDBRANCH   1   2
BRANCH   1  19
ATOM     19  C   UNL     1     -12.154 -44.459  28.069  1.00  0.00     0.118 C 
BRANCH  19  20
ATOM     20  N   UNL     1     -13.097 -44.183  27.002  1.00  0.00    -0.352 N 
ATOM     21  C   UNL     1     -14.426 -43.924  27.272  1.00  0.00     0.251 C 
ATOM     22  H   UNL     1     -12.715 -43.902  26.110  1.00  0.00     0.163 HD
ATOM     23  O   UNL     1     -14.917 -43.983  28.393  1.00  0.00    -0.269 OA
BRANCH  21  24
ATOM     24  C   UNL     1     -15.269 -43.519  26.111  1.00  0.00     0.040 A 
ATOM     25  C   UNL     1     -16.474 -42.820  26.277  1.00  0.00     0.017 A 
ATOM     26  C   UNL     1     -14.815 -43.828  24.821  1.00  0.00     0.017 A 
ATOM     27  C   UNL     1     -17.228 -42.457  25.156  1.00  0.00     0.040 A 
ATOM     28  C   UNL     1     -15.571 -43.465  23.705  1.00  0.00     0.040 A 
ATOM     29  C   UNL     1     -16.771 -42.785  23.884  1.00  0.00     0.123 A 
ATOM     30  F   UNL     1     -17.497 -42.435  22.814  1.00  0.00    -0.207 F 
ENDBRANCH  21  24
ENDBRANCH  19  20
ENDBRANCH   1  19
TORSDOF 6
ENDMDL
MODEL 3
REMARK VINA RESULT:   -11.159      2.224      3.917
REMARK INTER + INTRA:         -15.901
REMARK INTER:                 -14.344
REMARK INTRA:                  -1.557
REMARK UNBOUND:                -0.828
REMARK SMILES O=C(NCCCN=c1c2c([nH]c3ccccc13)CCCC2)c1ccc(F)cc1
REMARK SMILES IDX 5 1 6 2 7 3 8 4 11 5 10 6 12 7 9 8 18 9 13 10 17 11 21 12
REMARK SMILES IDX 19 13 14 14 16 15 20 16 15 17 4 19 3 20 2 21 1 23 22 24
REMARK SMILES IDX 23 25 28 26 24 27 27 28 25 29 26 30
REMARK H PARENT 11 18 3 22
ROOT
ATOM      1  C   UNL     1     -12.491 -45.611  31.429  1.00  0.00     0.045 C 
ENDROOT
BRANCH   1   2
ATOM      2  C   UNL     1     -13.382 -44.430  31.816  1.00  0.00     0.144 C 
BRANCH   2   3
ATOM      3  N   UNL     1     -12.732 -43.216  31.366  1.00  0.00    -0.284 NA
BRANCH   3   4
ATOM      4  C   UNL     1     -11.472 -42.951  31.483  1.00  0.00     0.072 A 
ATOM      5  N   UNL     1      -8.673 -43.271  31.450  1.00  0.00    -0.358 N 
ATOM      6  C   UNL     1      -9.348 -43.100  30.258  1.00  0.00     0.021 A 
ATOM      7  C   UNL     1      -9.282 -42.918  32.666  1.00  0.00     0.048 A 
ATOM      8  C   UNL     1     -10.681 -42.913  30.198  1.00  0.00    -0.003 A 
ATOM      9  C   UNL     1      -8.508 -43.146  28.999  1.00  0.00     0.054 C 
ATOM     10  C   UNL     1      -8.504 -42.793  33.824  1.00  0.00     0.027 A 
ATOM     11  C   UNL     1     -10.675 -42.715  32.733  1.00  0.00     0.024 A 
ATOM     12  C   UNL     1     -11.446 -42.721  28.916  1.00  0.00     0.039 C 
ATOM     13  C   UNL     1      -9.320 -43.315  27.715  1.00  0.00     0.007 C 
ATOM     14  C   UNL     1      -9.085 -42.386  35.024  1.00  0.00     0.002 A 
ATOM     15  C   UNL     1     -11.235 -42.252  33.929  1.00  0.00     0.012 A 
ATOM     16  C   UNL     1     -10.543 -42.408  27.721  1.00  0.00     0.005 C 
ATOM     17  C   UNL     1     -10.445 -42.096  35.071  1.00  0.00     0.001 A 
ATOM     18  H   UNL     1      -7.663 -43.199  31.412  1.00  0.00     0.166 HD
ENDBRANCH   3   4
ENDBRANCH   2   3
ENDBRANCH   1   2
BRANCH   1  19
ATOM     19  C   UNL     1     -13.037 -46.330  30.199  1.00  0.00     0.118 C 
BRANCH  19  20
ATOM     20  N   UNL     1     -13.696 -45.408  29.294  1.00  0.00    -0.352 N 
ATOM     21  C   UNL     1     -13.432 -45.425  27.939  1.00  0.00     0.251 C 
ATOM     22  H   UNL     1     -14.544 -44.966  29.621  1.00  0.00     0.163 HD
ATOM     23  O   UNL     1     -12.586 -46.144  27.420  1.00  0.00    -0.269 OA
BRANCH  21  24
ATOM     24  C   UNL     1     -14.268 -44.529  27.091  1.00  0.00     0.040 A 
ATOM     25  C   UNL     1     -15.105 -43.550  27.647  1.00  0.00     0.017 A 
ATOM     26  C   UNL     1     -14.183 -44.663  25.698  1.00  0.00     0.017 A 
ATOM     27  C   UNL     1     -15.867 -42.729  26.810  1.00  0.00     0.040 A 
ATOM     28  C   UNL     1     -14.946 -43.841  24.866  1.00  0.00     0.040 A 
ATOM     29  C   UNL     1     -15.782 -42.885  25.430  1.00  0.00     0.123 A 
ATOM     30  F   UNL     1     -16.513 -42.095  24.633  1.00  0.00    -0.207 F 
ENDBRANCH  21  24
ENDBRANCH  19  20
ENDBRANCH   1  19
TORSDOF 6
ENDMDL
MODEL 4
REMARK VINA RESULT:   -10.583      1.006      3.749
REMARK INTER + INTRA:         -15.123
REMARK INTER:                 -14.488
REMARK INTRA:                  -0.635
REMARK UNBOUND:                -0.828
REMARK SMILES O=C(NCCCN=c1c2c([nH]c3ccccc13)CCCC2)c1ccc(F)cc1
REMARK SMILES IDX 5 1 6 2 7 3 8 4 11 5 10 6 12 7 9 8 18 9 13 10 17 11 21 12
REMARK SMILES IDX 19 13 14 14 16 15 20 16 15 17 4 19 3 20 2 21 1 23 22 24
REMARK SMILES IDX 23 25 28 26 24 27 27 28 25 29 26 30
REMARK H PARENT 11 18 3 22
ROOT
ATOM      1  C   UNL     1     -12.660 -46.046  28.892  1.00  0.00     0.045 C 
ENDROOT
BRANCH   1   2
ATOM      2  C   UNL     1     -11.287 -45.911  29.552  1.00  0.00     0.144 C 
BRANCH   2   3
ATOM      3  N   UNL     1     -11.491 -45.779  30.980  1.00  0.00    -0.284 NA
BRANCH   3   4
ATOM      4  C   UNL     1     -11.468 -44.669  31.643  1.00  0.00     0.072 A 
ATOM      5  N   UNL     1     -11.075 -42.835  33.744  1.00  0.00    -0.358 N 
ATOM      6  C   UNL     1      -9.986 -43.274  33.019  1.00  0.00     0.021 A 
ATOM      7  C   UNL     1     -12.374 -42.981  33.232  1.00  0.00     0.048 A 
ATOM      8  C   UNL     1     -10.101 -44.129  31.982  1.00  0.00    -0.003 A 
ATOM      9  C   UNL     1      -8.634 -42.753  33.456  1.00  0.00     0.054 C 
ATOM     10  C   UNL     1     -13.434 -42.266  33.806  1.00  0.00     0.027 A 
ATOM     11  C   UNL     1     -12.623 -43.861  32.160  1.00  0.00     0.024 A 
ATOM     12  C   UNL     1      -8.935 -44.624  31.169  1.00  0.00     0.039 C 
ATOM     13  C   UNL     1      -7.451 -43.529  32.876  1.00  0.00     0.007 C 
ATOM     14  C   UNL     1     -14.718 -42.356  33.270  1.00  0.00     0.002 A 
ATOM     15  C   UNL     1     -13.904 -43.898  31.597  1.00  0.00     0.012 A 
ATOM     16  C   UNL     1      -7.659 -43.811  31.394  1.00  0.00     0.005 C 
ATOM     17  C   UNL     1     -14.948 -43.155  32.153  1.00  0.00     0.001 A 
ATOM     18  H   UNL     1     -10.917 -42.047  34.363  1.00  0.00     0.166 HD
ENDBRANCH   3   4
ENDBRANCH   2   3
ENDBRANCH   1   2
BRANCH   1  19
ATOM     19  C   UNL     1     -12.824 -45.042  27.756  1.00  0.00     0.118 C 
BRANCH  19  20
ATOM     20  N   UNL     1     -14.101 -44.358  27.830  1.00  0.00    -0.352 N 
ATOM     21  C   UNL     1     -14.562 -43.590  26.780  1.00  0.00     0.251 C 
ATOM     22  H   UNL     1     -14.759 -44.683  28.525  1.00  0.00     0.163 HD
ATOM     23  O   UNL     1     -13.914 -43.366  25.765  1.00  0.00    -0.269 OA
BRANCH  21  24
ATOM     24  C   UNL     1     -15.944 -43.049  26.915  1.00  0.00     0.040 A 
ATOM     25  C   UNL     1     -16.513 -42.767  28.167  1.00  0.00     0.017 A 
ATOM     26  C   UNL     1     -16.675 -42.795  25.745  1.00  0.00     0.017 A 
ATOM     27  C   UNL     1     -17.812 -42.256  28.241  1.00  0.00     0.040 A 
ATOM     28  C   UNL     1     -17.972 -42.285  25.825  1.00  0.00     0.040 A 
ATOM     29  C   UNL     1     -18.529 -42.023  27.072  1.00  0.00     0.123 A 
ATOM     30  F   UNL     1     -19.773 -41.533  27.150  1.00  0.00    -0.207 F 
ENDBRANCH  21  24
ENDBRANCH  19  20
ENDBRANCH   1  19
TORSDOF 6
ENDMDL
MODEL 5
REMARK VINA RESULT:   -10.228      4.337     10.842
REMARK INTER + INTRA:         -14.644
REMARK INTER:                 -14.328
REMARK INTRA:                  -0.316
REMARK UNBOUND:                -0.828
REMARK SMILES O=C(NCCCN=c1c2c([nH]c3ccccc13)CCCC2)c1ccc(F)cc1
REMARK SMILES IDX 5 1 6 2 7 3 8 4 11 5 10 6 12 7 9 8 18 9 13 10 17 11 21 12
REMARK SMILES IDX 19 13 14 14 16 15 20 16 15 17 4 19 3 20 2 21 1 23 22 24
REMARK SMILES IDX 23 25 28 26 24 27 27 28 25 29 26 30
REMARK H PARENT 11 18 3 22
ROOT
ATOM      1  C   UNL     1     -15.480 -41.990  23.739  1.00  0.00     0.045 C 
ENDROOT
BRANCH   1   2
ATOM      2  C   UNL     1     -16.501 -41.571  22.681  1.00  0.00     0.144 C 
BRANCH   2   3
ATOM      3  N   UNL     1     -17.778 -42.154  23.039  1.00  0.00    -0.284 NA
BRANCH   3   4
ATOM      4  C   UNL     1     -18.891 -41.508  23.159  1.00  0.00     0.072 A 
ATOM      5  N   UNL     1     -21.641 -40.985  23.478  1.00  0.00    -0.358 N 
ATOM      6  C   UNL     1     -20.893 -41.360  24.576  1.00  0.00     0.021 A 
ATOM      7  C   UNL     1     -21.009 -40.503  22.320  1.00  0.00     0.048 A 
ATOM      8  C   UNL     1     -19.568 -41.598  24.505  1.00  0.00    -0.003 A 
ATOM      9  C   UNL     1     -21.644 -41.505  25.882  1.00  0.00     0.054 C 
ATOM     10  C   UNL     1     -21.759 -39.837  21.343  1.00  0.00     0.027 A 
ATOM     11  C   UNL     1     -19.629 -40.709  22.124  1.00  0.00     0.024 A 
ATOM     12  C   UNL     1     -18.724 -42.005  25.682  1.00  0.00     0.039 C 
ATOM     13  C   UNL     1     -20.870 -42.257  26.965  1.00  0.00     0.007 C 
ATOM     14  C   UNL     1     -21.135 -39.302  20.217  1.00  0.00     0.002 A 
ATOM     15  C   UNL     1     -19.007 -40.118  21.018  1.00  0.00     0.012 A 
ATOM     16  C   UNL     1     -19.423 -41.787  27.025  1.00  0.00     0.005 C 
ATOM     17  C   UNL     1     -19.757 -39.424  20.066  1.00  0.00     0.001 A 
ATOM     18  H   UNL     1     -22.573 -40.632  23.666  1.00  0.00     0.166 HD
ENDBRANCH   3   4
ENDBRANCH   2   3
ENDBRANCH   1   2
BRANCH   1  19
ATOM     19  C   UNL     1     -15.958 -43.217  24.508  1.00  0.00     0.118 C 
BRANCH  19  20
ATOM     20  N   UNL     1     -14.855 -43.905  25.152  1.00  0.00    -0.352 N 
ATOM     21  C   UNL     1     -14.375 -43.494  26.379  1.00  0.00     0.251 C 
ATOM     22  H   UNL     1     -14.644 -44.840  24.832  1.00  0.00     0.163 HD
ATOM     23  O   UNL     1     -14.778 -42.497  26.968  1.00  0.00    -0.269 OA
BRANCH  21  24
ATOM     24  C   UNL     1     -13.334 -44.357  27.004  1.00  0.00     0.040 A 
ATOM     25  C   UNL     1     -12.333 -43.830  27.834  1.00  0.00     0.017 A 
ATOM     26  C   UNL     1     -13.387 -45.739  26.768  1.00  0.00     0.017 A 
ATOM     27  C   UNL     1     -11.380 -44.683  28.402  1.00  0.00     0.040 A 
ATOM     28  C   UNL     1     -12.434 -46.586  27.336  1.00  0.00     0.040 A 
ATOM     29  C   UNL     1     -11.438 -46.048  28.145  1.00  0.00     0.123 A 
ATOM     30  F   UNL     1     -10.524 -46.860  28.693  1.00  0.00    -0.207 F 
ENDBRANCH  21  24
ENDBRANCH  19  20
ENDBRANCH   1  19
TORSDOF 6
ENDMDL
MODEL 6
REMARK VINA RESULT:    -9.996      2.308      4.105
REMARK INTER + INTRA:         -14.330
REMARK INTER:                 -13.055
REMARK INTRA:                  -1.276
REMARK UNBOUND:                -0.828
REMARK SMILES O=C(NCCCN=c1c2c([nH]c3ccccc13)CCCC2)c1ccc(F)cc1
REMARK SMILES IDX 5 1 6 2 7 3 8 4 11 5 10 6 12 7 9 8 18 9 13 10 17 11 21 12
REMARK SMILES IDX 19 13 14 14 16 15 20 16 15 17 4 19 3 20 2 21 1 23 22 24
REMARK SMILES IDX 23 25 28 26 24 27 27 28 25 29 26 30
REMARK H PARENT 11 18 3 22
ROOT
ATOM      1  C   UNL     1     -15.254 -42.267  32.152  1.00  0.00     0.045 C 
ENDROOT
BRANCH   1   2
ATOM      2  C   UNL     1     -14.256 -43.426  32.145  1.00  0.00     0.144 C 
BRANCH   2   3
ATOM      3  N   UNL     1     -13.008 -42.935  31.598  1.00  0.00    -0.284 NA
BRANCH   3   4
ATOM      4  C   UNL     1     -11.931 -43.632  31.441  1.00  0.00     0.072 A 
ATOM      5  N   UNL     1      -9.262 -44.304  30.839  1.00  0.00    -0.358 N 
ATOM      6  C   UNL     1      -9.544 -43.655  32.024  1.00  0.00     0.021 A 
ATOM      7  C   UNL     1     -10.282 -44.956  30.127  1.00  0.00     0.048 A 
ATOM      8  C   UNL     1     -10.800 -43.329  32.391  1.00  0.00    -0.003 A 
ATOM      9  C   UNL     1      -8.358 -43.312  32.899  1.00  0.00     0.054 C 
ATOM     10  C   UNL     1      -9.953 -45.866  29.113  1.00  0.00     0.027 A 
ATOM     11  C   UNL     1     -11.635 -44.682  30.408  1.00  0.00     0.024 A 
ATOM     12  C   UNL     1     -11.141 -42.624  33.677  1.00  0.00     0.039 C 
ATOM     13  C   UNL     1      -8.671 -42.295  33.998  1.00  0.00     0.007 C 
ATOM     14  C   UNL     1     -10.953 -46.564  28.439  1.00  0.00     0.002 A 
ATOM     15  C   UNL     1     -12.627 -45.432  29.764  1.00  0.00     0.012 A 
ATOM     16  C   UNL     1      -9.990 -42.623  34.684  1.00  0.00     0.005 C 
ATOM     17  C   UNL     1     -12.288 -46.362  28.779  1.00  0.00     0.001 A 
ATOM     18  H   UNL     1      -8.328 -44.687  30.745  1.00  0.00     0.166 HD
ENDBRANCH   3   4
ENDBRANCH   2   3
ENDBRANCH   1   2
BRANCH   1  19
ATOM     19  C   UNL     1     -16.416 -42.537  31.201  1.00  0.00     0.118 C 
BRANCH  19  20
ATOM     20  N   UNL     1     -15.948 -43.010  29.912  1.00  0.00    -0.352 N 
ATOM     21  C   UNL     1     -16.616 -42.685  28.748  1.00  0.00     0.251 C 
ATOM     22  H   UNL     1     -14.990 -43.325  29.855  1.00  0.00     0.163 HD
ATOM     23  O   UNL     1     -17.668 -42.058  28.718  1.00  0.00    -0.269 OA
BRANCH  21  24
ATOM     24  C   UNL     1     -15.968 -43.110  27.475  1.00  0.00     0.040 A 
ATOM     25  C   UNL     1     -14.806 -43.897  27.460  1.00  0.00     0.017 A 
ATOM     26  C   UNL     1     -16.565 -42.727  26.265  1.00  0.00     0.017 A 
ATOM     27  C   UNL     1     -14.238 -44.275  26.239  1.00  0.00     0.040 A 
ATOM     28  C   UNL     1     -15.994 -43.107  25.049  1.00  0.00     0.040 A 
ATOM     29  C   UNL     1     -14.834 -43.874  25.048  1.00  0.00     0.123 A 
ATOM     30  F   UNL     1     -14.286 -44.241  23.882  1.00  0.00    -0.207 F 
ENDBRANCH  21  24
ENDBRANCH  19  20
ENDBRANCH   1  19
TORSDOF 6
ENDMDL
MODEL 7
REMARK VINA RESULT:    -9.489      6.548     10.851
REMARK INTER + INTRA:         -13.646
REMARK INTER:                 -11.775
REMARK INTRA:                  -1.871
REMARK UNBOUND:                -0.828
REMARK SMILES O=C(NCCCN=c1c2c([nH]c3ccccc13)CCCC2)c1ccc(F)cc1
REMARK SMILES IDX 5 1 6 2 7 3 8 4 11 5 10 6 12 7 9 8 18 9 13 10 17 11 21 12
REMARK SMILES IDX 19 13 14 14 16 15 20 16 15 17 4 19 3 20 2 21 1 23 22 24
REMARK SMILES IDX 23 25 28 26 24 27 27 28 25 29 26 30
REMARK H PARENT 11 18 3 22
ROOT
ATOM      1  C   UNL     1     -20.215 -40.522  21.869  1.00  0.00     0.045 C 
ENDROOT
BRANCH   1   2
ATOM      2  C   UNL     1     -20.835 -40.119  23.208  1.00  0.00     0.144 C 
BRANCH   2   3
ATOM      3  N   UNL     1     -21.923 -41.034  23.488  1.00  0.00    -0.284 NA
BRANCH   3   4
ATOM      4  C   UNL     1     -22.240 -41.489  24.655  1.00  0.00     0.072 A 
ATOM      5  N   UNL     1     -22.313 -41.816  27.452  1.00  0.00    -0.358 N 
ATOM      6  C   UNL     1     -22.977 -40.750  26.879  1.00  0.00     0.021 A 
ATOM      7  C   UNL     1     -21.933 -42.919  26.670  1.00  0.00     0.048 A 
ATOM      8  C   UNL     1     -23.010 -40.547  25.547  1.00  0.00    -0.003 A 
ATOM      9  C   UNL     1     -23.668 -39.799  27.833  1.00  0.00     0.054 C 
ATOM     10  C   UNL     1     -21.551 -44.115  27.291  1.00  0.00     0.027 A 
ATOM     11  C   UNL     1     -21.909 -42.821  25.264  1.00  0.00     0.024 A 
ATOM     12  C   UNL     1     -23.728 -39.398  24.891  1.00  0.00     0.039 C 
ATOM     13  C   UNL     1     -24.071 -38.467  27.199  1.00  0.00     0.007 C 
ATOM     14  C   UNL     1     -21.229 -45.236  26.527  1.00  0.00     0.002 A 
ATOM     15  C   UNL     1     -21.639 -43.969  24.510  1.00  0.00     0.012 A 
ATOM     16  C   UNL     1     -24.701 -38.684  25.830  1.00  0.00     0.005 C 
ATOM     17  C   UNL     1     -21.294 -45.168  25.138  1.00  0.00     0.001 A 
ATOM     18  H   UNL     1     -22.513 -42.000  28.429  1.00  0.00     0.166 HD
ENDBRANCH   3   4
ENDBRANCH   2   3
ENDBRANCH   1   2
BRANCH   1  19
ATOM     19  C   UNL     1     -19.015 -41.441  22.074  1.00  0.00     0.118 C 
BRANCH  19  20
ATOM     20  N   UNL     1     -18.742 -41.652  23.484  1.00  0.00    -0.352 N 
ATOM     21  C   UNL     1     -17.730 -42.494  23.897  1.00  0.00     0.251 C 
ATOM     22  H   UNL     1     -19.102 -40.965  24.131  1.00  0.00     0.163 HD
ATOM     23  O   UNL     1     -17.054 -43.173  23.132  1.00  0.00    -0.269 OA
BRANCH  21  24
ATOM     24  C   UNL     1     -17.453 -42.525  25.360  1.00  0.00     0.040 A 
ATOM     25  C   UNL     1     -16.168 -42.775  25.868  1.00  0.00     0.017 A 
ATOM     26  C   UNL     1     -18.512 -42.268  26.243  1.00  0.00     0.017 A 
ATOM     27  C   UNL     1     -15.957 -42.788  27.250  1.00  0.00     0.040 A 
ATOM     28  C   UNL     1     -18.297 -42.284  27.622  1.00  0.00     0.040 A 
ATOM     29  C   UNL     1     -17.022 -42.546  28.112  1.00  0.00     0.123 A 
ATOM     30  F   UNL     1     -16.813 -42.560  29.435  1.00  0.00    -0.207 F 
ENDBRANCH  21  24
ENDBRANCH  19  20
ENDBRANCH   1  19
TORSDOF 6
ENDMDL
MODEL 8
REMARK VINA RESULT:    -9.240      7.288     10.669
REMARK INTER + INTRA:         -13.309
REMARK INTER:                 -10.771
REMARK INTRA:                  -2.538
REMARK UNBOUND:                -0.828
REMARK SMILES O=C(NCCCN=c1c2c([nH]c3ccccc13)CCCC2)c1ccc(F)cc1
REMARK SMILES IDX 5 1 6 2 7 3 8 4 11 5 10 6 12 7 9 8 18 9 13 10 17 11 21 12
REMARK SMILES IDX 19 13 14 14 16 15 20 16 15 17 4 19 3 20 2 21 1 23 22 24
REMARK SMILES IDX 23 25 28 26 24 27 27 28 25 29 26 30
REMARK H PARENT 11 18 3 22
ROOT
ATOM      1  C   UNL     1     -21.622 -42.813  20.783  1.00  0.00     0.045 C 
ENDROOT
BRANCH   1   2
ATOM      2  C   UNL     1     -20.985 -41.753  21.683  1.00  0.00     0.144 C 
BRANCH   2   3
ATOM      3  N   UNL     1     -19.967 -42.402  22.482  1.00  0.00    -0.284 NA
BRANCH   3   4
ATOM      4  C   UNL     1     -19.631 -42.070  23.685  1.00  0.00     0.072 A 
ATOM      5  N   UNL     1     -18.807 -42.283  26.371  1.00  0.00    -0.358 N 
ATOM      6  C   UNL     1     -17.872 -42.420  25.364  1.00  0.00     0.021 A 
ATOM      7  C   UNL     1     -20.048 -41.680  26.108  1.00  0.00     0.048 A 
ATOM      8  C   UNL     1     -18.188 -42.302  24.059  1.00  0.00    -0.003 A 
ATOM      9  C   UNL     1     -16.456 -42.726  25.802  1.00  0.00     0.054 C 
ATOM     10  C   UNL     1     -20.857 -41.259  27.172  1.00  0.00     0.027 A 
ATOM     11  C   UNL     1     -20.496 -41.519  24.782  1.00  0.00     0.024 A 
ATOM     12  C   UNL     1     -17.193 -42.443  22.939  1.00  0.00     0.039 C 
ATOM     13  C   UNL     1     -15.550 -43.221  24.674  1.00  0.00     0.007 C 
ATOM     14  C   UNL     1     -22.064 -40.606  26.926  1.00  0.00     0.002 A 
ATOM     15  C   UNL     1     -21.681 -40.812  24.549  1.00  0.00     0.012 A 
ATOM     16  C   UNL     1     -15.741 -42.384  23.416  1.00  0.00     0.005 C 
ATOM     17  C   UNL     1     -22.465 -40.364  25.615  1.00  0.00     0.001 A 
ATOM     18  H   UNL     1     -18.445 -42.183  27.313  1.00  0.00     0.166 HD
ENDBRANCH   3   4
ENDBRANCH   2   3
ENDBRANCH   1   2
BRANCH   1  19
ATOM     19  C   UNL     1     -22.918 -43.341  21.390  1.00  0.00     0.118 C 
BRANCH  19  20
ATOM     20  N   UNL     1     -22.805 -43.501  22.828  1.00  0.00    -0.352 N 
ATOM     21  C   UNL     1     -22.520 -44.729  23.390  1.00  0.00     0.251 C 
ATOM     22  H   UNL     1     -22.652 -42.665  23.375  1.00  0.00     0.163 HD
ATOM     23  O   UNL     1     -22.422 -45.766  22.744  1.00  0.00    -0.269 OA
BRANCH  21  24
ATOM     24  C   UNL     1     -22.292 -44.745  24.862  1.00  0.00     0.040 A 
ATOM     25  C   UNL     1     -21.122 -45.274  25.427  1.00  0.00     0.017 A 
ATOM     26  C   UNL     1     -23.275 -44.186  25.692  1.00  0.00     0.017 A 
ATOM     27  C   UNL     1     -20.952 -45.260  26.815  1.00  0.00     0.040 A 
ATOM     28  C   UNL     1     -23.101 -44.176  27.078  1.00  0.00     0.040 A 
ATOM     29  C   UNL     1     -21.942 -44.716  27.625  1.00  0.00     0.123 A 
ATOM     30  F   UNL     1     -21.773 -44.706  28.954  1.00  0.00    -0.207 F 
ENDBRANCH  21  24
ENDBRANCH  19  20
ENDBRANCH   1  19
TORSDOF 6
ENDMDL
MODEL 9
REMARK VINA RESULT:    -9.137      6.726     10.110
REMARK INTER + INTRA:         -13.171
REMARK INTER:                 -11.718
REMARK INTRA:                  -1.453
REMARK UNBOUND:                -0.828
REMARK SMILES O=C(NCCCN=c1c2c([nH]c3ccccc13)CCCC2)c1ccc(F)cc1
REMARK SMILES IDX 5 1 6 2 7 3 8 4 11 5 10 6 12 7 9 8 18 9 13 10 17 11 21 12
REMARK SMILES IDX 19 13 14 14 16 15 20 16 15 17 4 19 3 20 2 21 1 23 22 24
REMARK SMILES IDX 23 25 28 26 24 27 27 28 25 29 26 30
REMARK H PARENT 11 18 3 22
ROOT
ATOM      1  C   UNL     1     -21.190 -44.083  26.917  1.00  0.00     0.045 C 
ENDROOT
BRANCH   1   2
ATOM      2  C   UNL     1     -20.004 -43.427  27.625  1.00  0.00     0.144 C 
BRANCH   2   3
ATOM      3  N   UNL     1     -19.662 -42.222  26.898  1.00  0.00    -0.284 NA
BRANCH   3   4
ATOM      4  C   UNL     1     -18.905 -42.164  25.852  1.00  0.00     0.072 A 
ATOM      5  N   UNL     1     -17.825 -42.746  23.316  1.00  0.00    -0.358 N 
ATOM      6  C   UNL     1     -19.007 -42.038  23.401  1.00  0.00     0.021 A 
ATOM      7  C   UNL     1     -16.978 -42.848  24.432  1.00  0.00     0.048 A 
ATOM      8  C   UNL     1     -19.567 -41.699  24.579  1.00  0.00    -0.003 A 
ATOM      9  C   UNL     1     -19.661 -41.666  22.087  1.00  0.00     0.054 C 
ATOM     10  C   UNL     1     -15.657 -43.284  24.266  1.00  0.00     0.027 A 
ATOM     11  C   UNL     1     -17.457 -42.539  25.721  1.00  0.00     0.024 A 
ATOM     12  C   UNL     1     -20.853 -40.926  24.705  1.00  0.00     0.039 C 
ATOM     13  C   UNL     1     -21.116 -41.216  22.223  1.00  0.00     0.007 C 
ATOM     14  C   UNL     1     -14.788 -43.334  25.356  1.00  0.00     0.002 A 
ATOM     15  C   UNL     1     -16.559 -42.538  26.794  1.00  0.00     0.012 A 
ATOM     16  C   UNL     1     -21.283 -40.260  23.397  1.00  0.00     0.005 C 
ATOM     17  C   UNL     1     -15.234 -42.941  26.614  1.00  0.00     0.001 A 
ATOM     18  H   UNL     1     -17.380 -42.775  22.405  1.00  0.00     0.166 HD
ENDBRANCH   3   4
ENDBRANCH   2   3
ENDBRANCH   1   2
BRANCH   1  19
ATOM     19  C   UNL     1     -22.512 -43.640  27.536  1.00  0.00     0.118 C 
BRANCH  19  20
ATOM     20  N   UNL     1     -22.768 -42.233  27.294  1.00  0.00    -0.352 N 
ATOM     21  C   UNL     1     -23.943 -41.639  27.709  1.00  0.00     0.251 C 
ATOM     22  H   UNL     1     -21.971 -41.648  27.086  1.00  0.00     0.163 HD
ATOM     23  O   UNL     1     -24.869 -42.252  28.227  1.00  0.00    -0.269 OA
BRANCH  21  24
ATOM     24  C   UNL     1     -24.036 -40.163  27.529  1.00  0.00     0.040 A 
ATOM     25  C   UNL     1     -24.158 -39.288  28.620  1.00  0.00     0.017 A 
ATOM     26  C   UNL     1     -23.971 -39.647  26.227  1.00  0.00     0.017 A 
ATOM     27  C   UNL     1     -24.236 -37.910  28.400  1.00  0.00     0.040 A 
ATOM     28  C   UNL     1     -24.050 -38.270  26.012  1.00  0.00     0.040 A 
ATOM     29  C   UNL     1     -24.185 -37.415  27.101  1.00  0.00     0.123 A 
ATOM     30  F   UNL     1     -24.260 -36.093  26.897  1.00  0.00    -0.207 F 
ENDBRANCH  21  24
ENDBRANCH  19  20
ENDBRANCH   1  19
TORSDOF 6
ENDMDL
