MODEL 1
REMARK VINA RESULT:   -10.929      0.000      0.000
REMARK INTER + INTRA:         -16.818
REMARK INTER:                 -16.041
REMARK INTRA:                  -0.778
REMARK UNBOUND:                -0.778
REMARK SMILES COc1cc2c(cc1OC)S[C@H](C(=O)CCc1cc[n+](Cc3ccc(F)cc3)cc1)C2
REMARK SMILES IDX 15 1 13 2 14 3 12 4 3 5 4 6 8 7 5 8 7 9 6 10 31 11 11 12
REMARK SMILES IDX 2 13 1 14 9 15 10 16 16 17 17 18 18 19 30 20 19 21 29 22
REMARK SMILES IDX 20 23 21 24 22 25 23 26 28 27 24 28 27 29 25 30 26 31
REMARK H PARENT
ROOT
ATOM      1  C   UNL     1     -13.368 -45.200  27.869  1.00  0.00     0.081 C 
ENDROOT
BRANCH   1   2
ATOM      2  C   UNL     1     -12.080 -45.620  28.568  1.00  0.00     0.146 C 
ATOM      3  O   UNL     1     -10.984 -45.373  28.059  1.00  0.00    -0.298 OA
BRANCH   2   4
ATOM      4  C   UNL     1     -12.212 -46.286  29.942  1.00  0.00     0.123 C 
ATOM      5  C   UNL     1     -13.179 -42.676  32.987  1.00  0.00     0.161 A 
ATOM      6  C   UNL     1     -13.756 -43.661  32.173  1.00  0.00     0.055 A 
ATOM      7  C   UNL     1     -11.782 -42.678  33.219  1.00  0.00     0.161 A 
ATOM      8  C   UNL     1     -12.938 -44.621  31.585  1.00  0.00    -0.029 A 
ATOM      9  C   UNL     1     -10.972 -43.653  32.625  1.00  0.00     0.065 A 
ATOM     10  C   UNL     1     -11.564 -44.610  31.814  1.00  0.00     0.015 A 
ATOM     11  C   UNL     1     -13.420 -45.767  30.742  1.00  0.00     0.059 C 
ATOM     12  S   UNL     1     -10.735 -45.917  30.958  1.00  0.00    -0.114 SA
BRANCH   5  13
ATOM     13  O   UNL     1     -13.887 -41.678  33.610  1.00  0.00    -0.493 OA
ATOM     14  C   UNL     1     -15.261 -41.532  33.278  1.00  0.00     0.278 C 
ENDBRANCH   5  13
BRANCH   7  15
ATOM     15  O   UNL     1     -11.308 -41.675  34.031  1.00  0.00    -0.493 OA
ATOM     16  C   UNL     1      -9.953 -41.747  34.446  1.00  0.00     0.278 C 
ENDBRANCH   7  15
ENDBRANCH   2   4
ENDBRANCH   1   2
BRANCH   1  17
ATOM     17  C   UNL     1     -13.133 -44.021  26.923  1.00  0.00     0.044 C 
BRANCH  17  18
ATOM     18  C   UNL     1     -14.407 -43.577  26.243  1.00  0.00    -0.036 A 
ATOM     19  C   UNL     1     -14.526 -43.631  24.854  1.00  0.00     0.074 A 
ATOM     20  C   UNL     1     -15.491 -43.111  26.985  1.00  0.00     0.074 A 
ATOM     21  C   UNL     1     -15.701 -43.210  24.242  1.00  0.00     0.308 A 
ATOM     22  C   UNL     1     -16.649 -42.700  26.333  1.00  0.00     0.308 A 
ATOM     23  N   UNL     1     -16.736 -42.749  24.981  1.00  0.00    -0.201 N 
BRANCH  23  24
ATOM     24  C   UNL     1     -17.986 -42.308  24.312  1.00  0.00     0.393 C 
BRANCH  24  25
ATOM     25  C   UNL     1     -19.190 -42.537  25.192  1.00  0.00     0.017 A 
ATOM     26  C   UNL     1     -19.639 -41.537  26.075  1.00  0.00     0.013 A 
ATOM     27  C   UNL     1     -19.892 -43.754  25.130  1.00  0.00     0.013 A 
ATOM     28  C   UNL     1     -20.752 -41.761  26.887  1.00  0.00     0.040 A 
ATOM     29  C   UNL     1     -21.005 -43.970  25.945  1.00  0.00     0.040 A 
ATOM     30  C   UNL     1     -21.424 -42.974  26.817  1.00  0.00     0.123 A 
ATOM     31  F   UNL     1     -22.490 -43.185  27.597  1.00  0.00    -0.207 F 
ENDBRANCH  24  25
ENDBRANCH  23  24
ENDBRANCH  17  18
ENDBRANCH   1  17
TORSDOF 8
ENDMDL
MODEL 2
REMARK VINA RESULT:   -10.919      5.151     10.473
REMARK INTER + INTRA:         -16.803
REMARK INTER:                 -16.316
REMARK INTRA:                  -0.487
REMARK UNBOUND:                -0.778
REMARK SMILES COc1cc2c(cc1OC)S[C@H](C(=O)CCc1cc[n+](Cc3ccc(F)cc3)cc1)C2
REMARK SMILES IDX 15 1 13 2 14 3 12 4 3 5 4 6 8 7 5 8 7 9 6 10 31 11 11 12
REMARK SMILES IDX 2 13 1 14 9 15 10 16 16 17 17 18 18 19 30 20 19 21 29 22
REMARK SMILES IDX 20 23 21 24 22 25 23 26 28 27 24 28 27 29 25 30 26 31
REMARK H PARENT
ROOT
ATOM      1  C   UNL     1     -14.102 -45.011  25.960  1.00  0.00     0.081 C 
ENDROOT
BRANCH   1   2
ATOM      2  C   UNL     1     -14.572 -44.100  24.832  1.00  0.00     0.146 C 
ATOM      3  O   UNL     1     -14.579 -44.503  23.667  1.00  0.00    -0.298 OA
BRANCH   2   4
ATOM      4  C   UNL     1     -15.095 -42.713  25.221  1.00  0.00     0.123 C 
ATOM      5  C   UNL     1     -19.756 -42.748  23.992  1.00  0.00     0.161 A 
ATOM      6  C   UNL     1     -18.856 -42.982  25.041  1.00  0.00     0.055 A 
ATOM      7  C   UNL     1     -19.305 -42.144  22.793  1.00  0.00     0.161 A 
ATOM      8  C   UNL     1     -17.519 -42.632  24.879  1.00  0.00    -0.029 A 
ATOM      9  C   UNL     1     -17.957 -41.793  22.647  1.00  0.00     0.065 A 
ATOM     10  C   UNL     1     -17.083 -42.045  23.694  1.00  0.00     0.015 A 
ATOM     11  C   UNL     1     -16.457 -42.768  25.935  1.00  0.00     0.059 C 
ATOM     12  S   UNL     1     -15.349 -41.699  23.719  1.00  0.00    -0.114 SA
BRANCH   5  13
ATOM     13  O   UNL     1     -21.093 -43.059  24.039  1.00  0.00    -0.493 OA
ATOM     14  C   UNL     1     -21.483 -44.198  24.792  1.00  0.00     0.278 C 
ENDBRANCH   5  13
BRANCH   7  15
ATOM     15  O   UNL     1     -20.259 -41.953  21.822  1.00  0.00    -0.493 OA
ATOM     16  C   UNL     1     -20.192 -40.760  21.056  1.00  0.00     0.278 C 
ENDBRANCH   7  15
ENDBRANCH   2   4
ENDBRANCH   1   2
BRANCH   1  17
ATOM     17  C   UNL     1     -14.243 -44.334  27.324  1.00  0.00     0.044 C 
BRANCH  17  18
ATOM     18  C   UNL     1     -13.293 -44.912  28.346  1.00  0.00    -0.036 A 
ATOM     19  C   UNL     1     -12.025 -45.353  27.966  1.00  0.00     0.074 A 
ATOM     20  C   UNL     1     -13.656 -45.011  29.688  1.00  0.00     0.074 A 
ATOM     21  C   UNL     1     -11.165 -45.891  28.916  1.00  0.00     0.308 A 
ATOM     22  C   UNL     1     -12.764 -45.555  30.607  1.00  0.00     0.308 A 
ATOM     23  N   UNL     1     -11.543 -45.989  30.211  1.00  0.00    -0.201 N 
BRANCH  23  24
ATOM     24  C   UNL     1     -10.609 -46.562  31.214  1.00  0.00     0.393 C 
BRANCH  24  25
ATOM     25  C   UNL     1      -9.550 -45.562  31.611  1.00  0.00     0.017 A 
ATOM     26  C   UNL     1      -8.184 -45.848  31.430  1.00  0.00     0.013 A 
ATOM     27  C   UNL     1      -9.918 -44.320  32.157  1.00  0.00     0.013 A 
ATOM     28  C   UNL     1      -7.213 -44.918  31.804  1.00  0.00     0.040 A 
ATOM     29  C   UNL     1      -8.941 -43.394  32.528  1.00  0.00     0.040 A 
ATOM     30  C   UNL     1      -7.599 -43.700  32.351  1.00  0.00     0.123 A 
ATOM     31  F   UNL     1      -6.665 -42.812  32.709  1.00  0.00    -0.207 F 
ENDBRANCH  24  25
ENDBRANCH  23  24
ENDBRANCH  17  18
ENDBRANCH   1  17
TORSDOF 8
ENDMDL
MODEL 3
REMARK VINA RESULT:   -10.854      1.282      1.801
REMARK INTER + INTRA:         -16.708
REMARK INTER:                 -15.928
REMARK INTRA:                  -0.779
REMARK UNBOUND:                -0.778
REMARK SMILES COc1cc2c(cc1OC)S[C@H](C(=O)CCc1cc[n+](Cc3ccc(F)cc3)cc1)C2
REMARK SMILES IDX 15 1 13 2 14 3 12 4 3 5 4 6 8 7 5 8 7 9 6 10 31 11 11 12
REMARK SMILES IDX 2 13 1 14 9 15 10 16 16 17 17 18 18 19 30 20 19 21 29 22
REMARK SMILES IDX 20 23 21 24 22 25 23 26 28 27 24 28 27 29 25 30 26 31
REMARK H PARENT
ROOT
ATOM      1  C   UNL     1     -12.993 -45.404  27.824  1.00  0.00     0.081 C 
ENDROOT
BRANCH   1   2
ATOM      2  C   UNL     1     -11.713 -45.784  28.560  1.00  0.00     0.146 C 
ATOM      3  O   UNL     1     -10.612 -45.531  28.067  1.00  0.00    -0.298 OA
BRANCH   2   4
ATOM      4  C   UNL     1     -11.862 -46.416  29.948  1.00  0.00     0.123 C 
ATOM      5  C   UNL     1     -12.972 -42.748  32.873  1.00  0.00     0.161 A 
ATOM      6  C   UNL     1     -13.510 -43.766  32.074  1.00  0.00     0.055 A 
ATOM      7  C   UNL     1     -11.580 -42.714  33.136  1.00  0.00     0.161 A 
ATOM      8  C   UNL     1     -12.658 -44.724  31.530  1.00  0.00    -0.029 A 
ATOM      9  C   UNL     1     -10.737 -43.687  32.586  1.00  0.00     0.065 A 
ATOM     10  C   UNL     1     -11.290 -44.677  31.788  1.00  0.00     0.015 A 
ATOM     11  C   UNL     1     -13.098 -45.902  30.707  1.00  0.00     0.059 C 
ATOM     12  S   UNL     1     -10.416 -45.988  30.985  1.00  0.00    -0.114 SA
BRANCH   5  13
ATOM     13  O   UNL     1     -13.715 -41.749  33.453  1.00  0.00    -0.493 OA
ATOM     14  C   UNL     1     -15.098 -41.682  33.137  1.00  0.00     0.278 C 
ENDBRANCH   5  13
BRANCH   7  15
ATOM     15  O   UNL     1     -11.146 -41.679  33.930  1.00  0.00    -0.493 OA
ATOM     16  C   UNL     1     -10.040 -41.924  34.785  1.00  0.00     0.278 C 
ENDBRANCH   7  15
ENDBRANCH   2   4
ENDBRANCH   1   2
BRANCH   1  17
ATOM     17  C   UNL     1     -13.017 -43.916  27.472  1.00  0.00     0.044 C 
BRANCH  17  18
ATOM     18  C   UNL     1     -13.922 -43.626  26.297  1.00  0.00    -0.036 A 
ATOM     19  C   UNL     1     -14.521 -42.374  26.157  1.00  0.00     0.074 A 
ATOM     20  C   UNL     1     -14.174 -44.596  25.329  1.00  0.00     0.074 A 
ATOM     21  C   UNL     1     -15.359 -42.125  25.075  1.00  0.00     0.308 A 
ATOM     22  C   UNL     1     -15.018 -44.304  24.262  1.00  0.00     0.308 A 
ATOM     23  N   UNL     1     -15.599 -43.085  24.154  1.00  0.00    -0.201 N 
BRANCH  23  24
ATOM     24  C   UNL     1     -16.492 -42.800  23.003  1.00  0.00     0.393 C 
BRANCH  24  25
ATOM     25  C   UNL     1     -17.814 -42.231  23.461  1.00  0.00     0.017 A 
ATOM     26  C   UNL     1     -18.520 -41.313  22.662  1.00  0.00     0.013 A 
ATOM     27  C   UNL     1     -18.365 -42.624  24.693  1.00  0.00     0.013 A 
ATOM     28  C   UNL     1     -19.739 -40.791  23.097  1.00  0.00     0.040 A 
ATOM     29  C   UNL     1     -19.585 -42.099  25.122  1.00  0.00     0.040 A 
ATOM     30  C   UNL     1     -20.260 -41.186  24.323  1.00  0.00     0.123 A 
ATOM     31  F   UNL     1     -21.428 -40.682  24.737  1.00  0.00    -0.207 F 
ENDBRANCH  24  25
ENDBRANCH  23  24
ENDBRANCH  17  18
ENDBRANCH   1  17
TORSDOF 8
ENDMDL
MODEL 4
REMARK VINA RESULT:   -10.580      4.642      9.895
REMARK INTER + INTRA:         -16.306
REMARK INTER:                 -15.695
REMARK INTRA:                  -0.611
REMARK UNBOUND:                -0.778
REMARK SMILES COc1cc2c(cc1OC)S[C@H](C(=O)CCc1cc[n+](Cc3ccc(F)cc3)cc1)C2
REMARK SMILES IDX 15 1 13 2 14 3 12 4 3 5 4 6 8 7 5 8 7 9 6 10 31 11 11 12
REMARK SMILES IDX 2 13 1 14 9 15 10 16 16 17 17 18 18 19 30 20 19 21 29 22
REMARK SMILES IDX 20 23 21 24 22 25 23 26 28 27 24 28 27 29 25 30 26 31
REMARK H PARENT
ROOT
ATOM      1  C   UNL     1     -13.831 -44.990  27.421  1.00  0.00     0.081 C 
ENDROOT
BRANCH   1   2
ATOM      2  C   UNL     1     -14.208 -44.382  26.075  1.00  0.00     0.146 C 
ATOM      3  O   UNL     1     -14.320 -45.097  25.077  1.00  0.00    -0.298 OA
BRANCH   2   4
ATOM      4  C   UNL     1     -14.506 -42.879  26.043  1.00  0.00     0.123 C 
ATOM      5  C   UNL     1     -19.279 -42.570  25.436  1.00  0.00     0.161 A 
ATOM      6  C   UNL     1     -18.255 -42.603  26.393  1.00  0.00     0.055 A 
ATOM      7  C   UNL     1     -18.960 -42.445  24.061  1.00  0.00     0.161 A 
ATOM      8  C   UNL     1     -16.930 -42.533  25.973  1.00  0.00    -0.029 A 
ATOM      9  C   UNL     1     -17.622 -42.371  23.655  1.00  0.00     0.065 A 
ATOM     10  C   UNL     1     -16.626 -42.419  24.619  1.00  0.00     0.015 A 
ATOM     11  C   UNL     1     -15.736 -42.497  26.885  1.00  0.00     0.059 C 
ATOM     12  S   UNL     1     -14.883 -42.356  24.330  1.00  0.00    -0.114 SA
BRANCH   5  13
ATOM     13  O   UNL     1     -20.617 -42.639  25.735  1.00  0.00    -0.493 OA
ATOM     14  C   UNL     1     -21.023 -43.538  26.757  1.00  0.00     0.278 C 
ENDBRANCH   5  13
BRANCH   7  15
ATOM     15  O   UNL     1     -20.029 -42.420  23.198  1.00  0.00    -0.493 OA
ATOM     16  C   UNL     1     -19.896 -41.662  22.005  1.00  0.00     0.278 C 
ENDBRANCH   7  15
ENDBRANCH   2   4
ENDBRANCH   1   2
BRANCH   1  17
ATOM     17  C   UNL     1     -12.622 -45.918  27.298  1.00  0.00     0.044 C 
BRANCH  17  18
ATOM     18  C   UNL     1     -11.526 -45.555  28.274  1.00  0.00    -0.036 A 
ATOM     19  C   UNL     1     -11.028 -44.253  28.328  1.00  0.00     0.074 A 
ATOM     20  C   UNL     1     -10.996 -46.507  29.142  1.00  0.00     0.074 A 
ATOM     21  C   UNL     1     -10.014 -43.937  29.225  1.00  0.00     0.308 A 
ATOM     22  C   UNL     1      -9.982 -46.148  30.024  1.00  0.00     0.308 A 
ATOM     23  N   UNL     1      -9.505 -44.880  30.050  1.00  0.00    -0.201 N 
BRANCH  23  24
ATOM     24  C   UNL     1      -8.425 -44.523  31.005  1.00  0.00     0.393 C 
BRANCH  24  25
ATOM     25  C   UNL     1      -8.963 -43.728  32.170  1.00  0.00     0.017 A 
ATOM     26  C   UNL     1     -10.349 -43.571  32.357  1.00  0.00     0.013 A 
ATOM     27  C   UNL     1      -8.081 -43.146  33.097  1.00  0.00     0.013 A 
ATOM     28  C   UNL     1     -10.835 -42.831  33.437  1.00  0.00     0.040 A 
ATOM     29  C   UNL     1      -8.575 -42.408  34.175  1.00  0.00     0.040 A 
ATOM     30  C   UNL     1      -9.946 -42.255  34.335  1.00  0.00     0.123 A 
ATOM     31  F   UNL     1     -10.416 -41.546  35.367  1.00  0.00    -0.207 F 
ENDBRANCH  24  25
ENDBRANCH  23  24
ENDBRANCH  17  18
ENDBRANCH   1  17
TORSDOF 8
ENDMDL
MODEL 5
REMARK VINA RESULT:   -10.518      1.759      2.577
REMARK INTER + INTRA:         -16.215
REMARK INTER:                 -15.866
REMARK INTRA:                  -0.349
REMARK UNBOUND:                -0.778
REMARK SMILES COc1cc2c(cc1OC)S[C@H](C(=O)CCc1cc[n+](Cc3ccc(F)cc3)cc1)C2
REMARK SMILES IDX 15 1 13 2 14 3 12 4 3 5 4 6 8 7 5 8 7 9 6 10 31 11 11 12
REMARK SMILES IDX 2 13 1 14 9 15 10 16 16 17 17 18 18 19 30 20 19 21 29 22
REMARK SMILES IDX 20 23 21 24 22 25 23 26 28 27 24 28 27 29 25 30 26 31
REMARK H PARENT
ROOT
ATOM      1  C   UNL     1     -13.412 -45.172  27.428  1.00  0.00     0.081 C 
ENDROOT
BRANCH   1   2
ATOM      2  C   UNL     1     -13.483 -45.113  28.950  1.00  0.00     0.146 C 
ATOM      3  O   UNL     1     -14.237 -44.312  29.508  1.00  0.00    -0.298 OA
BRANCH   2   4
ATOM      4  C   UNL     1     -12.644 -46.128  29.732  1.00  0.00     0.123 C 
ATOM      5  C   UNL     1      -9.716 -43.467  32.486  1.00  0.00     0.161 A 
ATOM      6  C   UNL     1     -10.950 -44.132  32.452  1.00  0.00     0.055 A 
ATOM      7  C   UNL     1      -8.786 -43.643  31.432  1.00  0.00     0.161 A 
ATOM      8  C   UNL     1     -11.252 -44.947  31.365  1.00  0.00    -0.029 A 
ATOM      9  C   UNL     1      -9.103 -44.470  30.347  1.00  0.00     0.065 A 
ATOM     10  C   UNL     1     -10.334 -45.108  30.329  1.00  0.00     0.015 A 
ATOM     11  C   UNL     1     -12.504 -45.766  31.221  1.00  0.00     0.059 C 
ATOM     12  S   UNL     1     -10.942 -46.178  29.060  1.00  0.00    -0.114 SA
BRANCH   5  13
ATOM     13  O   UNL     1      -9.317 -42.634  33.503  1.00  0.00    -0.493 OA
ATOM     14  C   UNL     1     -10.325 -41.995  34.272  1.00  0.00     0.278 C 
ENDBRANCH   5  13
BRANCH   7  15
ATOM     15  O   UNL     1      -7.605 -42.952  31.554  1.00  0.00    -0.493 OA
ATOM     16  C   UNL     1      -6.657 -43.425  32.499  1.00  0.00     0.278 C 
ENDBRANCH   7  15
ENDBRANCH   2   4
ENDBRANCH   1   2
BRANCH   1  17
ATOM     17  C   UNL     1     -13.316 -43.774  26.816  1.00  0.00     0.044 C 
BRANCH  17  18
ATOM     18  C   UNL     1     -14.577 -43.389  26.078  1.00  0.00    -0.036 A 
ATOM     19  C   UNL     1     -15.681 -42.895  26.772  1.00  0.00     0.074 A 
ATOM     20  C   UNL     1     -14.663 -43.512  24.693  1.00  0.00     0.074 A 
ATOM     21  C   UNL     1     -16.838 -42.553  26.080  1.00  0.00     0.308 A 
ATOM     22  C   UNL     1     -15.839 -43.159  24.039  1.00  0.00     0.308 A 
ATOM     23  N   UNL     1     -16.903 -42.693  24.736  1.00  0.00    -0.201 N 
BRANCH  23  24
ATOM     24  C   UNL     1     -18.145 -42.319  24.013  1.00  0.00     0.393 C 
BRANCH  24  25
ATOM     25  C   UNL     1     -19.357 -42.432  24.907  1.00  0.00     0.017 A 
ATOM     26  C   UNL     1     -20.010 -43.666  25.084  1.00  0.00     0.013 A 
ATOM     27  C   UNL     1     -19.841 -41.302  25.588  1.00  0.00     0.013 A 
ATOM     28  C   UNL     1     -21.131 -43.758  25.910  1.00  0.00     0.040 A 
ATOM     29  C   UNL     1     -20.963 -41.402  26.414  1.00  0.00     0.040 A 
ATOM     30  C   UNL     1     -21.599 -42.627  26.566  1.00  0.00     0.123 A 
ATOM     31  F   UNL     1     -22.675 -42.719  27.355  1.00  0.00    -0.207 F 
ENDBRANCH  24  25
ENDBRANCH  23  24
ENDBRANCH  17  18
ENDBRANCH   1  17
TORSDOF 8
ENDMDL
MODEL 6
REMARK VINA RESULT:   -10.391      2.338      2.812
REMARK INTER + INTRA:         -16.028
REMARK INTER:                 -15.752
REMARK INTRA:                  -0.276
REMARK UNBOUND:                -0.778
REMARK SMILES COc1cc2c(cc1OC)S[C@H](C(=O)CCc1cc[n+](Cc3ccc(F)cc3)cc1)C2
REMARK SMILES IDX 15 1 13 2 14 3 12 4 3 5 4 6 8 7 5 8 7 9 6 10 31 11 11 12
REMARK SMILES IDX 2 13 1 14 9 15 10 16 16 17 17 18 18 19 30 20 19 21 29 22
REMARK SMILES IDX 20 23 21 24 22 25 23 26 28 27 24 28 27 29 25 30 26 31
REMARK H PARENT
ROOT
ATOM      1  C   UNL     1     -13.923 -44.220  26.969  1.00  0.00     0.081 C 
ENDROOT
BRANCH   1   2
ATOM      2  C   UNL     1     -12.682 -44.105  27.848  1.00  0.00     0.146 C 
ATOM      3  O   UNL     1     -11.899 -43.165  27.701  1.00  0.00    -0.298 OA
BRANCH   2   4
ATOM      4  C   UNL     1     -12.502 -45.156  28.948  1.00  0.00     0.123 C 
ATOM      5  C   UNL     1     -13.533 -42.848  33.053  1.00  0.00     0.161 A 
ATOM      6  C   UNL     1     -14.070 -43.643  32.032  1.00  0.00     0.055 A 
ATOM      7  C   UNL     1     -12.133 -42.650  33.136  1.00  0.00     0.161 A 
ATOM      8  C   UNL     1     -13.214 -44.214  31.095  1.00  0.00    -0.029 A 
ATOM      9  C   UNL     1     -11.284 -43.236  32.188  1.00  0.00     0.065 A 
ATOM     10  C   UNL     1     -11.839 -44.008  31.179  1.00  0.00     0.015 A 
ATOM     11  C   UNL     1     -13.639 -45.135  29.985  1.00  0.00     0.059 C 
ATOM     12  S   UNL     1     -10.962 -44.824  29.879  1.00  0.00    -0.114 SA
BRANCH   5  13
ATOM     13  O   UNL     1     -14.282 -42.230  34.025  1.00  0.00    -0.493 OA
ATOM     14  C   UNL     1     -15.298 -41.330  33.606  1.00  0.00     0.278 C 
ENDBRANCH   5  13
BRANCH   7  15
ATOM     15  O   UNL     1     -11.699 -41.857  34.171  1.00  0.00    -0.493 OA
ATOM     16  C   UNL     1     -10.303 -41.804  34.422  1.00  0.00     0.278 C 
ENDBRANCH   7  15
ENDBRANCH   2   4
ENDBRANCH   1   2
BRANCH   1  17
ATOM     17  C   UNL     1     -14.202 -42.917  26.219  1.00  0.00     0.044 C 
BRANCH  17  18
ATOM     18  C   UNL     1     -15.640 -42.819  25.767  1.00  0.00    -0.036 A 
ATOM     19  C   UNL     1     -15.979 -43.030  24.430  1.00  0.00     0.074 A 
ATOM     20  C   UNL     1     -16.658 -42.523  26.671  1.00  0.00     0.074 A 
ATOM     21  C   UNL     1     -17.305 -42.928  24.027  1.00  0.00     0.308 A 
ATOM     22  C   UNL     1     -17.973 -42.431  26.226  1.00  0.00     0.308 A 
ATOM     23  N   UNL     1     -18.276 -42.627  24.920  1.00  0.00    -0.201 N 
BRANCH  23  24
ATOM     24  C   UNL     1     -19.688 -42.527  24.472  1.00  0.00     0.393 C 
BRANCH  24  25
ATOM     25  C   UNL     1     -19.873 -41.399  23.485  1.00  0.00     0.017 A 
ATOM     26  C   UNL     1     -20.973 -40.528  23.583  1.00  0.00     0.013 A 
ATOM     27  C   UNL     1     -18.933 -41.196  22.460  1.00  0.00     0.013 A 
ATOM     28  C   UNL     1     -21.136 -39.491  22.662  1.00  0.00     0.040 A 
ATOM     29  C   UNL     1     -19.101 -40.156  21.544  1.00  0.00     0.040 A 
ATOM     30  C   UNL     1     -20.201 -39.315  21.651  1.00  0.00     0.123 A 
ATOM     31  F   UNL     1     -20.361 -38.321  20.770  1.00  0.00    -0.207 F 
ENDBRANCH  24  25
ENDBRANCH  23  24
ENDBRANCH  17  18
ENDBRANCH   1  17
TORSDOF 8
ENDMDL
MODEL 7
REMARK VINA RESULT:   -10.129      3.084      4.128
REMARK INTER + INTRA:         -15.643
REMARK INTER:                 -14.840
REMARK INTRA:                  -0.804
REMARK UNBOUND:                -0.778
REMARK SMILES COc1cc2c(cc1OC)S[C@H](C(=O)CCc1cc[n+](Cc3ccc(F)cc3)cc1)C2
REMARK SMILES IDX 15 1 13 2 14 3 12 4 3 5 4 6 8 7 5 8 7 9 6 10 31 11 11 12
REMARK SMILES IDX 2 13 1 14 9 15 10 16 16 17 17 18 18 19 30 20 19 21 29 22
REMARK SMILES IDX 20 23 21 24 22 25 23 26 28 27 24 28 27 29 25 30 26 31
REMARK H PARENT
ROOT
ATOM      1  C   UNL     1     -14.549 -43.737  26.165  1.00  0.00     0.081 C 
ENDROOT
BRANCH   1   2
ATOM      2  C   UNL     1     -13.436 -43.952  27.186  1.00  0.00     0.146 C 
ATOM      3  O   UNL     1     -12.503 -43.151  27.269  1.00  0.00    -0.298 OA
BRANCH   2   4
ATOM      4  C   UNL     1     -13.573 -45.150  28.132  1.00  0.00     0.123 C 
ATOM      5  C   UNL     1     -10.671 -44.139  31.847  1.00  0.00     0.161 A 
ATOM      6  C   UNL     1     -11.987 -44.040  31.373  1.00  0.00     0.055 A 
ATOM      7  C   UNL     1      -9.721 -44.919  31.141  1.00  0.00     0.161 A 
ATOM      8  C   UNL     1     -12.337 -44.698  30.198  1.00  0.00    -0.029 A 
ATOM      9  C   UNL     1     -10.090 -45.579  29.963  1.00  0.00     0.065 A 
ATOM     10  C   UNL     1     -11.394 -45.456  29.507  1.00  0.00     0.015 A 
ATOM     11  C   UNL     1     -13.718 -44.731  29.605  1.00  0.00     0.059 C 
ATOM     12  S   UNL     1     -12.068 -46.187  28.045  1.00  0.00    -0.114 SA
BRANCH   5  13
ATOM     13  O   UNL     1     -10.214 -43.528  32.988  1.00  0.00    -0.493 OA
ATOM     14  C   UNL     1     -11.043 -42.546  33.593  1.00  0.00     0.278 C 
ENDBRANCH   5  13
BRANCH   7  15
ATOM     15  O   UNL     1      -8.458 -44.957  31.682  1.00  0.00    -0.493 OA
ATOM     16  C   UNL     1      -7.423 -44.275  30.991  1.00  0.00     0.278 C 
ENDBRANCH   7  15
ENDBRANCH   2   4
ENDBRANCH   1   2
BRANCH   1  17
ATOM     17  C   UNL     1     -15.494 -42.615  26.595  1.00  0.00     0.044 C 
BRANCH  17  18
ATOM     18  C   UNL     1     -16.762 -42.596  25.773  1.00  0.00    -0.036 A 
ATOM     19  C   UNL     1     -17.999 -42.390  26.384  1.00  0.00     0.074 A 
ATOM     20  C   UNL     1     -16.724 -42.775  24.392  1.00  0.00     0.074 A 
ATOM     21  C   UNL     1     -19.158 -42.383  25.615  1.00  0.00     0.308 A 
ATOM     22  C   UNL     1     -17.908 -42.761  23.660  1.00  0.00     0.308 A 
ATOM     23  N   UNL     1     -19.099 -42.572  24.278  1.00  0.00    -0.201 N 
BRANCH  23  24
ATOM     24  C   UNL     1     -20.346 -42.558  23.472  1.00  0.00     0.393 C 
BRANCH  24  25
ATOM     25  C   UNL     1     -20.353 -41.409  22.492  1.00  0.00     0.017 A 
ATOM     26  C   UNL     1     -20.310 -41.644  21.105  1.00  0.00     0.013 A 
ATOM     27  C   UNL     1     -20.419 -40.083  22.956  1.00  0.00     0.013 A 
ATOM     28  C   UNL     1     -20.313 -40.574  20.208  1.00  0.00     0.040 A 
ATOM     29  C   UNL     1     -20.423 -39.018  22.053  1.00  0.00     0.040 A 
ATOM     30  C   UNL     1     -20.368 -39.272  20.689  1.00  0.00     0.123 A 
ATOM     31  F   UNL     1     -20.370 -38.249  19.826  1.00  0.00    -0.207 F 
ENDBRANCH  24  25
ENDBRANCH  23  24
ENDBRANCH  17  18
ENDBRANCH   1  17
TORSDOF 8
ENDMDL
MODEL 8
REMARK VINA RESULT:    -9.984      5.718     10.627
REMARK INTER + INTRA:         -15.430
REMARK INTER:                 -14.317
REMARK INTRA:                  -1.113
REMARK UNBOUND:                -0.778
REMARK SMILES COc1cc2c(cc1OC)S[C@H](C(=O)CCc1cc[n+](Cc3ccc(F)cc3)cc1)C2
REMARK SMILES IDX 15 1 13 2 14 3 12 4 3 5 4 6 8 7 5 8 7 9 6 10 31 11 11 12
REMARK SMILES IDX 2 13 1 14 9 15 10 16 16 17 17 18 18 19 30 20 19 21 29 22
REMARK SMILES IDX 20 23 21 24 22 25 23 26 28 27 24 28 27 29 25 30 26 31
REMARK H PARENT
ROOT
ATOM      1  C   UNL     1     -20.446 -41.292  26.556  1.00  0.00     0.081 C 
ENDROOT
BRANCH   1   2
ATOM      2  C   UNL     1     -21.907 -41.725  26.501  1.00  0.00     0.146 C 
ATOM      3  O   UNL     1     -22.647 -41.547  27.471  1.00  0.00    -0.298 OA
BRANCH   2   4
ATOM      4  C   UNL     1     -22.416 -42.312  25.181  1.00  0.00     0.123 C 
ATOM      5  C   UNL     1     -19.449 -40.555  21.812  1.00  0.00     0.161 A 
ATOM      6  C   UNL     1     -19.676 -41.637  22.673  1.00  0.00     0.055 A 
ATOM      7  C   UNL     1     -20.443 -39.558  21.649  1.00  0.00     0.161 A 
ATOM      8  C   UNL     1     -20.875 -41.707  23.375  1.00  0.00    -0.029 A 
ATOM      9  C   UNL     1     -21.647 -39.645  22.359  1.00  0.00     0.065 A 
ATOM     10  C   UNL     1     -21.843 -40.719  23.215  1.00  0.00     0.015 A 
ATOM     11  C   UNL     1     -21.279 -42.834  24.284  1.00  0.00     0.059 C 
ATOM     12  S   UNL     1     -23.272 -41.017  24.212  1.00  0.00    -0.114 SA
BRANCH   5  13
ATOM     13  O   UNL     1     -18.302 -40.380  21.077  1.00  0.00    -0.493 OA
ATOM     14  C   UNL     1     -17.058 -40.496  21.751  1.00  0.00     0.278 C 
ENDBRANCH   5  13
BRANCH   7  15
ATOM     15  O   UNL     1     -20.132 -38.537  20.784  1.00  0.00    -0.493 OA
ATOM     16  C   UNL     1     -20.873 -38.446  19.576  1.00  0.00     0.278 C 
ENDBRANCH   7  15
ENDBRANCH   2   4
ENDBRANCH   1   2
BRANCH   1  17
ATOM     17  C   UNL     1     -19.633 -42.179  27.501  1.00  0.00     0.044 C 
BRANCH  17  18
ATOM     18  C   UNL     1     -18.215 -42.374  27.017  1.00  0.00    -0.036 A 
ATOM     19  C   UNL     1     -17.169 -42.514  27.929  1.00  0.00     0.074 A 
ATOM     20  C   UNL     1     -17.923 -42.425  25.656  1.00  0.00     0.074 A 
ATOM     21  C   UNL     1     -15.868 -42.684  27.468  1.00  0.00     0.308 A 
ATOM     22  C   UNL     1     -16.607 -42.597  25.238  1.00  0.00     0.308 A 
ATOM     23  N   UNL     1     -15.605 -42.718  26.142  1.00  0.00    -0.201 N 
BRANCH  23  24
ATOM     24  C   UNL     1     -14.210 -42.905  25.668  1.00  0.00     0.393 C 
BRANCH  24  25
ATOM     25  C   UNL     1     -13.446 -43.845  26.569  1.00  0.00     0.017 A 
ATOM     26  C   UNL     1     -13.722 -45.224  26.573  1.00  0.00     0.013 A 
ATOM     27  C   UNL     1     -12.432 -43.352  27.409  1.00  0.00     0.013 A 
ATOM     28  C   UNL     1     -13.011 -46.084  27.413  1.00  0.00     0.040 A 
ATOM     29  C   UNL     1     -11.724 -44.217  28.245  1.00  0.00     0.040 A 
ATOM     30  C   UNL     1     -12.020 -45.573  28.242  1.00  0.00     0.123 A 
ATOM     31  F   UNL     1     -11.342 -46.400  29.046  1.00  0.00    -0.207 F 
ENDBRANCH  24  25
ENDBRANCH  23  24
ENDBRANCH  17  18
ENDBRANCH   1  17
TORSDOF 8
ENDMDL
MODEL 9
REMARK VINA RESULT:    -9.756      3.624      5.228
REMARK INTER + INTRA:         -15.096
REMARK INTER:                 -14.197
REMARK INTRA:                  -0.899
REMARK UNBOUND:                -0.778
REMARK SMILES COc1cc2c(cc1OC)S[C@H](C(=O)CCc1cc[n+](Cc3ccc(F)cc3)cc1)C2
REMARK SMILES IDX 15 1 13 2 14 3 12 4 3 5 4 6 8 7 5 8 7 9 6 10 31 11 11 12
REMARK SMILES IDX 2 13 1 14 9 15 10 16 16 17 17 18 18 19 30 20 19 21 29 22
REMARK SMILES IDX 20 23 21 24 22 25 23 26 28 27 24 28 27 29 25 30 26 31
REMARK H PARENT
ROOT
ATOM      1  C   UNL     1     -16.238 -42.427  27.346  1.00  0.00     0.081 C 
ENDROOT
BRANCH   1   2
ATOM      2  C   UNL     1     -15.414 -43.518  28.020  1.00  0.00     0.146 C 
ATOM      3  O   UNL     1     -15.567 -43.765  29.218  1.00  0.00    -0.298 OA
BRANCH   2   4
ATOM      4  C   UNL     1     -14.461 -44.326  27.133  1.00  0.00     0.123 C 
ATOM      5  C   UNL     1     -10.140 -43.884  29.223  1.00  0.00     0.161 A 
ATOM      6  C   UNL     1     -11.289 -44.682  29.150  1.00  0.00     0.055 A 
ATOM      7  C   UNL     1      -9.954 -42.823  28.303  1.00  0.00     0.161 A 
ATOM      8  C   UNL     1     -12.248 -44.405  28.179  1.00  0.00    -0.029 A 
ATOM      9  C   UNL     1     -10.925 -42.559  27.329  1.00  0.00     0.065 A 
ATOM     10  C   UNL     1     -12.060 -43.355  27.284  1.00  0.00     0.015 A 
ATOM     11  C   UNL     1     -13.496 -45.209  27.944  1.00  0.00     0.059 C 
ATOM     12  S   UNL     1     -13.410 -43.192  26.154  1.00  0.00    -0.114 SA
BRANCH   5  13
ATOM     13  O   UNL     1      -9.135 -44.061  30.142  1.00  0.00    -0.493 OA
ATOM     14  C   UNL     1      -9.391 -43.679  31.486  1.00  0.00     0.278 C 
ENDBRANCH   5  13
BRANCH   7  15
ATOM     15  O   UNL     1      -8.796 -42.097  28.452  1.00  0.00    -0.493 OA
ATOM     16  C   UNL     1      -8.066 -41.771  27.278  1.00  0.00     0.278 C 
ENDBRANCH   7  15
ENDBRANCH   2   4
ENDBRANCH   1   2
BRANCH   1  17
ATOM     17  C   UNL     1     -17.662 -42.375  27.902  1.00  0.00     0.044 C 
BRANCH  17  18
ATOM     18  C   UNL     1     -18.695 -42.254  26.806  1.00  0.00    -0.036 A 
ATOM     19  C   UNL     1     -18.422 -42.719  25.520  1.00  0.00     0.074 A 
ATOM     20  C   UNL     1     -19.942 -41.684  27.056  1.00  0.00     0.074 A 
ATOM     21  C   UNL     1     -19.379 -42.593  24.520  1.00  0.00     0.308 A 
ATOM     22  C   UNL     1     -20.872 -41.577  26.026  1.00  0.00     0.308 A 
ATOM     23  N   UNL     1     -20.578 -42.024  24.781  1.00  0.00    -0.201 N 
BRANCH  23  24
ATOM     24  C   UNL     1     -21.591 -41.902  23.702  1.00  0.00     0.393 C 
BRANCH  24  25
ATOM     25  C   UNL     1     -21.083 -41.047  22.567  1.00  0.00     0.017 A 
ATOM     26  C   UNL     1     -20.715 -39.705  22.782  1.00  0.00     0.013 A 
ATOM     27  C   UNL     1     -20.955 -41.588  21.275  1.00  0.00     0.013 A 
ATOM     28  C   UNL     1     -20.250 -38.923  21.724  1.00  0.00     0.040 A 
ATOM     29  C   UNL     1     -20.488 -40.799  20.222  1.00  0.00     0.040 A 
ATOM     30  C   UNL     1     -20.142 -39.475  20.454  1.00  0.00     0.123 A 
ATOM     31  F   UNL     1     -19.697 -38.721  19.442  1.00  0.00    -0.207 F 
ENDBRANCH  24  25
ENDBRANCH  23  24
ENDBRANCH  17  18
ENDBRANCH   1  17
TORSDOF 8
ENDMDL
