MODEL 1
REMARK VINA RESULT:   -12.869      0.000      0.000
REMARK INTER + INTRA:         -18.921
REMARK INTER:                 -18.136
REMARK INTRA:                  -0.786
REMARK UNBOUND:                -0.786
REMARK SMILES O=C1CCc2cc(C(O)=CC[C@H]3CC[N@H+](Cc4ccc(O)cc4)CC3)cc3ccn1c23
REMARK SMILES IDX 12 1 13 2 14 3 15 4 24 5 25 6 11 8 10 9 8 10 9 11 7 13 6 14
REMARK SMILES IDX 26 15 5 16 27 17 31 18 4 19 28 20 30 21 3 22 29 23 2 24 1 25
REMARK SMILES IDX 16 26 17 27 18 28 23 29 19 30 22 31 20 32 21 33
REMARK H PARENT 15 7 9 12 21 34
ROOT
ATOM      1  C   UNL     1     -13.201 -45.882  27.712  1.00  0.00     0.004 C 
ATOM      2  C   UNL     1     -13.648 -45.029  28.907  1.00  0.00     0.065 C 
ATOM      3  C   UNL     1     -13.095 -45.563  30.222  1.00  0.00     0.262 C 
ATOM      4  N   UNL     1     -11.588 -45.643  30.140  1.00  0.00    -0.331 N 
ATOM      5  C   UNL     1     -11.130 -46.533  29.012  1.00  0.00     0.262 C 
ATOM      6  C   UNL     1     -11.670 -46.003  27.691  1.00  0.00     0.065 C 
ATOM      7  H   UNL     1     -11.249 -44.693  29.944  1.00  0.00     0.348 HD
ENDROOT
BRANCH   1   8
ATOM      8  C   UNL     1     -13.765 -45.376  26.370  1.00  0.00     0.035 C 
BRANCH   8   9
ATOM      9  C   UNL     1     -14.146 -43.921  26.359  1.00  0.00     0.020 C 
BRANCH   9  10
ATOM     10  C   UNL     1     -14.628 -43.205  25.333  1.00  0.00     0.118 C 
BRANCH  10  11
ATOM     11  O   UNL     1     -13.781 -42.849  24.305  1.00  0.00    -0.508 OA
ATOM     12  H   UNL     1     -13.061 -42.310  24.681  1.00  0.00     0.293 HD
ENDBRANCH  10  11
BRANCH  10  13
ATOM     13  C   UNL     1     -16.028 -42.785  25.177  1.00  0.00     0.017 A 
ATOM     14  C   UNL     1     -16.869 -42.688  26.297  1.00  0.00     0.017 A 
ATOM     15  C   UNL     1     -16.508 -42.482  23.885  1.00  0.00     0.022 A 
ATOM     16  C   UNL     1     -18.198 -42.284  26.160  1.00  0.00    -0.022 A 
ATOM     17  C   UNL     1     -17.853 -42.100  23.729  1.00  0.00     0.001 A 
ATOM     18  C   UNL     1     -18.630 -42.000  24.867  1.00  0.00     0.059 A 
ATOM     19  C   UNL     1     -19.214 -42.227  27.258  1.00  0.00     0.047 C 
ATOM     20  C   UNL     1     -18.703 -41.774  22.637  1.00  0.00     0.029 A 
ATOM     21  N   UNL     1     -19.898 -41.595  24.520  1.00  0.00    -0.287 N 
ATOM     22  C   UNL     1     -20.363 -41.265  26.902  1.00  0.00     0.106 C 
ATOM     23  C   UNL     1     -19.960 -41.504  23.146  1.00  0.00     0.095 A 
ATOM     24  C   UNL     1     -20.893 -41.345  25.474  1.00  0.00     0.231 C 
ATOM     25  O   UNL     1     -22.036 -41.106  25.114  1.00  0.00    -0.274 OA
ENDBRANCH  10  13
ENDBRANCH   9  10
ENDBRANCH   8   9
ENDBRANCH   1   8
BRANCH   4  26
ATOM     26  C   UNL     1     -10.951 -46.053  31.452  1.00  0.00     0.299 C 
BRANCH  26  27
ATOM     27  C   UNL     1      -9.740 -45.232  31.803  1.00  0.00     0.006 A 
ATOM     28  C   UNL     1      -9.880 -43.985  32.438  1.00  0.00     0.013 A 
ATOM     29  C   UNL     1      -8.450 -45.709  31.521  1.00  0.00     0.013 A 
ATOM     30  C   UNL     1      -8.753 -43.235  32.788  1.00  0.00     0.046 A 
ATOM     31  C   UNL     1      -7.328 -44.959  31.875  1.00  0.00     0.046 A 
ATOM     32  C   UNL     1      -7.487 -43.732  32.506  1.00  0.00     0.115 A 
BRANCH  32  33
ATOM     33  O   UNL     1      -6.358 -43.042  32.829  1.00  0.00    -0.508 OA
ATOM     34  H   UNL     1      -6.224 -42.318  32.195  1.00  0.00     0.293 HD
ENDBRANCH  32  33
ENDBRANCH  26  27
ENDBRANCH   4  26
TORSDOF 8
ENDMDL
MODEL 2
REMARK VINA RESULT:   -12.768      0.369      1.800
REMARK INTER + INTRA:         -18.779
REMARK INTER:                 -17.977
REMARK INTRA:                  -0.802
REMARK UNBOUND:                -0.786
REMARK SMILES O=C1CCc2cc(C(O)=CC[C@H]3CC[N@H+](Cc4ccc(O)cc4)CC3)cc3ccn1c23
REMARK SMILES IDX 12 1 13 2 14 3 15 4 24 5 25 6 11 8 10 9 8 10 9 11 7 13 6 14
REMARK SMILES IDX 26 15 5 16 27 17 31 18 4 19 28 20 30 21 3 22 29 23 2 24 1 25
REMARK SMILES IDX 16 26 17 27 18 28 23 29 19 30 22 31 20 32 21 33
REMARK H PARENT 15 7 9 12 21 34
ROOT
ATOM      1  C   UNL     1     -13.045 -45.975  27.707  1.00  0.00     0.004 C 
ATOM      2  C   UNL     1     -13.555 -45.181  28.917  1.00  0.00     0.065 C 
ATOM      3  C   UNL     1     -12.985 -45.716  30.225  1.00  0.00     0.262 C 
ATOM      4  N   UNL     1     -11.475 -45.705  30.159  1.00  0.00    -0.331 N 
ATOM      5  C   UNL     1     -10.953 -46.536  29.014  1.00  0.00     0.262 C 
ATOM      6  C   UNL     1     -11.510 -46.004  27.701  1.00  0.00     0.065 C 
ATOM      7  H   UNL     1     -11.191 -44.731  29.992  1.00  0.00     0.348 HD
ENDROOT
BRANCH   1   8
ATOM      8  C   UNL     1     -13.624 -45.469  26.371  1.00  0.00     0.035 C 
BRANCH   8   9
ATOM      9  C   UNL     1     -13.952 -44.001  26.346  1.00  0.00     0.020 C 
BRANCH   9  10
ATOM     10  C   UNL     1     -14.500 -43.297  25.345  1.00  0.00     0.118 C 
BRANCH  10  11
ATOM     11  O   UNL     1     -13.727 -42.978  24.248  1.00  0.00    -0.508 OA
ATOM     12  H   UNL     1     -12.898 -42.578  24.569  1.00  0.00     0.293 HD
ENDBRANCH  10  11
BRANCH  10  13
ATOM     13  C   UNL     1     -15.899 -42.856  25.287  1.00  0.00     0.017 A 
ATOM     14  C   UNL     1     -16.485 -42.513  24.057  1.00  0.00     0.017 A 
ATOM     15  C   UNL     1     -16.642 -42.784  26.485  1.00  0.00     0.022 A 
ATOM     16  C   UNL     1     -17.817 -42.098  23.991  1.00  0.00    -0.022 A 
ATOM     17  C   UNL     1     -17.976 -42.343  26.435  1.00  0.00     0.001 A 
ATOM     18  C   UNL     1     -18.508 -42.038  25.197  1.00  0.00     0.059 A 
ATOM     19  C   UNL     1     -18.526 -41.623  22.760  1.00  0.00     0.047 C 
ATOM     20  C   UNL     1     -19.006 -42.092  27.383  1.00  0.00     0.029 A 
ATOM     21  N   UNL     1     -19.820 -41.650  25.347  1.00  0.00    -0.287 N 
ATOM     22  C   UNL     1     -20.052 -41.762  22.911  1.00  0.00     0.106 C 
ATOM     23  C   UNL     1     -20.113 -41.634  26.694  1.00  0.00     0.095 A 
ATOM     24  C   UNL     1     -20.640 -41.340  24.254  1.00  0.00     0.231 C 
ATOM     25  O   UNL     1     -21.758 -40.884  24.441  1.00  0.00    -0.274 OA
ENDBRANCH  10  13
ENDBRANCH   9  10
ENDBRANCH   8   9
ENDBRANCH   1   8
BRANCH   4  26
ATOM     26  C   UNL     1     -10.829 -46.109  31.468  1.00  0.00     0.299 C 
BRANCH  26  27
ATOM     27  C   UNL     1      -9.643 -45.257  31.831  1.00  0.00     0.006 A 
ATOM     28  C   UNL     1      -9.824 -43.984  32.400  1.00  0.00     0.013 A 
ATOM     29  C   UNL     1      -8.337 -45.729  31.626  1.00  0.00     0.013 A 
ATOM     30  C   UNL     1      -8.722 -43.204  32.761  1.00  0.00     0.046 A 
ATOM     31  C   UNL     1      -7.240 -44.950  31.991  1.00  0.00     0.046 A 
ATOM     32  C   UNL     1      -7.439 -43.696  32.556  1.00  0.00     0.115 A 
BRANCH  32  33
ATOM     33  O   UNL     1      -6.333 -42.977  32.894  1.00  0.00    -0.508 OA
ATOM     34  H   UNL     1      -6.361 -42.758  33.840  1.00  0.00     0.293 HD
ENDBRANCH  32  33
ENDBRANCH  26  27
ENDBRANCH   4  26
TORSDOF 8
ENDMDL
MODEL 3
REMARK VINA RESULT:   -12.271      2.105     10.897
REMARK INTER + INTRA:         -18.079
REMARK INTER:                 -17.840
REMARK INTRA:                  -0.239
REMARK UNBOUND:                -0.786
REMARK SMILES O=C1CCc2cc(C(O)=CC[C@H]3CC[N@H+](Cc4ccc(O)cc4)CC3)cc3ccn1c23
REMARK SMILES IDX 12 1 13 2 14 3 15 4 24 5 25 6 11 8 10 9 8 10 9 11 7 13 6 14
REMARK SMILES IDX 26 15 5 16 27 17 31 18 4 19 28 20 30 21 3 22 29 23 2 24 1 25
REMARK SMILES IDX 16 26 17 27 18 28 23 29 19 30 22 31 20 32 21 33
REMARK H PARENT 15 7 9 12 21 34
ROOT
ATOM      1  C   UNL     1     -13.457 -44.429  27.096  1.00  0.00     0.004 C 
ATOM      2  C   UNL     1     -14.639 -43.773  27.824  1.00  0.00     0.065 C 
ATOM      3  C   UNL     1     -15.388 -42.800  26.923  1.00  0.00     0.262 C 
ATOM      4  N   UNL     1     -15.844 -43.519  25.674  1.00  0.00    -0.331 N 
ATOM      5  C   UNL     1     -14.688 -44.112  24.909  1.00  0.00     0.262 C 
ATOM      6  C   UNL     1     -13.937 -45.094  25.798  1.00  0.00     0.065 C 
ATOM      7  H   UNL     1     -16.447 -44.293  25.979  1.00  0.00     0.348 HD
ENDROOT
BRANCH   1   8
ATOM      8  C   UNL     1     -12.667 -45.403  27.993  1.00  0.00     0.035 C 
BRANCH   8   9
ATOM      9  C   UNL     1     -13.461 -45.998  29.124  1.00  0.00     0.020 C 
BRANCH   9  10
ATOM     10  C   UNL     1     -13.098 -46.119  30.409  1.00  0.00     0.118 C 
BRANCH  10  11
ATOM     11  O   UNL     1     -13.863 -46.897  31.252  1.00  0.00    -0.508 OA
ATOM     12  H   UNL     1     -14.468 -47.431  30.704  1.00  0.00     0.293 HD
ENDBRANCH  10  11
BRANCH  10  13
ATOM     13  C   UNL     1     -11.903 -45.514  31.012  1.00  0.00     0.017 A 
ATOM     14  C   UNL     1     -10.646 -46.123  30.862  1.00  0.00     0.017 A 
ATOM     15  C   UNL     1     -12.041 -44.314  31.742  1.00  0.00     0.022 A 
ATOM     16  C   UNL     1      -9.504 -45.552  31.427  1.00  0.00    -0.022 A 
ATOM     17  C   UNL     1     -10.902 -43.743  32.338  1.00  0.00     0.001 A 
ATOM     18  C   UNL     1      -9.688 -44.372  32.141  1.00  0.00     0.059 A 
ATOM     19  C   UNL     1      -8.130 -46.148  31.413  1.00  0.00     0.047 C 
ATOM     20  C   UNL     1     -10.636 -42.615  33.162  1.00  0.00     0.029 A 
ATOM     21  N   UNL     1      -8.696 -43.660  32.776  1.00  0.00    -0.287 N 
ATOM     22  C   UNL     1      -7.054 -45.066  31.623  1.00  0.00     0.106 C 
ATOM     23  C   UNL     1      -9.283 -42.608  33.446  1.00  0.00     0.095 A 
ATOM     24  C   UNL     1      -7.345 -44.023  32.698  1.00  0.00     0.231 C 
ATOM     25  O   UNL     1      -6.516 -43.435  33.376  1.00  0.00    -0.274 OA
ENDBRANCH  10  13
ENDBRANCH   9  10
ENDBRANCH   8   9
ENDBRANCH   1   8
BRANCH   4  26
ATOM     26  C   UNL     1     -16.703 -42.649  24.778  1.00  0.00     0.299 C 
BRANCH  26  27
ATOM     27  C   UNL     1     -18.008 -42.254  25.414  1.00  0.00     0.006 A 
ATOM     28  C   UNL     1     -18.190 -42.363  26.804  1.00  0.00     0.013 A 
ATOM     29  C   UNL     1     -19.058 -41.749  24.630  1.00  0.00     0.013 A 
ATOM     30  C   UNL     1     -19.393 -41.970  27.397  1.00  0.00     0.046 A 
ATOM     31  C   UNL     1     -20.256 -41.355  25.226  1.00  0.00     0.046 A 
ATOM     32  C   UNL     1     -20.415 -41.466  26.601  1.00  0.00     0.115 A 
BRANCH  32  33
ATOM     33  O   UNL     1     -21.604 -41.067  27.130  1.00  0.00    -0.508 OA
ATOM     34  H   UNL     1     -21.890 -41.701  27.809  1.00  0.00     0.293 HD
ENDBRANCH  32  33
ENDBRANCH  26  27
ENDBRANCH   4  26
TORSDOF 8
ENDMDL
MODEL 4
REMARK VINA RESULT:   -12.018      2.204     11.220
REMARK INTER + INTRA:         -17.722
REMARK INTER:                 -16.901
REMARK INTRA:                  -0.821
REMARK UNBOUND:                -0.786
REMARK SMILES O=C1CCc2cc(C(O)=CC[C@H]3CC[N@H+](Cc4ccc(O)cc4)CC3)cc3ccn1c23
REMARK SMILES IDX 12 1 13 2 14 3 15 4 24 5 25 6 11 8 10 9 8 10 9 11 7 13 6 14
REMARK SMILES IDX 26 15 5 16 27 17 31 18 4 19 28 20 30 21 3 22 29 23 2 24 1 25
REMARK SMILES IDX 16 26 17 27 18 28 23 29 19 30 22 31 20 32 21 33
REMARK H PARENT 15 7 9 12 21 34
ROOT
ATOM      1  C   UNL     1     -13.791 -44.514  27.010  1.00  0.00     0.004 C 
ATOM      2  C   UNL     1     -14.936 -43.632  27.526  1.00  0.00     0.065 C 
ATOM      3  C   UNL     1     -15.311 -42.548  26.523  1.00  0.00     0.262 C 
ATOM      4  N   UNL     1     -15.664 -43.186  25.199  1.00  0.00    -0.331 N 
ATOM      5  C   UNL     1     -14.525 -44.003  24.644  1.00  0.00     0.262 C 
ATOM      6  C   UNL     1     -14.149 -45.095  25.635  1.00  0.00     0.065 C 
ATOM      7  H   UNL     1     -16.449 -43.826  25.377  1.00  0.00     0.348 HD
ENDROOT
BRANCH   1   8
ATOM      8  C   UNL     1     -13.376 -45.606  28.016  1.00  0.00     0.035 C 
BRANCH   8   9
ATOM      9  C   UNL     1     -13.798 -45.343  29.435  1.00  0.00     0.020 C 
BRANCH   9  10
ATOM     10  C   UNL     1     -13.220 -45.788  30.561  1.00  0.00     0.118 C 
BRANCH  10  11
ATOM     11  O   UNL     1     -13.871 -46.736  31.321  1.00  0.00    -0.508 OA
ATOM     12  H   UNL     1     -14.557 -46.283  31.845  1.00  0.00     0.293 HD
ENDBRANCH  10  11
BRANCH  10  13
ATOM     13  C   UNL     1     -11.899 -45.376  31.054  1.00  0.00     0.017 A 
ATOM     14  C   UNL     1     -11.756 -44.198  31.805  1.00  0.00     0.017 A 
ATOM     15  C   UNL     1     -10.779 -46.184  30.761  1.00  0.00     0.022 A 
ATOM     16  C   UNL     1     -10.506 -43.801  32.284  1.00  0.00    -0.022 A 
ATOM     17  C   UNL     1      -9.510 -45.782  31.214  1.00  0.00     0.001 A 
ATOM     18  C   UNL     1      -9.431 -44.626  31.966  1.00  0.00     0.059 A 
ATOM     19  C   UNL     1     -10.212 -42.528  33.015  1.00  0.00     0.047 C 
ATOM     20  C   UNL     1      -8.180 -46.269  31.092  1.00  0.00     0.029 A 
ATOM     21  N   UNL     1      -8.123 -44.410  32.335  1.00  0.00    -0.287 N 
ATOM     22  C   UNL     1      -8.918 -42.651  33.842  1.00  0.00     0.106 C 
ATOM     23  C   UNL     1      -7.345 -45.391  31.757  1.00  0.00     0.095 A 
ATOM     24  C   UNL     1      -7.743 -43.343  33.160  1.00  0.00     0.231 C 
ATOM     25  O   UNL     1      -6.558 -43.120  33.360  1.00  0.00    -0.274 OA
ENDBRANCH  10  13
ENDBRANCH   9  10
ENDBRANCH   8   9
ENDBRANCH   1   8
BRANCH   4  26
ATOM     26  C   UNL     1     -16.165 -42.182  24.181  1.00  0.00     0.299 C 
BRANCH  26  27
ATOM     27  C   UNL     1     -17.648 -42.274  23.941  1.00  0.00     0.006 A 
ATOM     28  C   UNL     1     -18.209 -41.809  22.738  1.00  0.00     0.013 A 
ATOM     29  C   UNL     1     -18.492 -42.845  24.906  1.00  0.00     0.013 A 
ATOM     30  C   UNL     1     -19.582 -41.918  22.505  1.00  0.00     0.046 A 
ATOM     31  C   UNL     1     -19.862 -42.957  24.669  1.00  0.00     0.046 A 
ATOM     32  C   UNL     1     -20.396 -42.495  23.472  1.00  0.00     0.115 A 
BRANCH  32  33
ATOM     33  O   UNL     1     -21.739 -42.628  23.292  1.00  0.00    -0.508 OA
ATOM     34  H   UNL     1     -21.997 -42.229  22.445  1.00  0.00     0.293 HD
ENDBRANCH  32  33
ENDBRANCH  26  27
ENDBRANCH   4  26
TORSDOF 8
ENDMDL
MODEL 5
REMARK VINA RESULT:   -11.123      1.726      2.744
REMARK INTER + INTRA:         -16.460
REMARK INTER:                 -15.911
REMARK INTRA:                  -0.549
REMARK UNBOUND:                -0.786
REMARK SMILES O=C1CCc2cc(C(O)=CC[C@H]3CC[N@H+](Cc4ccc(O)cc4)CC3)cc3ccn1c23
REMARK SMILES IDX 12 1 13 2 14 3 15 4 24 5 25 6 11 8 10 9 8 10 9 11 7 13 6 14
REMARK SMILES IDX 26 15 5 16 27 17 31 18 4 19 28 20 30 21 3 22 29 23 2 24 1 25
REMARK SMILES IDX 16 26 17 27 18 28 23 29 19 30 22 31 20 32 21 33
REMARK H PARENT 15 7 9 12 21 34
ROOT
ATOM      1  C   UNL     1     -13.344 -44.579  27.161  1.00  0.00     0.004 C 
ATOM      2  C   UNL     1     -13.827 -45.085  28.527  1.00  0.00     0.065 C 
ATOM      3  C   UNL     1     -12.663 -45.439  29.443  1.00  0.00     0.262 C 
ATOM      4  N   UNL     1     -11.756 -44.239  29.593  1.00  0.00    -0.331 N 
ATOM      5  C   UNL     1     -11.217 -43.770  28.265  1.00  0.00     0.262 C 
ATOM      6  C   UNL     1     -12.372 -43.404  27.345  1.00  0.00     0.065 C 
ATOM      7  H   UNL     1     -12.327 -43.480  29.983  1.00  0.00     0.348 HD
ENDROOT
BRANCH   1   8
ATOM      8  C   UNL     1     -14.503 -44.234  26.205  1.00  0.00     0.035 C 
BRANCH   8   9
ATOM      9  C   UNL     1     -14.181 -43.176  25.186  1.00  0.00     0.020 C 
BRANCH   9  10
ATOM     10  C   UNL     1     -15.038 -42.386  24.522  1.00  0.00     0.118 C 
BRANCH  10  11
ATOM     11  O   UNL     1     -14.552 -41.540  23.547  1.00  0.00    -0.508 OA
ATOM     12  H   UNL     1     -15.188 -40.808  23.439  1.00  0.00     0.293 HD
ENDBRANCH  10  11
BRANCH  10  13
ATOM     13  C   UNL     1     -16.494 -42.366  24.712  1.00  0.00     0.017 A 
ATOM     14  C   UNL     1     -17.355 -42.313  23.604  1.00  0.00     0.017 A 
ATOM     15  C   UNL     1     -17.010 -42.403  26.026  1.00  0.00     0.022 A 
ATOM     16  C   UNL     1     -18.740 -42.300  23.774  1.00  0.00    -0.022 A 
ATOM     17  C   UNL     1     -18.404 -42.364  26.212  1.00  0.00     0.001 A 
ATOM     18  C   UNL     1     -19.204 -42.333  25.086  1.00  0.00     0.059 A 
ATOM     19  C   UNL     1     -19.756 -42.156  22.683  1.00  0.00     0.047 C 
ATOM     20  C   UNL     1     -19.285 -42.333  27.328  1.00  0.00     0.029 A 
ATOM     21  N   UNL     1     -20.526 -42.321  25.467  1.00  0.00    -0.287 N 
ATOM     22  C   UNL     1     -21.124 -42.709  23.123  1.00  0.00     0.106 C 
ATOM     23  C   UNL     1     -20.578 -42.270  26.843  1.00  0.00     0.095 A 
ATOM     24  C   UNL     1     -21.574 -42.354  24.537  1.00  0.00     0.231 C 
ATOM     25  O   UNL     1     -22.728 -42.218  24.915  1.00  0.00    -0.274 OA
ENDBRANCH  10  13
ENDBRANCH   9  10
ENDBRANCH   8   9
ENDBRANCH   1   8
BRANCH   4  26
ATOM     26  C   UNL     1     -10.636 -44.473  30.586  1.00  0.00     0.299 C 
BRANCH  26  27
ATOM     27  C   UNL     1     -10.762 -43.631  31.827  1.00  0.00     0.006 A 
ATOM     28  C   UNL     1     -12.005 -43.095  32.206  1.00  0.00     0.013 A 
ATOM     29  C   UNL     1      -9.642 -43.387  32.639  1.00  0.00     0.013 A 
ATOM     30  C   UNL     1     -12.126 -42.336  33.373  1.00  0.00     0.046 A 
ATOM     31  C   UNL     1      -9.768 -42.632  33.805  1.00  0.00     0.046 A 
ATOM     32  C   UNL     1     -11.006 -42.115  34.164  1.00  0.00     0.115 A 
BRANCH  32  33
ATOM     33  O   UNL     1     -11.072 -41.385  35.312  1.00  0.00    -0.508 OA
ATOM     34  H   UNL     1     -11.701 -41.799  35.927  1.00  0.00     0.293 HD
ENDBRANCH  32  33
ENDBRANCH  26  27
ENDBRANCH   4  26
TORSDOF 8
ENDMDL
MODEL 6
REMARK VINA RESULT:   -10.834      2.635     11.621
REMARK INTER + INTRA:         -16.054
REMARK INTER:                 -15.339
REMARK INTRA:                  -0.715
REMARK UNBOUND:                -0.786
REMARK SMILES O=C1CCc2cc(C(O)=CC[C@H]3CC[N@H+](Cc4ccc(O)cc4)CC3)cc3ccn1c23
REMARK SMILES IDX 12 1 13 2 14 3 15 4 24 5 25 6 11 8 10 9 8 10 9 11 7 13 6 14
REMARK SMILES IDX 26 15 5 16 27 17 31 18 4 19 28 20 30 21 3 22 29 23 2 24 1 25
REMARK SMILES IDX 16 26 17 27 18 28 23 29 19 30 22 31 20 32 21 33
REMARK H PARENT 15 7 9 12 21 34
ROOT
ATOM      1  C   UNL     1     -18.279 -42.651  25.591  1.00  0.00     0.004 C 
ATOM      2  C   UNL     1     -18.138 -42.362  24.091  1.00  0.00     0.065 C 
ATOM      3  C   UNL     1     -19.493 -42.303  23.397  1.00  0.00     0.262 C 
ATOM      4  N   UNL     1     -20.362 -41.268  24.075  1.00  0.00    -0.331 N 
ATOM      5  C   UNL     1     -20.566 -41.573  25.537  1.00  0.00     0.262 C 
ATOM      6  C   UNL     1     -19.219 -41.626  26.242  1.00  0.00     0.065 C 
ATOM      7  H   UNL     1     -19.863 -40.372  24.010  1.00  0.00     0.348 HD
ENDROOT
BRANCH   1   8
ATOM      8  C   UNL     1     -16.920 -42.738  26.314  1.00  0.00     0.035 C 
BRANCH   8   9
ATOM      9  C   UNL     1     -15.728 -42.821  25.401  1.00  0.00     0.020 C 
BRANCH   9  10
ATOM     10  C   UNL     1     -14.727 -43.713  25.433  1.00  0.00     0.118 C 
BRANCH  10  11
ATOM     11  O   UNL     1     -14.577 -44.591  24.380  1.00  0.00    -0.508 OA
ATOM     12  H   UNL     1     -15.195 -44.325  23.675  1.00  0.00     0.293 HD
ENDBRANCH  10  11
BRANCH  10  13
ATOM     13  C   UNL     1     -13.721 -43.819  26.498  1.00  0.00     0.017 A 
ATOM     14  C   UNL     1     -13.750 -44.897  27.397  1.00  0.00     0.017 A 
ATOM     15  C   UNL     1     -12.727 -42.822  26.599  1.00  0.00     0.022 A 
ATOM     16  C   UNL     1     -12.794 -45.010  28.409  1.00  0.00    -0.022 A 
ATOM     17  C   UNL     1     -11.774 -42.910  27.629  1.00  0.00     0.001 A 
ATOM     18  C   UNL     1     -11.837 -44.002  28.473  1.00  0.00     0.059 A 
ATOM     19  C   UNL     1     -12.771 -46.058  29.478  1.00  0.00     0.047 C 
ATOM     20  C   UNL     1     -10.687 -42.116  28.086  1.00  0.00     0.029 A 
ATOM     21  N   UNL     1     -10.818 -43.926  29.395  1.00  0.00    -0.287 N 
ATOM     22  C   UNL     1     -11.357 -46.219  30.066  1.00  0.00     0.106 C 
ATOM     23  C   UNL     1     -10.141 -42.743  29.191  1.00  0.00     0.095 A 
ATOM     24  C   UNL     1     -10.590 -44.931  30.345  1.00  0.00     0.231 C 
ATOM     25  O   UNL     1      -9.753 -44.763  31.219  1.00  0.00    -0.274 OA
ENDBRANCH  10  13
ENDBRANCH   9  10
ENDBRANCH   8   9
ENDBRANCH   1   8
BRANCH   4  26
ATOM     26  C   UNL     1     -21.686 -41.062  23.368  1.00  0.00     0.299 C 
BRANCH  26  27
ATOM     27  C   UNL     1     -21.562 -40.258  22.102  1.00  0.00     0.006 A 
ATOM     28  C   UNL     1     -22.534 -40.360  21.091  1.00  0.00     0.013 A 
ATOM     29  C   UNL     1     -20.485 -39.377  21.921  1.00  0.00     0.013 A 
ATOM     30  C   UNL     1     -22.432 -39.593  19.927  1.00  0.00     0.046 A 
ATOM     31  C   UNL     1     -20.388 -38.610  20.760  1.00  0.00     0.046 A 
ATOM     32  C   UNL     1     -21.360 -38.722  19.775  1.00  0.00     0.115 A 
BRANCH  32  33
ATOM     33  O   UNL     1     -21.218 -37.950  18.662  1.00  0.00    -0.508 OA
ATOM     34  H   UNL     1     -20.395 -37.437  18.722  1.00  0.00     0.293 HD
ENDBRANCH  32  33
ENDBRANCH  26  27
ENDBRANCH   4  26
TORSDOF 8
ENDMDL
MODEL 7
REMARK VINA RESULT:   -10.813      2.013     10.943
REMARK INTER + INTRA:         -16.023
REMARK INTER:                 -16.131
REMARK INTRA:                   0.108
REMARK UNBOUND:                -0.786
REMARK SMILES O=C1CCc2cc(C(O)=CC[C@H]3CC[N@H+](Cc4ccc(O)cc4)CC3)cc3ccn1c23
REMARK SMILES IDX 12 1 13 2 14 3 15 4 24 5 25 6 11 8 10 9 8 10 9 11 7 13 6 14
REMARK SMILES IDX 26 15 5 16 27 17 31 18 4 19 28 20 30 21 3 22 29 23 2 24 1 25
REMARK SMILES IDX 16 26 17 27 18 28 23 29 19 30 22 31 20 32 21 33
REMARK H PARENT 15 7 9 12 21 34
ROOT
ATOM      1  C   UNL     1     -14.019 -44.153  27.048  1.00  0.00     0.004 C 
ATOM      2  C   UNL     1     -15.238 -43.238  27.227  1.00  0.00     0.065 C 
ATOM      3  C   UNL     1     -15.501 -42.397  25.985  1.00  0.00     0.262 C 
ATOM      4  N   UNL     1     -15.668 -43.305  24.787  1.00  0.00    -0.331 N 
ATOM      5  C   UNL     1     -14.451 -44.164  24.555  1.00  0.00     0.262 C 
ATOM      6  C   UNL     1     -14.185 -45.016  25.788  1.00  0.00     0.065 C 
ATOM      7  H   UNL     1     -16.456 -43.930  24.995  1.00  0.00     0.348 HD
ENDROOT
BRANCH   1   8
ATOM      8  C   UNL     1     -13.716 -45.001  28.300  1.00  0.00     0.035 C 
BRANCH   8   9
ATOM      9  C   UNL     1     -12.694 -46.083  28.092  1.00  0.00     0.020 C 
BRANCH   9  10
ATOM     10  C   UNL     1     -11.435 -46.126  28.553  1.00  0.00     0.118 C 
BRANCH  10  11
ATOM     11  O   UNL     1     -10.507 -46.907  27.897  1.00  0.00    -0.508 OA
ATOM     12  H   UNL     1     -10.764 -47.840  28.010  1.00  0.00     0.293 HD
ENDBRANCH  10  11
BRANCH  10  13
ATOM     13  C   UNL     1     -10.928 -45.365  29.702  1.00  0.00     0.017 A 
ATOM     14  C   UNL     1      -9.592 -45.503  30.111  1.00  0.00     0.017 A 
ATOM     15  C   UNL     1     -11.805 -44.495  30.384  1.00  0.00     0.022 A 
ATOM     16  C   UNL     1      -9.098 -44.779  31.198  1.00  0.00    -0.022 A 
ATOM     17  C   UNL     1     -11.328 -43.780  31.498  1.00  0.00     0.001 A 
ATOM     18  C   UNL     1     -10.000 -43.938  31.843  1.00  0.00     0.059 A 
ATOM     19  C   UNL     1      -7.726 -44.905  31.783  1.00  0.00     0.047 C 
ATOM     20  C   UNL     1     -11.882 -42.878  32.447  1.00  0.00     0.029 A 
ATOM     21  N   UNL     1      -9.715 -43.147  32.933  1.00  0.00    -0.287 N 
ATOM     22  C   UNL     1      -7.343 -43.640  32.575  1.00  0.00     0.106 C 
ATOM     23  C   UNL     1     -10.882 -42.534  33.337  1.00  0.00     0.095 A 
ATOM     24  C   UNL     1      -8.425 -43.051  33.473  1.00  0.00     0.231 C 
ATOM     25  O   UNL     1      -8.245 -42.435  34.512  1.00  0.00    -0.274 OA
ENDBRANCH  10  13
ENDBRANCH   9  10
ENDBRANCH   8   9
ENDBRANCH   1   8
BRANCH   4  26
ATOM     26  C   UNL     1     -16.053 -42.551  23.531  1.00  0.00     0.299 C 
BRANCH  26  27
ATOM     27  C   UNL     1     -17.465 -42.030  23.562  1.00  0.00     0.006 A 
ATOM     28  C   UNL     1     -17.966 -41.254  22.502  1.00  0.00     0.013 A 
ATOM     29  C   UNL     1     -18.310 -42.330  24.642  1.00  0.00     0.013 A 
ATOM     30  C   UNL     1     -19.285 -40.794  22.520  1.00  0.00     0.046 A 
ATOM     31  C   UNL     1     -19.628 -41.872  24.654  1.00  0.00     0.046 A 
ATOM     32  C   UNL     1     -20.105 -41.111  23.596  1.00  0.00     0.115 A 
BRANCH  32  33
ATOM     33  O   UNL     1     -21.399 -40.690  23.659  1.00  0.00    -0.508 OA
ATOM     34  H   UNL     1     -21.652 -40.282  22.814  1.00  0.00     0.293 HD
ENDBRANCH  32  33
ENDBRANCH  26  27
ENDBRANCH   4  26
TORSDOF 8
ENDMDL
MODEL 8
REMARK VINA RESULT:   -10.716      2.995      4.615
REMARK INTER + INTRA:         -15.887
REMARK INTER:                 -15.549
REMARK INTRA:                  -0.338
REMARK UNBOUND:                -0.786
REMARK SMILES O=C1CCc2cc(C(O)=CC[C@H]3CC[N@H+](Cc4ccc(O)cc4)CC3)cc3ccn1c23
REMARK SMILES IDX 12 1 13 2 14 3 15 4 24 5 25 6 11 8 10 9 8 10 9 11 7 13 6 14
REMARK SMILES IDX 26 15 5 16 27 17 31 18 4 19 28 20 30 21 3 22 29 23 2 24 1 25
REMARK SMILES IDX 16 26 17 27 18 28 23 29 19 30 22 31 20 32 21 33
REMARK H PARENT 15 7 9 12 21 34
ROOT
ATOM      1  C   UNL     1     -16.334 -43.170  25.355  1.00  0.00     0.004 C 
ATOM      2  C   UNL     1     -16.106 -42.610  26.766  1.00  0.00     0.065 C 
ATOM      3  C   UNL     1     -15.273 -43.556  27.622  1.00  0.00     0.262 C 
ATOM      4  N   UNL     1     -13.961 -43.842  26.927  1.00  0.00    -0.331 N 
ATOM      5  C   UNL     1     -14.165 -44.456  25.565  1.00  0.00     0.262 C 
ATOM      6  C   UNL     1     -14.989 -43.514  24.698  1.00  0.00     0.065 C 
ATOM      7  H   UNL     1     -13.491 -42.938  26.794  1.00  0.00     0.348 HD
ENDROOT
BRANCH   1   8
ATOM      8  C   UNL     1     -17.194 -42.242  24.474  1.00  0.00     0.035 C 
BRANCH   8   9
ATOM      9  C   UNL     1     -16.648 -42.008  23.092  1.00  0.00     0.020 C 
BRANCH   9  10
ATOM     10  C   UNL     1     -17.037 -41.085  22.200  1.00  0.00     0.118 C 
BRANCH  10  11
ATOM     11  O   UNL     1     -16.102 -40.549  21.340  1.00  0.00    -0.508 OA
ATOM     12  H   UNL     1     -16.579 -40.104  20.615  1.00  0.00     0.293 HD
ENDBRANCH  10  11
BRANCH  10  13
ATOM     13  C   UNL     1     -18.414 -40.607  22.021  1.00  0.00     0.017 A 
ATOM     14  C   UNL     1     -19.400 -40.907  22.975  1.00  0.00     0.017 A 
ATOM     15  C   UNL     1     -18.726 -39.842  20.876  1.00  0.00     0.022 A 
ATOM     16  C   UNL     1     -20.710 -40.452  22.817  1.00  0.00    -0.022 A 
ATOM     17  C   UNL     1     -20.049 -39.400  20.692  1.00  0.00     0.001 A 
ATOM     18  C   UNL     1     -20.973 -39.706  21.672  1.00  0.00     0.059 A 
ATOM     19  C   UNL     1     -21.864 -40.778  23.713  1.00  0.00     0.047 C 
ATOM     20  C   UNL     1     -20.754 -38.678  19.690  1.00  0.00     0.029 A 
ATOM     21  N   UNL     1     -22.195 -39.173  21.329  1.00  0.00    -0.287 N 
ATOM     22  C   UNL     1     -22.983 -39.727  23.581  1.00  0.00     0.106 C 
ATOM     23  C   UNL     1     -22.075 -38.585  20.088  1.00  0.00     0.095 A 
ATOM     24  C   UNL     1     -23.315 -39.268  22.165  1.00  0.00     0.231 C 
ATOM     25  O   UNL     1     -24.406 -38.889  21.766  1.00  0.00    -0.274 OA
ENDBRANCH  10  13
ENDBRANCH   9  10
ENDBRANCH   8   9
ENDBRANCH   1   8
BRANCH   4  26
ATOM     26  C   UNL     1     -13.022 -44.681  27.770  1.00  0.00     0.299 C 
BRANCH  26  27
ATOM     27  C   UNL     1     -11.730 -43.980  28.092  1.00  0.00     0.006 A 
ATOM     28  C   UNL     1     -10.739 -44.621  28.856  1.00  0.00     0.013 A 
ATOM     29  C   UNL     1     -11.486 -42.682  27.615  1.00  0.00     0.013 A 
ATOM     30  C   UNL     1      -9.529 -43.979  29.132  1.00  0.00     0.046 A 
ATOM     31  C   UNL     1     -10.275 -42.047  27.889  1.00  0.00     0.046 A 
ATOM     32  C   UNL     1      -9.307 -42.698  28.642  1.00  0.00     0.115 A 
BRANCH  32  33
ATOM     33  O   UNL     1      -8.143 -42.032  28.879  1.00  0.00    -0.508 OA
ATOM     34  H   UNL     1      -8.309 -41.074  28.885  1.00  0.00     0.293 HD
ENDBRANCH  32  33
ENDBRANCH  26  27
ENDBRANCH   4  26
TORSDOF 8
ENDMDL
MODEL 9
REMARK VINA RESULT:   -10.578      3.252      5.330
REMARK INTER + INTRA:         -15.692
REMARK INTER:                 -14.905
REMARK INTRA:                  -0.787
REMARK UNBOUND:                -0.786
REMARK SMILES O=C1CCc2cc(C(O)=CC[C@H]3CC[N@H+](Cc4ccc(O)cc4)CC3)cc3ccn1c23
REMARK SMILES IDX 12 1 13 2 14 3 15 4 24 5 25 6 11 8 10 9 8 10 9 11 7 13 6 14
REMARK SMILES IDX 26 15 5 16 27 17 31 18 4 19 28 20 30 21 3 22 29 23 2 24 1 25
REMARK SMILES IDX 16 26 17 27 18 28 23 29 19 30 22 31 20 32 21 33
REMARK H PARENT 15 7 9 12 21 34
ROOT
ATOM      1  C   UNL     1     -16.218 -43.267  25.183  1.00  0.00     0.004 C 
ATOM      2  C   UNL     1     -15.933 -42.588  26.529  1.00  0.00     0.065 C 
ATOM      3  C   UNL     1     -15.158 -43.501  27.470  1.00  0.00     0.262 C 
ATOM      4  N   UNL     1     -13.879 -43.947  26.800  1.00  0.00    -0.331 N 
ATOM      5  C   UNL     1     -14.143 -44.677  25.507  1.00  0.00     0.262 C 
ATOM      6  C   UNL     1     -14.910 -43.770  24.556  1.00  0.00     0.065 C 
ATOM      7  H   UNL     1     -13.348 -43.097  26.575  1.00  0.00     0.348 HD
ENDROOT
BRANCH   1   8
ATOM      8  C   UNL     1     -17.022 -42.372  24.218  1.00  0.00     0.035 C 
BRANCH   8   9
ATOM      9  C   UNL     1     -18.509 -42.592  24.251  1.00  0.00     0.020 C 
BRANCH   9  10
ATOM     10  C   UNL     1     -19.466 -41.701  24.549  1.00  0.00     0.118 C 
BRANCH  10  11
ATOM     11  O   UNL     1     -19.776 -41.465  25.871  1.00  0.00    -0.508 OA
ATOM     12  H   UNL     1     -20.072 -42.305  26.266  1.00  0.00     0.293 HD
ENDBRANCH  10  11
BRANCH  10  13
ATOM     13  C   UNL     1     -20.210 -40.898  23.569  1.00  0.00     0.017 A 
ATOM     14  C   UNL     1     -19.632 -40.575  22.330  1.00  0.00     0.017 A 
ATOM     15  C   UNL     1     -21.512 -40.461  23.894  1.00  0.00     0.022 A 
ATOM     16  C   UNL     1     -20.334 -39.818  21.390  1.00  0.00    -0.022 A 
ATOM     17  C   UNL     1     -22.219 -39.675  22.966  1.00  0.00     0.001 A 
ATOM     18  C   UNL     1     -21.611 -39.404  21.755  1.00  0.00     0.059 A 
ATOM     19  C   UNL     1     -19.797 -39.336  20.078  1.00  0.00     0.047 C 
ATOM     20  C   UNL     1     -23.481 -39.021  22.932  1.00  0.00     0.029 A 
ATOM     21  N   UNL     1     -22.459 -38.650  20.977  1.00  0.00    -0.287 N 
ATOM     22  C   UNL     1     -20.939 -39.021  19.093  1.00  0.00     0.106 C 
ATOM     23  C   UNL     1     -23.588 -38.370  21.718  1.00  0.00     0.095 A 
ATOM     24  C   UNL     1     -22.139 -38.274  19.666  1.00  0.00     0.231 C 
ATOM     25  O   UNL     1     -22.866 -37.503  19.058  1.00  0.00    -0.274 OA
ENDBRANCH  10  13
ENDBRANCH   9  10
ENDBRANCH   8   9
ENDBRANCH   1   8
BRANCH   4  26
ATOM     26  C   UNL     1     -12.991 -44.763  27.718  1.00  0.00     0.299 C 
BRANCH  26  27
ATOM     27  C   UNL     1     -11.712 -44.060  28.081  1.00  0.00     0.006 A 
ATOM     28  C   UNL     1     -10.725 -44.715  28.840  1.00  0.00     0.013 A 
ATOM     29  C   UNL     1     -11.474 -42.746  27.650  1.00  0.00     0.013 A 
ATOM     30  C   UNL     1      -9.526 -44.071  29.154  1.00  0.00     0.046 A 
ATOM     31  C   UNL     1     -10.274 -42.107  27.962  1.00  0.00     0.046 A 
ATOM     32  C   UNL     1      -9.310 -42.772  28.709  1.00  0.00     0.115 A 
BRANCH  32  33
ATOM     33  O   UNL     1      -8.157 -42.103  28.986  1.00  0.00    -0.508 OA
ATOM     34  H   UNL     1      -7.531 -42.698  29.431  1.00  0.00     0.293 HD
ENDBRANCH  32  33
ENDBRANCH  26  27
ENDBRANCH   4  26
TORSDOF 8
ENDMDL
