MODEL 1
REMARK VINA RESULT:    -9.288      0.000      0.000
REMARK INTER + INTRA:         -14.191
REMARK INTER:                 -12.818
REMARK INTRA:                  -1.373
REMARK UNBOUND:                -1.373
REMARK SMILES COc1cccc([C@H]2CC(c3cc(F)cc(F)c3)=NN2c2ccc(S(N)(=O)=O)cc2)c1OC
REMARK SMILES IDX 21 1 22 2 23 3 24 4 29 5 30 6 20 7 8 8 9 9 10 10 19 11 7 12
REMARK SMILES IDX 3 13 4 14 31 15 5 16 6 17 2 18 1 19 32 20 33 21 11 22 12 23
REMARK SMILES IDX 18 24 13 25 16 26 15 27 14 28 17 29 25 30 27 31 28 32 26 33
REMARK H PARENT 26 34 26 35
ROOT
ATOM      1  C   UNL     1     -20.109 -41.018  23.758  1.00  0.00     0.060 A 
ATOM      2  C   UNL     1     -21.455 -40.634  23.880  1.00  0.00     0.029 A 
ATOM      3  C   UNL     1     -22.122 -39.946  22.859  1.00  0.00     0.024 A 
ATOM      4  C   UNL     1     -21.447 -39.633  21.681  1.00  0.00     0.082 A 
ATOM      5  C   UNL     1     -20.109 -39.983  21.528  1.00  0.00     0.024 A 
ATOM      6  C   UNL     1     -19.458 -40.672  22.557  1.00  0.00     0.029 A 
ENDROOT
BRANCH   1   7
ATOM      7  N   UNL     1     -19.426 -41.709  24.759  1.00  0.00    -0.257 N 
ATOM      8  C   UNL     1     -19.925 -42.008  26.106  1.00  0.00     0.148 C 
ATOM      9  C   UNL     1     -18.665 -42.422  26.870  1.00  0.00     0.091 C 
ATOM     10  C   UNL     1     -17.651 -42.390  25.762  1.00  0.00     0.071 C 
ATOM     11  N   UNL     1     -18.086 -41.951  24.622  1.00  0.00    -0.176 NA
BRANCH   8  12
ATOM     12  C   UNL     1     -21.016 -43.070  26.147  1.00  0.00     0.023 A 
ATOM     13  C   UNL     1     -23.107 -44.021  26.951  1.00  0.00     0.161 A 
ATOM     14  C   UNL     1     -22.926 -45.146  26.148  1.00  0.00     0.050 A 
ATOM     15  C   UNL     1     -22.193 -42.953  26.912  1.00  0.00     0.166 A 
ATOM     16  C   UNL     1     -21.798 -45.247  25.344  1.00  0.00     0.004 A 
ATOM     17  C   UNL     1     -20.848 -44.224  25.351  1.00  0.00     0.010 A 
BRANCH  13  18
ATOM     18  O   UNL     1     -24.223 -44.008  27.749  1.00  0.00    -0.493 OA
ATOM     19  C   UNL     1     -23.965 -44.736  28.953  1.00  0.00     0.278 C 
ENDBRANCH  13  18
BRANCH  15  20
ATOM     20  O   UNL     1     -22.380 -41.798  27.625  1.00  0.00    -0.492 OA
ATOM     21  C   UNL     1     -23.330 -40.905  27.045  1.00  0.00     0.278 C 
ENDBRANCH  15  20
ENDBRANCH   8  12
BRANCH  10  22
ATOM     22  C   UNL     1     -16.247 -42.808  25.975  1.00  0.00     0.004 A 
ATOM     23  C   UNL     1     -15.905 -43.447  27.173  1.00  0.00     0.049 A 
ATOM     24  C   UNL     1     -15.261 -42.573  25.013  1.00  0.00     0.049 A 
ATOM     25  C   UNL     1     -14.589 -43.842  27.393  1.00  0.00     0.126 A 
ATOM     26  C   UNL     1     -13.952 -42.980  25.260  1.00  0.00     0.126 A 
ATOM     27  C   UNL     1     -13.603 -43.614  26.444  1.00  0.00     0.078 A 
ATOM     28  F   UNL     1     -14.266 -44.452  28.541  1.00  0.00    -0.207 F 
ATOM     29  F   UNL     1     -13.012 -42.753  24.335  1.00  0.00    -0.207 F 
ENDBRANCH  10  22
ENDBRANCH   1   7
BRANCH   4  30
ATOM     30  S   UNL     1     -22.272 -38.738  20.402  1.00  0.00     0.238 S 
ATOM     31  O   UNL     1     -21.302 -37.971  19.653  1.00  0.00    -0.207 OA
ATOM     32  O   UNL     1     -23.238 -39.598  19.760  1.00  0.00    -0.207 OA
BRANCH  30  33
ATOM     33  N   UNL     1     -23.163 -37.616  21.278  1.00  0.00    -0.225 NA
ATOM     34  H   UNL     1     -22.540 -37.063  21.867  1.00  0.00     0.137 HD
ATOM     35  H   UNL     1     -23.737 -37.060  20.645  1.00  0.00     0.137 HD
ENDBRANCH  30  33
ENDBRANCH   4  30
TORSDOF 7
ENDMDL
MODEL 2
REMARK VINA RESULT:    -9.260      0.774      1.689
REMARK INTER + INTRA:         -14.152
REMARK INTER:                 -12.766
REMARK INTRA:                  -1.387
REMARK UNBOUND:                -1.373
REMARK SMILES COc1cccc([C@H]2CC(c3cc(F)cc(F)c3)=NN2c2ccc(S(N)(=O)=O)cc2)c1OC
REMARK SMILES IDX 21 1 22 2 23 3 24 4 29 5 30 6 20 7 8 8 9 9 10 10 19 11 7 12
REMARK SMILES IDX 3 13 4 14 31 15 5 16 6 17 2 18 1 19 32 20 33 21 11 22 12 23
REMARK SMILES IDX 18 24 13 25 16 26 15 27 14 28 17 29 25 30 27 31 28 32 26 33
REMARK H PARENT 26 34 26 35
ROOT
ATOM      1  C   UNL     1     -19.847 -41.159  23.550  1.00  0.00     0.060 A 
ATOM      2  C   UNL     1     -21.145 -40.626  23.628  1.00  0.00     0.029 A 
ATOM      3  C   UNL     1     -21.760 -40.014  22.529  1.00  0.00     0.024 A 
ATOM      4  C   UNL     1     -21.081 -39.931  21.315  1.00  0.00     0.082 A 
ATOM      5  C   UNL     1     -19.789 -40.433  21.201  1.00  0.00     0.024 A 
ATOM      6  C   UNL     1     -19.190 -41.043  22.309  1.00  0.00     0.029 A 
ENDROOT
BRANCH   1   7
ATOM      7  N   UNL     1     -19.216 -41.778  24.629  1.00  0.00    -0.257 N 
ATOM      8  C   UNL     1     -19.766 -41.945  25.979  1.00  0.00     0.148 C 
ATOM      9  C   UNL     1     -18.545 -42.325  26.818  1.00  0.00     0.091 C 
ATOM     10  C   UNL     1     -17.494 -42.414  25.748  1.00  0.00     0.071 C 
ATOM     11  N   UNL     1     -17.880 -42.065  24.559  1.00  0.00    -0.176 NA
BRANCH   8  12
ATOM     12  C   UNL     1     -20.888 -42.972  26.074  1.00  0.00     0.023 A 
ATOM     13  C   UNL     1     -23.031 -43.793  26.881  1.00  0.00     0.161 A 
ATOM     14  C   UNL     1     -22.856 -44.991  26.188  1.00  0.00     0.050 A 
ATOM     15  C   UNL     1     -22.087 -42.758  26.782  1.00  0.00     0.166 A 
ATOM     16  C   UNL     1     -21.705 -45.191  25.437  1.00  0.00     0.004 A 
ATOM     17  C   UNL     1     -20.726 -44.196  25.388  1.00  0.00     0.010 A 
BRANCH  13  18
ATOM     18  O   UNL     1     -24.174 -43.681  27.634  1.00  0.00    -0.493 OA
ATOM     19  C   UNL     1     -23.970 -44.286  28.914  1.00  0.00     0.278 C 
ENDBRANCH  13  18
BRANCH  15  20
ATOM     20  O   UNL     1     -22.265 -41.539  27.383  1.00  0.00    -0.492 OA
ATOM     21  C   UNL     1     -23.169 -40.677  26.693  1.00  0.00     0.278 C 
ENDBRANCH  15  20
ENDBRANCH   8  12
BRANCH  10  22
ATOM     22  C   UNL     1     -16.111 -42.848  26.044  1.00  0.00     0.004 A 
ATOM     23  C   UNL     1     -15.107 -42.608  25.097  1.00  0.00     0.049 A 
ATOM     24  C   UNL     1     -15.789 -43.494  27.242  1.00  0.00     0.049 A 
ATOM     25  C   UNL     1     -13.802 -43.014  25.357  1.00  0.00     0.126 A 
ATOM     26  C   UNL     1     -14.473 -43.889  27.474  1.00  0.00     0.126 A 
ATOM     27  C   UNL     1     -13.473 -43.656  26.542  1.00  0.00     0.078 A 
ATOM     28  F   UNL     1     -12.847 -42.784  24.447  1.00  0.00    -0.207 F 
ATOM     29  F   UNL     1     -14.171 -44.507  28.623  1.00  0.00    -0.207 F 
ENDBRANCH  10  22
ENDBRANCH   1   7
BRANCH   4  30
ATOM     30  S   UNL     1     -21.838 -39.134  19.934  1.00  0.00     0.238 S 
ATOM     31  O   UNL     1     -22.515 -40.120  19.123  1.00  0.00    -0.207 OA
ATOM     32  O   UNL     1     -22.484 -37.920  20.374  1.00  0.00    -0.207 OA
BRANCH  30  33
ATOM     33  N   UNL     1     -20.504 -38.646  19.038  1.00  0.00    -0.225 NA
ATOM     34  H   UNL     1     -19.663 -39.104  19.391  1.00  0.00     0.137 HD
ATOM     35  H   UNL     1     -20.677 -38.802  18.045  1.00  0.00     0.137 HD
ENDBRANCH  30  33
ENDBRANCH   4  30
TORSDOF 7
ENDMDL
MODEL 3
REMARK VINA RESULT:    -8.777      4.706      8.156
REMARK INTER + INTRA:         -13.485
REMARK INTER:                 -12.166
REMARK INTRA:                  -1.319
REMARK UNBOUND:                -1.373
REMARK SMILES COc1cccc([C@H]2CC(c3cc(F)cc(F)c3)=NN2c2ccc(S(N)(=O)=O)cc2)c1OC
REMARK SMILES IDX 21 1 22 2 23 3 24 4 29 5 30 6 20 7 8 8 9 9 10 10 19 11 7 12
REMARK SMILES IDX 3 13 4 14 31 15 5 16 6 17 2 18 1 19 32 20 33 21 11 22 12 23
REMARK SMILES IDX 18 24 13 25 16 26 15 27 14 28 17 29 25 30 27 31 28 32 26 33
REMARK H PARENT 26 34 26 35
ROOT
ATOM      1  C   UNL     1     -19.238 -41.836  26.042  1.00  0.00     0.060 A 
ATOM      2  C   UNL     1     -18.417 -42.111  24.937  1.00  0.00     0.029 A 
ATOM      3  C   UNL     1     -17.101 -42.570  25.089  1.00  0.00     0.024 A 
ATOM      4  C   UNL     1     -16.584 -42.770  26.367  1.00  0.00     0.082 A 
ATOM      5  C   UNL     1     -17.361 -42.495  27.488  1.00  0.00     0.024 A 
ATOM      6  C   UNL     1     -18.673 -42.039  27.317  1.00  0.00     0.029 A 
ENDROOT
BRANCH   1   7
ATOM      7  N   UNL     1     -20.552 -41.385  25.915  1.00  0.00    -0.257 N 
ATOM      8  C   UNL     1     -21.170 -40.837  24.703  1.00  0.00     0.148 C 
ATOM      9  C   UNL     1     -22.446 -40.171  25.221  1.00  0.00     0.091 C 
ATOM     10  C   UNL     1     -22.387 -40.559  26.672  1.00  0.00     0.071 C 
ATOM     11  N   UNL     1     -21.313 -41.188  27.035  1.00  0.00    -0.176 NA
BRANCH   8  12
ATOM     12  C   UNL     1     -21.444 -41.871  23.618  1.00  0.00     0.023 A 
ATOM     13  C   UNL     1     -21.517 -42.650  21.314  1.00  0.00     0.161 A 
ATOM     14  C   UNL     1     -22.047 -43.873  21.724  1.00  0.00     0.050 A 
ATOM     15  C   UNL     1     -21.156 -41.670  22.254  1.00  0.00     0.166 A 
ATOM     16  C   UNL     1     -22.280 -44.107  23.073  1.00  0.00     0.004 A 
ATOM     17  C   UNL     1     -21.991 -43.113  24.010  1.00  0.00     0.010 A 
BRANCH  13  18
ATOM     18  O   UNL     1     -21.351 -42.474  19.963  1.00  0.00    -0.493 OA
ATOM     19  C   UNL     1     -22.553 -41.947  19.393  1.00  0.00     0.278 C 
ENDBRANCH  13  18
BRANCH  15  20
ATOM     20  O   UNL     1     -20.558 -40.490  21.895  1.00  0.00    -0.492 OA
ATOM     21  C   UNL     1     -19.156 -40.597  21.656  1.00  0.00     0.278 C 
ENDBRANCH  15  20
ENDBRANCH   8  12
BRANCH  10  22
ATOM     22  C   UNL     1     -23.474 -40.219  27.617  1.00  0.00     0.004 A 
ATOM     23  C   UNL     1     -23.697 -38.875  27.940  1.00  0.00     0.049 A 
ATOM     24  C   UNL     1     -24.275 -41.209  28.194  1.00  0.00     0.049 A 
ATOM     25  C   UNL     1     -24.711 -38.538  28.830  1.00  0.00     0.126 A 
ATOM     26  C   UNL     1     -25.283 -40.842  29.082  1.00  0.00     0.126 A 
ATOM     27  C   UNL     1     -25.511 -39.513  29.409  1.00  0.00     0.078 A 
ATOM     28  F   UNL     1     -24.918 -37.251  29.137  1.00  0.00    -0.207 F 
ATOM     29  F   UNL     1     -26.047 -41.794  29.633  1.00  0.00    -0.207 F 
ENDBRANCH  10  22
ENDBRANCH   1   7
BRANCH   4  30
ATOM     30  S   UNL     1     -14.918 -43.318  26.568  1.00  0.00     0.238 S 
ATOM     31  O   UNL     1     -14.677 -44.448  25.700  1.00  0.00    -0.207 OA
ATOM     32  O   UNL     1     -14.037 -42.174  26.609  1.00  0.00    -0.207 OA
BRANCH  30  33
ATOM     33  N   UNL     1     -14.940 -43.939  28.128  1.00  0.00    -0.225 NA
ATOM     34  H   UNL     1     -15.346 -43.255  28.767  1.00  0.00     0.137 HD
ATOM     35  H   UNL     1     -15.410 -44.844  28.134  1.00  0.00     0.137 HD
ENDBRANCH  30  33
ENDBRANCH   4  30
TORSDOF 7
ENDMDL
MODEL 4
REMARK VINA RESULT:    -8.680      2.920      5.693
REMARK INTER + INTRA:         -13.352
REMARK INTER:                 -12.049
REMARK INTRA:                  -1.303
REMARK UNBOUND:                -1.373
REMARK SMILES COc1cccc([C@H]2CC(c3cc(F)cc(F)c3)=NN2c2ccc(S(N)(=O)=O)cc2)c1OC
REMARK SMILES IDX 21 1 22 2 23 3 24 4 29 5 30 6 20 7 8 8 9 9 10 10 19 11 7 12
REMARK SMILES IDX 3 13 4 14 31 15 5 16 6 17 2 18 1 19 32 20 33 21 11 22 12 23
REMARK SMILES IDX 18 24 13 25 16 26 15 27 14 28 17 29 25 30 27 31 28 32 26 33
REMARK H PARENT 26 34 26 35
ROOT
ATOM      1  C   UNL     1     -22.192 -40.510  25.441  1.00  0.00     0.060 A 
ATOM      2  C   UNL     1     -23.222 -39.930  24.683  1.00  0.00     0.029 A 
ATOM      3  C   UNL     1     -24.346 -39.350  25.286  1.00  0.00     0.024 A 
ATOM      4  C   UNL     1     -24.454 -39.334  26.675  1.00  0.00     0.082 A 
ATOM      5  C   UNL     1     -23.461 -39.912  27.461  1.00  0.00     0.024 A 
ATOM      6  C   UNL     1     -22.344 -40.486  26.842  1.00  0.00     0.029 A 
ENDROOT
BRANCH   1   7
ATOM      7  N   UNL     1     -21.061 -41.088  24.864  1.00  0.00    -0.257 N 
ATOM      8  C   UNL     1     -20.990 -41.735  23.548  1.00  0.00     0.148 C 
ATOM      9  C   UNL     1     -19.666 -42.500  23.597  1.00  0.00     0.091 C 
ATOM     10  C   UNL     1     -19.143 -42.057  24.934  1.00  0.00     0.071 C 
ATOM     11  N   UNL     1     -19.950 -41.317  25.629  1.00  0.00    -0.176 NA
BRANCH   8  12
ATOM     12  C   UNL     1     -21.070 -40.770  22.372  1.00  0.00     0.023 A 
ATOM     13  C   UNL     1     -21.825 -40.078  20.165  1.00  0.00     0.161 A 
ATOM     14  C   UNL     1     -21.080 -38.903  20.257  1.00  0.00     0.050 A 
ATOM     15  C   UNL     1     -21.877 -40.985  21.237  1.00  0.00     0.166 A 
ATOM     16  C   UNL     1     -20.327 -38.651  21.396  1.00  0.00     0.004 A 
ATOM     17  C   UNL     1     -20.315 -39.579  22.440  1.00  0.00     0.010 A 
BRANCH  13  18
ATOM     18  O   UNL     1     -22.512 -40.280  18.994  1.00  0.00    -0.493 OA
ATOM     19  C   UNL     1     -22.829 -39.019  18.397  1.00  0.00     0.278 C 
ENDBRANCH  13  18
BRANCH  15  20
ATOM     20  O   UNL     1     -22.662 -42.108  21.215  1.00  0.00    -0.492 OA
ATOM     21  C   UNL     1     -24.007 -41.886  21.634  1.00  0.00     0.278 C 
ENDBRANCH  15  20
ENDBRANCH   8  12
BRANCH  10  22
ATOM     22  C   UNL     1     -17.808 -42.465  25.425  1.00  0.00     0.004 A 
ATOM     23  C   UNL     1     -17.576 -42.502  26.806  1.00  0.00     0.049 A 
ATOM     24  C   UNL     1     -16.778 -42.806  24.543  1.00  0.00     0.049 A 
ATOM     25  C   UNL     1     -16.325 -42.878  27.285  1.00  0.00     0.126 A 
ATOM     26  C   UNL     1     -15.536 -43.179  25.052  1.00  0.00     0.126 A 
ATOM     27  C   UNL     1     -15.297 -43.218  26.418  1.00  0.00     0.078 A 
ATOM     28  F   UNL     1     -16.107 -42.910  28.606  1.00  0.00    -0.207 F 
ATOM     29  F   UNL     1     -14.554 -43.505  24.203  1.00  0.00    -0.207 F 
ENDBRANCH  10  22
ENDBRANCH   1   7
BRANCH   4  30
ATOM     30  S   UNL     1     -25.881 -38.633  27.442  1.00  0.00     0.238 S 
ATOM     31  O   UNL     1     -26.380 -39.543  28.447  1.00  0.00    -0.207 OA
ATOM     32  O   UNL     1     -25.641 -37.235  27.715  1.00  0.00    -0.207 OA
BRANCH  30  33
ATOM     33  N   UNL     1     -27.004 -38.672  26.194  1.00  0.00    -0.225 NA
ATOM     34  H   UNL     1     -27.750 -39.330  26.420  1.00  0.00     0.137 HD
ATOM     35  H   UNL     1     -27.330 -37.728  25.991  1.00  0.00     0.137 HD
ENDBRANCH  30  33
ENDBRANCH   4  30
TORSDOF 7
ENDMDL
MODEL 5
REMARK VINA RESULT:    -8.603      4.485      7.446
REMARK INTER + INTRA:         -13.245
REMARK INTER:                 -11.872
REMARK INTRA:                  -1.373
REMARK UNBOUND:                -1.373
REMARK SMILES COc1cccc([C@H]2CC(c3cc(F)cc(F)c3)=NN2c2ccc(S(N)(=O)=O)cc2)c1OC
REMARK SMILES IDX 21 1 22 2 23 3 24 4 29 5 30 6 20 7 8 8 9 9 10 10 19 11 7 12
REMARK SMILES IDX 3 13 4 14 31 15 5 16 6 17 2 18 1 19 32 20 33 21 11 22 12 23
REMARK SMILES IDX 18 24 13 25 16 26 15 27 14 28 17 29 25 30 27 31 28 32 26 33
REMARK H PARENT 26 34 26 35
ROOT
ATOM      1  C   UNL     1     -18.974 -42.132  24.373  1.00  0.00     0.060 A 
ATOM      2  C   UNL     1     -18.842 -42.087  25.770  1.00  0.00     0.029 A 
ATOM      3  C   UNL     1     -17.635 -42.399  26.409  1.00  0.00     0.024 A 
ATOM      4  C   UNL     1     -16.524 -42.758  25.650  1.00  0.00     0.082 A 
ATOM      5  C   UNL     1     -16.618 -42.827  24.263  1.00  0.00     0.024 A 
ATOM      6  C   UNL     1     -17.831 -42.511  23.641  1.00  0.00     0.029 A 
ENDROOT
BRANCH   1   7
ATOM      7  N   UNL     1     -20.163 -41.820  23.714  1.00  0.00    -0.257 N 
ATOM      8  C   UNL     1     -21.480 -42.416  23.967  1.00  0.00     0.148 C 
ATOM      9  C   UNL     1     -22.301 -42.002  22.744  1.00  0.00     0.091 C 
ATOM     10  C   UNL     1     -21.310 -41.123  22.034  1.00  0.00     0.071 C 
ATOM     11  N   UNL     1     -20.128 -41.076  22.566  1.00  0.00    -0.176 NA
BRANCH   8  12
ATOM     12  C   UNL     1     -22.119 -41.985  25.280  1.00  0.00     0.023 A 
ATOM     13  C   UNL     1     -23.220 -42.398  27.411  1.00  0.00     0.161 A 
ATOM     14  C   UNL     1     -23.321 -41.028  27.647  1.00  0.00     0.050 A 
ATOM     15  C   UNL     1     -22.569 -42.886  26.265  1.00  0.00     0.166 A 
ATOM     16  C   UNL     1     -22.827 -40.128  26.711  1.00  0.00     0.004 A 
ATOM     17  C   UNL     1     -22.242 -40.601  25.535  1.00  0.00     0.010 A 
BRANCH  13  18
ATOM     18  O   UNL     1     -23.765 -43.227  28.360  1.00  0.00    -0.493 OA
ATOM     19  C   UNL     1     -24.874 -42.578  28.988  1.00  0.00     0.278 C 
ENDBRANCH  13  18
BRANCH  15  20
ATOM     20  O   UNL     1     -22.380 -44.225  26.040  1.00  0.00    -0.492 OA
ATOM     21  C   UNL     1     -21.237 -44.769  26.698  1.00  0.00     0.278 C 
ENDBRANCH  15  20
ENDBRANCH   8  12
BRANCH  10  22
ATOM     22  C   UNL     1     -21.662 -40.387  20.800  1.00  0.00     0.004 A 
ATOM     23  C   UNL     1     -22.527 -40.986  19.876  1.00  0.00     0.049 A 
ATOM     24  C   UNL     1     -21.147 -39.114  20.537  1.00  0.00     0.049 A 
ATOM     25  C   UNL     1     -22.865 -40.310  18.708  1.00  0.00     0.126 A 
ATOM     26  C   UNL     1     -21.502 -38.461  19.359  1.00  0.00     0.126 A 
ATOM     27  C   UNL     1     -22.358 -39.048  18.437  1.00  0.00     0.078 A 
ATOM     28  F   UNL     1     -23.691 -40.889  17.827  1.00  0.00    -0.207 F 
ATOM     29  F   UNL     1     -21.006 -37.243  19.112  1.00  0.00    -0.207 F 
ENDBRANCH  10  22
ENDBRANCH   1   7
BRANCH   4  30
ATOM     30  S   UNL     1     -15.008 -43.182  26.448  1.00  0.00     0.238 S 
ATOM     31  O   UNL     1     -14.547 -44.459  25.953  1.00  0.00    -0.207 OA
ATOM     32  O   UNL     1     -14.152 -42.020  26.504  1.00  0.00    -0.207 OA
BRANCH  30  33
ATOM     33  N   UNL     1     -15.510 -43.460  28.027  1.00  0.00    -0.225 NA
ATOM     34  H   UNL     1     -16.507 -43.680  28.039  1.00  0.00     0.137 HD
ATOM     35  H   UNL     1     -14.922 -44.173  28.457  1.00  0.00     0.137 HD
ENDBRANCH  30  33
ENDBRANCH   4  30
TORSDOF 7
ENDMDL
MODEL 6
REMARK VINA RESULT:    -8.481      4.738      7.532
REMARK INTER + INTRA:         -13.076
REMARK INTER:                 -11.903
REMARK INTRA:                  -1.174
REMARK UNBOUND:                -1.373
REMARK SMILES COc1cccc([C@H]2CC(c3cc(F)cc(F)c3)=NN2c2ccc(S(N)(=O)=O)cc2)c1OC
REMARK SMILES IDX 21 1 22 2 23 3 24 4 29 5 30 6 20 7 8 8 9 9 10 10 19 11 7 12
REMARK SMILES IDX 3 13 4 14 31 15 5 16 6 17 2 18 1 19 32 20 33 21 11 22 12 23
REMARK SMILES IDX 18 24 13 25 16 26 15 27 14 28 17 29 25 30 27 31 28 32 26 33
REMARK H PARENT 26 34 26 35
ROOT
ATOM      1  C   UNL     1     -19.115 -42.306  25.887  1.00  0.00     0.060 A 
ATOM      2  C   UNL     1     -18.316 -42.385  27.040  1.00  0.00     0.029 A 
ATOM      3  C   UNL     1     -16.929 -42.569  26.967  1.00  0.00     0.024 A 
ATOM      4  C   UNL     1     -16.310 -42.670  25.723  1.00  0.00     0.082 A 
ATOM      5  C   UNL     1     -17.068 -42.611  24.557  1.00  0.00     0.024 A 
ATOM      6  C   UNL     1     -18.452 -42.426  24.649  1.00  0.00     0.029 A 
ENDROOT
BRANCH   1   7
ATOM      7  N   UNL     1     -20.496 -42.117  25.934  1.00  0.00    -0.257 N 
ATOM      8  C   UNL     1     -21.451 -42.415  24.861  1.00  0.00     0.148 C 
ATOM      9  C   UNL     1     -22.720 -41.679  25.297  1.00  0.00     0.091 C 
ATOM     10  C   UNL     1     -22.287 -41.159  26.639  1.00  0.00     0.071 C 
ATOM     11  N   UNL     1     -21.045 -41.377  26.945  1.00  0.00    -0.176 NA
BRANCH   8  12
ATOM     12  C   UNL     1     -21.685 -43.902  24.627  1.00  0.00     0.023 A 
ATOM     13  C   UNL     1     -22.541 -45.806  23.376  1.00  0.00     0.161 A 
ATOM     14  C   UNL     1     -22.081 -46.683  24.359  1.00  0.00     0.050 A 
ATOM     15  C   UNL     1     -22.294 -44.426  23.469  1.00  0.00     0.166 A 
ATOM     16  C   UNL     1     -21.425 -46.184  25.477  1.00  0.00     0.004 A 
ATOM     17  C   UNL     1     -21.238 -44.807  25.614  1.00  0.00     0.010 A 
BRANCH  13  18
ATOM     18  O   UNL     1     -23.215 -46.366  22.320  1.00  0.00    -0.493 OA
ATOM     19  C   UNL     1     -22.817 -47.731  22.162  1.00  0.00     0.278 C 
ENDBRANCH  13  18
BRANCH  15  20
ATOM     20  O   UNL     1     -22.659 -43.545  22.485  1.00  0.00    -0.492 OA
ATOM     21  C   UNL     1     -21.721 -43.449  21.414  1.00  0.00     0.278 C 
ENDBRANCH  15  20
ENDBRANCH   8  12
BRANCH  10  22
ATOM     22  C   UNL     1     -23.215 -40.429  27.531  1.00  0.00     0.004 A 
ATOM     23  C   UNL     1     -24.125 -41.159  28.306  1.00  0.00     0.049 A 
ATOM     24  C   UNL     1     -23.204 -39.034  27.611  1.00  0.00     0.049 A 
ATOM     25  C   UNL     1     -25.008 -40.489  29.146  1.00  0.00     0.126 A 
ATOM     26  C   UNL     1     -24.100 -38.390  28.462  1.00  0.00     0.126 A 
ATOM     27  C   UNL     1     -25.006 -39.105  29.233  1.00  0.00     0.078 A 
ATOM     28  F   UNL     1     -25.878 -41.191  29.884  1.00  0.00    -0.207 F 
ATOM     29  F   UNL     1     -24.086 -37.053  28.535  1.00  0.00    -0.207 F 
ENDBRANCH  10  22
ENDBRANCH   1   7
BRANCH   4  30
ATOM     30  S   UNL     1     -14.567 -42.933  25.623  1.00  0.00     0.238 S 
ATOM     31  O   UNL     1     -14.124 -42.696  24.268  1.00  0.00    -0.207 OA
ATOM     32  O   UNL     1     -13.924 -42.326  26.764  1.00  0.00    -0.207 OA
BRANCH  30  33
ATOM     33  N   UNL     1     -14.450 -44.592  25.857  1.00  0.00    -0.225 NA
ATOM     34  H   UNL     1     -15.300 -44.941  26.300  1.00  0.00     0.137 HD
ATOM     35  H   UNL     1     -14.224 -45.051  24.975  1.00  0.00     0.137 HD
ENDBRANCH  30  33
ENDBRANCH   4  30
TORSDOF 7
ENDMDL
MODEL 7
REMARK VINA RESULT:    -8.220      2.706      5.672
REMARK INTER + INTRA:         -12.716
REMARK INTER:                 -11.112
REMARK INTRA:                  -1.604
REMARK UNBOUND:                -1.373
REMARK SMILES COc1cccc([C@H]2CC(c3cc(F)cc(F)c3)=NN2c2ccc(S(N)(=O)=O)cc2)c1OC
REMARK SMILES IDX 21 1 22 2 23 3 24 4 29 5 30 6 20 7 8 8 9 9 10 10 19 11 7 12
REMARK SMILES IDX 3 13 4 14 31 15 5 16 6 17 2 18 1 19 32 20 33 21 11 22 12 23
REMARK SMILES IDX 18 24 13 25 16 26 15 27 14 28 17 29 25 30 27 31 28 32 26 33
REMARK H PARENT 26 34 26 35
ROOT
ATOM      1  C   UNL     1     -21.421 -41.816  25.938  1.00  0.00     0.060 A 
ATOM      2  C   UNL     1     -22.235 -42.862  26.404  1.00  0.00     0.029 A 
ATOM      3  C   UNL     1     -23.303 -42.632  27.282  1.00  0.00     0.024 A 
ATOM      4  C   UNL     1     -23.580 -41.334  27.706  1.00  0.00     0.082 A 
ATOM      5  C   UNL     1     -22.788 -40.273  27.278  1.00  0.00     0.024 A 
ATOM      6  C   UNL     1     -21.727 -40.521  26.400  1.00  0.00     0.029 A 
ENDROOT
BRANCH   1   7
ATOM      7  N   UNL     1     -20.357 -42.020  25.059  1.00  0.00    -0.257 N 
ATOM      8  C   UNL     1     -20.456 -42.285  23.620  1.00  0.00     0.148 C 
ATOM      9  C   UNL     1     -19.060 -42.793  23.252  1.00  0.00     0.091 C 
ATOM     10  C   UNL     1     -18.353 -42.623  24.567  1.00  0.00     0.071 C 
ATOM     11  N   UNL     1     -19.100 -42.239  25.555  1.00  0.00    -0.176 NA
BRANCH   8  12
ATOM     12  C   UNL     1     -20.882 -41.081  22.790  1.00  0.00     0.023 A 
ATOM     13  C   UNL     1     -22.472 -39.786  21.479  1.00  0.00     0.161 A 
ATOM     14  C   UNL     1     -21.505 -38.813  21.232  1.00  0.00     0.050 A 
ATOM     15  C   UNL     1     -22.191 -40.888  22.304  1.00  0.00     0.166 A 
ATOM     16  C   UNL     1     -20.227 -38.961  21.755  1.00  0.00     0.004 A 
ATOM     17  C   UNL     1     -19.916 -40.088  22.518  1.00  0.00     0.010 A 
BRANCH  13  18
ATOM     18  O   UNL     1     -23.701 -39.594  20.898  1.00  0.00    -0.493 OA
ATOM     19  C   UNL     1     -23.758 -40.290  19.649  1.00  0.00     0.278 C 
ENDBRANCH  13  18
BRANCH  15  20
ATOM     20  O   UNL     1     -23.139 -41.821  22.635  1.00  0.00    -0.492 OA
ATOM     21  C   UNL     1     -24.095 -41.365  23.590  1.00  0.00     0.278 C 
ENDBRANCH  15  20
ENDBRANCH   8  12
BRANCH  10  22
ATOM     22  C   UNL     1     -16.907 -42.902  24.719  1.00  0.00     0.004 A 
ATOM     23  C   UNL     1     -16.292 -43.791  23.829  1.00  0.00     0.049 A 
ATOM     24  C   UNL     1     -16.150 -42.304  25.730  1.00  0.00     0.049 A 
ATOM     25  C   UNL     1     -14.935 -44.070  23.960  1.00  0.00     0.126 A 
ATOM     26  C   UNL     1     -14.794 -42.601  25.837  1.00  0.00     0.126 A 
ATOM     27  C   UNL     1     -14.175 -43.481  24.960  1.00  0.00     0.078 A 
ATOM     28  F   UNL     1     -14.351 -44.922  23.108  1.00  0.00    -0.207 F 
ATOM     29  F   UNL     1     -14.073 -42.025  26.807  1.00  0.00    -0.207 F 
ENDBRANCH  10  22
ENDBRANCH   1   7
BRANCH   4  30
ATOM     30  S   UNL     1     -24.904 -41.039  28.837  1.00  0.00     0.238 S 
ATOM     31  O   UNL     1     -26.165 -41.230  28.157  1.00  0.00    -0.207 OA
ATOM     32  O   UNL     1     -24.605 -41.668  30.102  1.00  0.00    -0.207 OA
BRANCH  30  33
ATOM     33  N   UNL     1     -24.776 -39.386  29.103  1.00  0.00    -0.225 NA
ATOM     34  H   UNL     1     -25.701 -38.989  29.266  1.00  0.00     0.137 HD
ATOM     35  H   UNL     1     -24.108 -39.207  29.852  1.00  0.00     0.137 HD
ENDBRANCH  30  33
ENDBRANCH   4  30
TORSDOF 7
ENDMDL
MODEL 8
REMARK VINA RESULT:    -8.014      3.748      6.287
REMARK INTER + INTRA:         -12.433
REMARK INTER:                 -11.053
REMARK INTRA:                  -1.380
REMARK UNBOUND:                -1.373
REMARK SMILES COc1cccc([C@H]2CC(c3cc(F)cc(F)c3)=NN2c2ccc(S(N)(=O)=O)cc2)c1OC
REMARK SMILES IDX 21 1 22 2 23 3 24 4 29 5 30 6 20 7 8 8 9 9 10 10 19 11 7 12
REMARK SMILES IDX 3 13 4 14 31 15 5 16 6 17 2 18 1 19 32 20 33 21 11 22 12 23
REMARK SMILES IDX 18 24 13 25 16 26 15 27 14 28 17 29 25 30 27 31 28 32 26 33
REMARK H PARENT 26 34 26 35
ROOT
ATOM      1  C   UNL     1     -21.475 -43.501  21.450  1.00  0.00     0.060 A 
ATOM      2  C   UNL     1     -21.466 -43.563  20.047  1.00  0.00     0.029 A 
ATOM      3  C   UNL     1     -22.311 -44.429  19.340  1.00  0.00     0.024 A 
ATOM      4  C   UNL     1     -23.193 -45.253  20.035  1.00  0.00     0.082 A 
ATOM      5  C   UNL     1     -23.222 -45.231  21.426  1.00  0.00     0.024 A 
ATOM      6  C   UNL     1     -22.373 -44.359  22.116  1.00  0.00     0.029 A 
ENDROOT
BRANCH   1   7
ATOM      7  N   UNL     1     -20.649 -42.643  22.175  1.00  0.00    -0.257 N 
ATOM      8  C   UNL     1     -20.239 -41.290  21.780  1.00  0.00     0.148 C 
ATOM      9  C   UNL     1     -19.072 -40.981  22.721  1.00  0.00     0.091 C 
ATOM     10  C   UNL     1     -19.088 -42.208  23.588  1.00  0.00     0.071 C 
ATOM     11  N   UNL     1     -19.936 -43.125  23.239  1.00  0.00    -0.176 NA
BRANCH   8  12
ATOM     12  C   UNL     1     -21.351 -40.252  21.860  1.00  0.00     0.023 A 
ATOM     13  C   UNL     1     -22.727 -38.456  20.963  1.00  0.00     0.161 A 
ATOM     14  C   UNL     1     -23.404 -38.344  22.177  1.00  0.00     0.050 A 
ATOM     15  C   UNL     1     -21.746 -39.444  20.775  1.00  0.00     0.166 A 
ATOM     16  C   UNL     1     -23.065 -39.175  23.237  1.00  0.00     0.004 A 
ATOM     17  C   UNL     1     -22.042 -40.113  23.083  1.00  0.00     0.010 A 
BRANCH  13  18
ATOM     18  O   UNL     1     -23.088 -37.575  19.975  1.00  0.00    -0.493 OA
ATOM     19  C   UNL     1     -24.505 -37.376  19.999  1.00  0.00     0.278 C 
ENDBRANCH  13  18
BRANCH  15  20
ATOM     20  O   UNL     1     -21.117 -39.637  19.572  1.00  0.00    -0.492 OA
ATOM     21  C   UNL     1     -19.897 -38.913  19.431  1.00  0.00     0.278 C 
ENDBRANCH  15  20
ENDBRANCH   8  12
BRANCH  10  22
ATOM     22  C   UNL     1     -18.177 -42.359  24.745  1.00  0.00     0.004 A 
ATOM     23  C   UNL     1     -16.821 -42.619  24.510  1.00  0.00     0.049 A 
ATOM     24  C   UNL     1     -18.642 -42.254  26.059  1.00  0.00     0.049 A 
ATOM     25  C   UNL     1     -15.951 -42.769  25.586  1.00  0.00     0.126 A 
ATOM     26  C   UNL     1     -17.748 -42.409  27.116  1.00  0.00     0.126 A 
ATOM     27  C   UNL     1     -16.403 -42.667  26.893  1.00  0.00     0.078 A 
ATOM     28  F   UNL     1     -14.656 -43.020  25.356  1.00  0.00    -0.207 F 
ATOM     29  F   UNL     1     -18.198 -42.307  28.372  1.00  0.00    -0.207 F 
ENDBRANCH  10  22
ENDBRANCH   1   7
BRANCH   4  30
ATOM     30  S   UNL     1     -24.238 -46.369  19.153  1.00  0.00     0.238 S 
ATOM     31  O   UNL     1     -24.671 -47.423  20.042  1.00  0.00    -0.207 OA
ATOM     32  O   UNL     1     -25.163 -45.619  18.336  1.00  0.00    -0.207 OA
BRANCH  30  33
ATOM     33  N   UNL     1     -23.160 -47.089  18.085  1.00  0.00    -0.225 NA
ATOM     34  H   UNL     1     -23.161 -48.100  18.221  1.00  0.00     0.137 HD
ATOM     35  H   UNL     1     -23.370 -46.797  17.132  1.00  0.00     0.137 HD
ENDBRANCH  30  33
ENDBRANCH   4  30
TORSDOF 7
ENDMDL
MODEL 9
REMARK VINA RESULT:    -7.911      1.978      2.923
REMARK INTER + INTRA:         -12.290
REMARK INTER:                 -10.677
REMARK INTRA:                  -1.612
REMARK UNBOUND:                -1.373
REMARK SMILES COc1cccc([C@H]2CC(c3cc(F)cc(F)c3)=NN2c2ccc(S(N)(=O)=O)cc2)c1OC
REMARK SMILES IDX 21 1 22 2 23 3 24 4 29 5 30 6 20 7 8 8 9 9 10 10 19 11 7 12
REMARK SMILES IDX 3 13 4 14 31 15 5 16 6 17 2 18 1 19 32 20 33 21 11 22 12 23
REMARK SMILES IDX 18 24 13 25 16 26 15 27 14 28 17 29 25 30 27 31 28 32 26 33
REMARK H PARENT 26 34 26 35
ROOT
ATOM      1  C   UNL     1     -21.468 -40.634  23.073  1.00  0.00     0.060 A 
ATOM      2  C   UNL     1     -21.330 -39.305  22.641  1.00  0.00     0.029 A 
ATOM      3  C   UNL     1     -21.798 -38.882  21.390  1.00  0.00     0.024 A 
ATOM      4  C   UNL     1     -22.427 -39.794  20.544  1.00  0.00     0.082 A 
ATOM      5  C   UNL     1     -22.570 -41.123  20.930  1.00  0.00     0.024 A 
ATOM      6  C   UNL     1     -22.097 -41.527  22.184  1.00  0.00     0.029 A 
ENDROOT
BRANCH   1   7
ATOM      7  N   UNL     1     -21.015 -41.077  24.316  1.00  0.00    -0.257 N 
ATOM      8  C   UNL     1     -21.689 -40.884  25.606  1.00  0.00     0.148 C 
ATOM      9  C   UNL     1     -20.601 -41.215  26.630  1.00  0.00     0.091 C 
ATOM     10  C   UNL     1     -19.491 -41.656  25.717  1.00  0.00     0.071 C 
ATOM     11  N   UNL     1     -19.731 -41.528  24.449  1.00  0.00    -0.176 NA
BRANCH   8  12
ATOM     12  C   UNL     1     -22.945 -41.727  25.787  1.00  0.00     0.023 A 
ATOM     13  C   UNL     1     -25.344 -42.040  26.046  1.00  0.00     0.161 A 
ATOM     14  C   UNL     1     -25.170 -43.417  26.175  1.00  0.00     0.050 A 
ATOM     15  C   UNL     1     -24.250 -41.196  25.791  1.00  0.00     0.166 A 
ATOM     16  C   UNL     1     -23.894 -43.961  26.113  1.00  0.00     0.004 A 
ATOM     17  C   UNL     1     -22.791 -43.123  25.931  1.00  0.00     0.010 A 
BRANCH  13  18
ATOM     18  O   UNL     1     -26.629 -41.570  26.157  1.00  0.00    -0.493 OA
ATOM     19  C   UNL     1     -27.189 -41.987  27.405  1.00  0.00     0.278 C 
ENDBRANCH  13  18
BRANCH  15  20
ATOM     20  O   UNL     1     -24.392 -39.850  25.578  1.00  0.00    -0.492 OA
ATOM     21  C   UNL     1     -24.763 -39.508  24.243  1.00  0.00     0.278 C 
ENDBRANCH  15  20
ENDBRANCH   8  12
BRANCH  10  22
ATOM     22  C   UNL     1     -18.208 -42.176  26.241  1.00  0.00     0.004 A 
ATOM     23  C   UNL     1     -17.213 -42.563  25.335  1.00  0.00     0.049 A 
ATOM     24  C   UNL     1     -17.974 -42.293  27.614  1.00  0.00     0.049 A 
ATOM     25  C   UNL     1     -16.003 -43.059  25.810  1.00  0.00     0.126 A 
ATOM     26  C   UNL     1     -16.753 -42.793  28.060  1.00  0.00     0.126 A 
ATOM     27  C   UNL     1     -15.761 -43.179  27.170  1.00  0.00     0.078 A 
ATOM     28  F   UNL     1     -15.056 -43.430  24.939  1.00  0.00    -0.207 F 
ATOM     29  F   UNL     1     -16.534 -42.902  29.377  1.00  0.00    -0.207 F 
ENDBRANCH  10  22
ENDBRANCH   1   7
BRANCH   4  30
ATOM     30  S   UNL     1     -22.992 -39.276  18.953  1.00  0.00     0.238 S 
ATOM     31  O   UNL     1     -23.199 -40.437  18.118  1.00  0.00    -0.207 OA
ATOM     32  O   UNL     1     -23.994 -38.249  19.110  1.00  0.00    -0.207 OA
BRANCH  30  33
ATOM     33  N   UNL     1     -21.635 -38.505  18.334  1.00  0.00    -0.225 NA
ATOM     34  H   UNL     1     -21.839 -37.518  18.176  1.00  0.00     0.137 HD
ATOM     35  H   UNL     1     -20.834 -38.672  18.942  1.00  0.00     0.137 HD
ENDBRANCH  30  33
ENDBRANCH   4  30
TORSDOF 7
ENDMDL
