MODEL 1
REMARK VINA RESULT:   -11.760      0.000      0.000
REMARK INTER + INTRA:         -16.735
REMARK INTER:                 -15.885
REMARK INTRA:                  -0.850
REMARK UNBOUND:                -0.850
REMARK SMILES COc1cc2c(cc1OC)C(=O)[C@@H](C[C@H]1CC[N@@H+](Cc3ccccc3)CC1)C2
REMARK SMILES IDX 14 1 15 2 17 3 18 4 16 5 26 6 27 7 19 9 20 10 21 11 25 12
REMARK SMILES IDX 22 13 24 14 23 15 13 16 11 17 28 18 6 19 5 20 7 21 4 22 8 23
REMARK SMILES IDX 3 24 12 25 9 26 10 27 2 28 1 29
REMARK H PARENT 18 8
ROOT
ATOM      1  C   UNL     1     -13.831 -44.912  26.850  1.00  0.00     0.016 C 
ENDROOT
BRANCH   1   2
ATOM      2  C   UNL     1     -12.368 -45.095  27.309  1.00  0.00     0.001 C 
ATOM      3  C   UNL     1     -10.478 -44.051  28.628  1.00  0.00     0.262 C 
ATOM      4  N   UNL     1     -10.272 -45.354  29.354  1.00  0.00    -0.331 N 
ATOM      5  C   UNL     1     -11.926 -43.907  28.178  1.00  0.00     0.065 C 
ATOM      6  C   UNL     1     -10.674 -46.538  28.508  1.00  0.00     0.262 C 
ATOM      7  C   UNL     1     -12.123 -46.415  28.054  1.00  0.00     0.065 C 
ATOM      8  H   UNL     1      -9.256 -45.451  29.478  1.00  0.00     0.348 HD
BRANCH   4   9
ATOM      9  C   UNL     1     -10.826 -45.354  30.764  1.00  0.00     0.299 C 
BRANCH   9  10
ATOM     10  C   UNL     1     -10.037 -44.490  31.709  1.00  0.00     0.006 A 
ATOM     11  C   UNL     1      -8.636 -44.554  31.733  1.00  0.00     0.009 A 
ATOM     12  C   UNL     1     -10.691 -43.590  32.566  1.00  0.00     0.009 A 
ATOM     13  C   UNL     1      -7.905 -43.731  32.591  1.00  0.00     0.001 A 
ATOM     14  C   UNL     1      -9.956 -42.769  33.421  1.00  0.00     0.001 A 
ATOM     15  C   UNL     1      -8.565 -42.839  33.432  1.00  0.00     0.000 A 
ENDBRANCH   9  10
ENDBRANCH   4   9
ENDBRANCH   1   2
BRANCH   1  16
ATOM     16  C   UNL     1     -14.261 -43.471  26.534  1.00  0.00     0.066 C 
ATOM     17  C   UNL     1     -15.613 -43.119  27.130  1.00  0.00     0.166 C 
ATOM     18  C   UNL     1     -14.443 -43.245  25.010  1.00  0.00     0.048 C 
ATOM     19  C   UNL     1     -16.543 -42.764  26.069  1.00  0.00     0.025 A 
ATOM     20  C   UNL     1     -15.877 -42.849  24.857  1.00  0.00    -0.033 A 
ATOM     21  C   UNL     1     -17.874 -42.406  26.182  1.00  0.00     0.062 A 
ATOM     22  C   UNL     1     -16.553 -42.563  23.679  1.00  0.00     0.055 A 
ATOM     23  C   UNL     1     -18.568 -42.117  25.005  1.00  0.00     0.161 A 
ATOM     24  C   UNL     1     -17.906 -42.196  23.747  1.00  0.00     0.161 A 
ATOM     25  O   UNL     1     -15.897 -43.128  28.317  1.00  0.00    -0.294 OA
BRANCH  23  26
ATOM     26  O   UNL     1     -19.891 -41.752  24.959  1.00  0.00    -0.493 OA
ATOM     27  C   UNL     1     -20.482 -41.253  26.151  1.00  0.00     0.278 C 
ENDBRANCH  23  26
BRANCH  24  28
ATOM     28  O   UNL     1     -18.677 -41.897  22.651  1.00  0.00    -0.493 OA
ATOM     29  C   UNL     1     -18.429 -40.673  21.975  1.00  0.00     0.278 C 
ENDBRANCH  24  28
ENDBRANCH   1  16
TORSDOF 6
ENDMDL
MODEL 2
REMARK VINA RESULT:   -10.905      1.120      2.403
REMARK INTER + INTRA:         -15.580
REMARK INTER:                 -14.918
REMARK INTRA:                  -0.662
REMARK UNBOUND:                -0.850
REMARK SMILES COc1cc2c(cc1OC)C(=O)[C@@H](C[C@H]1CC[N@@H+](Cc3ccccc3)CC1)C2
REMARK SMILES IDX 14 1 15 2 17 3 18 4 16 5 26 6 27 7 19 9 20 10 21 11 25 12
REMARK SMILES IDX 22 13 24 14 23 15 13 16 11 17 28 18 6 19 5 20 7 21 4 22 8 23
REMARK SMILES IDX 3 24 12 25 9 26 10 27 2 28 1 29
REMARK H PARENT 18 8
ROOT
ATOM      1  C   UNL     1     -13.207 -42.780  26.735  1.00  0.00     0.016 C 
ENDROOT
BRANCH   1   2
ATOM      2  C   UNL     1     -11.994 -43.569  27.276  1.00  0.00     0.001 C 
ATOM      3  C   UNL     1      -9.956 -43.442  28.770  1.00  0.00     0.262 C 
ATOM      4  N   UNL     1     -10.369 -44.728  29.434  1.00  0.00    -0.331 N 
ATOM      5  C   UNL     1     -11.172 -42.694  28.237  1.00  0.00     0.065 C 
ATOM      6  C   UNL     1     -11.155 -45.616  28.499  1.00  0.00     0.262 C 
ATOM      7  C   UNL     1     -12.381 -44.888  27.960  1.00  0.00     0.065 C 
ATOM      8  H   UNL     1      -9.499 -45.244  29.618  1.00  0.00     0.348 HD
BRANCH   4   9
ATOM      9  C   UNL     1     -10.986 -44.531  30.803  1.00  0.00     0.299 C 
BRANCH   9  10
ATOM     10  C   UNL     1     -10.038 -43.918  31.796  1.00  0.00     0.006 A 
ATOM     11  C   UNL     1     -10.513 -43.071  32.808  1.00  0.00     0.009 A 
ATOM     12  C   UNL     1      -8.663 -44.202  31.738  1.00  0.00     0.009 A 
ATOM     13  C   UNL     1      -9.635 -42.525  33.745  1.00  0.00     0.001 A 
ATOM     14  C   UNL     1      -7.789 -43.654  32.677  1.00  0.00     0.001 A 
ATOM     15  C   UNL     1      -8.276 -42.818  33.680  1.00  0.00     0.000 A 
ENDBRANCH   9  10
ENDBRANCH   4   9
ENDBRANCH   1   2
BRANCH   1  16
ATOM     16  C   UNL     1     -14.423 -43.622  26.317  1.00  0.00     0.066 C 
ATOM     17  C   UNL     1     -14.865 -43.344  24.890  1.00  0.00     0.166 C 
ATOM     18  C   UNL     1     -15.673 -43.296  27.177  1.00  0.00     0.048 C 
ATOM     19  C   UNL     1     -16.232 -42.846  24.886  1.00  0.00     0.025 A 
ATOM     20  C   UNL     1     -16.689 -42.807  26.194  1.00  0.00    -0.033 A 
ATOM     21  C   UNL     1     -16.996 -42.454  23.802  1.00  0.00     0.062 A 
ATOM     22  C   UNL     1     -17.974 -42.358  26.461  1.00  0.00     0.055 A 
ATOM     23  C   UNL     1     -18.292 -41.998  24.055  1.00  0.00     0.161 A 
ATOM     24  C   UNL     1     -18.785 -41.949  25.390  1.00  0.00     0.161 A 
ATOM     25  O   UNL     1     -14.190 -43.505  23.887  1.00  0.00    -0.294 OA
BRANCH  23  26
ATOM     26  O   UNL     1     -19.165 -41.573  23.083  1.00  0.00    -0.493 OA
ATOM     27  C   UNL     1     -18.662 -40.705  22.076  1.00  0.00     0.278 C 
ENDBRANCH  23  26
BRANCH  24  28
ATOM     28  O   UNL     1     -20.068 -41.483  25.532  1.00  0.00    -0.493 OA
ATOM     29  C   UNL     1     -20.555 -41.259  26.846  1.00  0.00     0.278 C 
ENDBRANCH  24  28
ENDBRANCH   1  16
TORSDOF 6
ENDMDL
MODEL 3
REMARK VINA RESULT:   -10.405      1.438      2.579
REMARK INTER + INTRA:         -14.905
REMARK INTER:                 -14.062
REMARK INTRA:                  -0.843
REMARK UNBOUND:                -0.850
REMARK SMILES COc1cc2c(cc1OC)C(=O)[C@@H](C[C@H]1CC[N@@H+](Cc3ccccc3)CC1)C2
REMARK SMILES IDX 14 1 15 2 17 3 18 4 16 5 26 6 27 7 19 9 20 10 21 11 25 12
REMARK SMILES IDX 22 13 24 14 23 15 13 16 11 17 28 18 6 19 5 20 7 21 4 22 8 23
REMARK SMILES IDX 3 24 12 25 9 26 10 27 2 28 1 29
REMARK H PARENT 18 8
ROOT
ATOM      1  C   UNL     1     -14.374 -42.653  26.187  1.00  0.00     0.016 C 
ENDROOT
BRANCH   1   2
ATOM      2  C   UNL     1     -13.206 -43.554  26.644  1.00  0.00     0.001 C 
ATOM      3  C   UNL     1     -11.119 -43.653  28.072  1.00  0.00     0.262 C 
ATOM      4  N   UNL     1     -11.604 -44.941  28.681  1.00  0.00    -0.331 N 
ATOM      5  C   UNL     1     -12.293 -42.794  27.620  1.00  0.00     0.065 C 
ATOM      6  C   UNL     1     -12.481 -45.719  27.729  1.00  0.00     0.262 C 
ATOM      7  C   UNL     1     -13.666 -44.877  27.271  1.00  0.00     0.065 C 
ATOM      8  H   UNL     1     -10.768 -45.527  28.808  1.00  0.00     0.348 HD
BRANCH   4   9
ATOM      9  C   UNL     1     -12.163 -44.776  30.079  1.00  0.00     0.299 C 
BRANCH   9  10
ATOM     10  C   UNL     1     -11.126 -44.353  31.084  1.00  0.00     0.006 A 
ATOM     11  C   UNL     1      -9.887 -45.008  31.149  1.00  0.00     0.009 A 
ATOM     12  C   UNL     1     -11.376 -43.282  31.958  1.00  0.00     0.009 A 
ATOM     13  C   UNL     1      -8.917 -44.596  32.063  1.00  0.00     0.001 A 
ATOM     14  C   UNL     1     -10.402 -42.875  32.870  1.00  0.00     0.001 A 
ATOM     15  C   UNL     1      -9.174 -43.530  32.920  1.00  0.00     0.000 A 
ENDBRANCH   9  10
ENDBRANCH   4   9
ENDBRANCH   1   2
BRANCH   1  16
ATOM     16  C   UNL     1     -15.674 -43.380  25.807  1.00  0.00     0.066 C 
ATOM     17  C   UNL     1     -16.013 -43.242  24.333  1.00  0.00     0.166 C 
ATOM     18  C   UNL     1     -16.904 -42.783  26.541  1.00  0.00     0.048 C 
ATOM     19  C   UNL     1     -17.298 -42.578  24.182  1.00  0.00     0.025 A 
ATOM     20  C   UNL     1     -17.801 -42.305  25.444  1.00  0.00    -0.033 A 
ATOM     21  C   UNL     1     -17.955 -42.241  23.013  1.00  0.00     0.062 A 
ATOM     22  C   UNL     1     -19.024 -41.662  25.574  1.00  0.00     0.055 A 
ATOM     23  C   UNL     1     -19.187 -41.592  23.127  1.00  0.00     0.161 A 
ATOM     24  C   UNL     1     -19.725 -41.301  24.413  1.00  0.00     0.161 A 
ATOM     25  O   UNL     1     -15.323 -43.623  23.401  1.00  0.00    -0.294 OA
BRANCH  23  26
ATOM     26  O   UNL     1     -19.952 -41.193  22.058  1.00  0.00    -0.493 OA
ATOM     27  C   UNL     1     -19.410 -40.209  21.187  1.00  0.00     0.278 C 
ENDBRANCH  23  26
BRANCH  24  28
ATOM     28  O   UNL     1     -20.938 -40.658  24.416  1.00  0.00    -0.493 OA
ATOM     29  C   UNL     1     -21.847 -40.955  25.465  1.00  0.00     0.278 C 
ENDBRANCH  24  28
ENDBRANCH   1  16
TORSDOF 6
ENDMDL
MODEL 4
REMARK VINA RESULT:   -10.235      1.544      2.064
REMARK INTER + INTRA:         -14.675
REMARK INTER:                 -14.192
REMARK INTRA:                  -0.483
REMARK UNBOUND:                -0.850
REMARK SMILES COc1cc2c(cc1OC)C(=O)[C@@H](C[C@H]1CC[N@@H+](Cc3ccccc3)CC1)C2
REMARK SMILES IDX 14 1 15 2 17 3 18 4 16 5 26 6 27 7 19 9 20 10 21 11 25 12
REMARK SMILES IDX 22 13 24 14 23 15 13 16 11 17 28 18 6 19 5 20 7 21 4 22 8 23
REMARK SMILES IDX 3 24 12 25 9 26 10 27 2 28 1 29
REMARK H PARENT 18 8
ROOT
ATOM      1  C   UNL     1     -14.177 -44.301  25.770  1.00  0.00     0.016 C 
ENDROOT
BRANCH   1   2
ATOM      2  C   UNL     1     -13.735 -44.711  27.191  1.00  0.00     0.001 C 
ATOM      3  C   UNL     1     -12.615 -46.524  28.556  1.00  0.00     0.262 C 
ATOM      4  N   UNL     1     -11.727 -45.489  29.193  1.00  0.00    -0.331 N 
ATOM      5  C   UNL     1     -13.044 -46.084  27.162  1.00  0.00     0.065 C 
ATOM      6  C   UNL     1     -12.397 -44.137  29.257  1.00  0.00     0.262 C 
ATOM      7  C   UNL     1     -12.827 -43.676  27.870  1.00  0.00     0.065 C 
ATOM      8  H   UNL     1     -11.617 -45.775  30.174  1.00  0.00     0.348 HD
BRANCH   4   9
ATOM      9  C   UNL     1     -10.316 -45.480  28.641  1.00  0.00     0.299 C 
BRANCH   9  10
ATOM     10  C   UNL     1      -9.269 -45.287  29.703  1.00  0.00     0.006 A 
ATOM     11  C   UNL     1      -8.698 -44.024  29.920  1.00  0.00     0.009 A 
ATOM     12  C   UNL     1      -8.861 -46.363  30.507  1.00  0.00     0.009 A 
ATOM     13  C   UNL     1      -7.746 -43.840  30.923  1.00  0.00     0.001 A 
ATOM     14  C   UNL     1      -7.910 -46.175  31.510  1.00  0.00     0.001 A 
ATOM     15  C   UNL     1      -7.355 -44.915  31.718  1.00  0.00     0.000 A 
ENDBRANCH   9  10
ENDBRANCH   4   9
ENDBRANCH   1   2
BRANCH   1  16
ATOM     16  C   UNL     1     -14.845 -42.922  25.646  1.00  0.00     0.066 C 
ATOM     17  C   UNL     1     -16.068 -42.781  26.536  1.00  0.00     0.166 C 
ATOM     18  C   UNL     1     -15.382 -42.668  24.213  1.00  0.00     0.048 C 
ATOM     19  C   UNL     1     -17.244 -42.520  25.721  1.00  0.00     0.025 A 
ATOM     20  C   UNL     1     -16.853 -42.468  24.393  1.00  0.00    -0.033 A 
ATOM     21  C   UNL     1     -18.552 -42.353  26.136  1.00  0.00     0.062 A 
ATOM     22  C   UNL     1     -17.801 -42.236  23.406  1.00  0.00     0.055 A 
ATOM     23  C   UNL     1     -19.518 -42.120  25.154  1.00  0.00     0.161 A 
ATOM     24  C   UNL     1     -19.142 -42.062  23.782  1.00  0.00     0.161 A 
ATOM     25  O   UNL     1     -16.082 -42.872  27.754  1.00  0.00    -0.294 OA
BRANCH  23  26
ATOM     26  O   UNL     1     -20.855 -41.939  25.412  1.00  0.00    -0.493 OA
ATOM     27  C   UNL     1     -21.215 -40.979  26.396  1.00  0.00     0.278 C 
ENDBRANCH  23  26
BRANCH  24  28
ATOM     28  O   UNL     1     -20.165 -41.832  22.895  1.00  0.00    -0.493 OA
ATOM     29  C   UNL     1     -20.226 -40.563  22.262  1.00  0.00     0.278 C 
ENDBRANCH  24  28
ENDBRANCH   1  16
TORSDOF 6
ENDMDL
MODEL 5
REMARK VINA RESULT:    -9.884      2.500      4.580
REMARK INTER + INTRA:         -14.201
REMARK INTER:                 -13.420
REMARK INTRA:                  -0.782
REMARK UNBOUND:                -0.850
REMARK SMILES COc1cc2c(cc1OC)C(=O)[C@@H](C[C@H]1CC[N@@H+](Cc3ccccc3)CC1)C2
REMARK SMILES IDX 14 1 15 2 17 3 18 4 16 5 26 6 27 7 19 9 20 10 21 11 25 12
REMARK SMILES IDX 22 13 24 14 23 15 13 16 11 17 28 18 6 19 5 20 7 21 4 22 8 23
REMARK SMILES IDX 3 24 12 25 9 26 10 27 2 28 1 29
REMARK H PARENT 18 8
ROOT
ATOM      1  C   UNL     1     -15.592 -42.267  24.384  1.00  0.00     0.016 C 
ENDROOT
BRANCH   1   2
ATOM      2  C   UNL     1     -15.394 -43.363  25.452  1.00  0.00     0.001 C 
ATOM      3  C   UNL     1     -13.966 -45.338  26.136  1.00  0.00     0.262 C 
ATOM      4  N   UNL     1     -13.842 -44.761  27.521  1.00  0.00    -0.331 N 
ATOM      5  C   UNL     1     -14.173 -44.233  25.107  1.00  0.00     0.065 C 
ATOM      6  C   UNL     1     -15.043 -43.925  27.892  1.00  0.00     0.262 C 
ATOM      7  C   UNL     1     -15.263 -42.809  26.878  1.00  0.00     0.065 C 
ATOM      8  H   UNL     1     -13.869 -45.563  28.164  1.00  0.00     0.348 HD
BRANCH   4   9
ATOM      9  C   UNL     1     -12.500 -44.111  27.786  1.00  0.00     0.299 C 
BRANCH   9  10
ATOM     10  C   UNL     1     -11.691 -44.830  28.831  1.00  0.00     0.006 A 
ATOM     11  C   UNL     1     -11.848 -44.523  30.190  1.00  0.00     0.009 A 
ATOM     12  C   UNL     1     -10.782 -45.835  28.461  1.00  0.00     0.009 A 
ATOM     13  C   UNL     1     -11.117 -45.211  31.160  1.00  0.00     0.001 A 
ATOM     14  C   UNL     1     -10.053 -46.519  29.434  1.00  0.00     0.001 A 
ATOM     15  C   UNL     1     -10.222 -46.209  30.781  1.00  0.00     0.000 A 
ENDBRANCH   9  10
ENDBRANCH   4   9
ENDBRANCH   1   2
BRANCH   1  16
ATOM     16  C   UNL     1     -16.630 -42.573  23.292  1.00  0.00     0.066 C 
ATOM     17  C   UNL     1     -16.775 -41.442  22.287  1.00  0.00     0.166 C 
ATOM     18  C   UNL     1     -18.054 -42.746  23.882  1.00  0.00     0.048 C 
ATOM     19  C   UNL     1     -18.140 -40.940  22.303  1.00  0.00     0.025 A 
ATOM     20  C   UNL     1     -18.867 -41.678  23.224  1.00  0.00    -0.033 A 
ATOM     21  C   UNL     1     -18.680 -39.905  21.562  1.00  0.00     0.062 A 
ATOM     22  C   UNL     1     -20.208 -41.387  23.433  1.00  0.00     0.055 A 
ATOM     23  C   UNL     1     -20.028 -39.600  21.762  1.00  0.00     0.161 A 
ATOM     24  C   UNL     1     -20.797 -40.344  22.702  1.00  0.00     0.161 A 
ATOM     25  O   UNL     1     -15.890 -41.005  21.569  1.00  0.00    -0.294 OA
BRANCH  23  26
ATOM     26  O   UNL     1     -20.699 -38.599  21.103  1.00  0.00    -0.493 OA
ATOM     27  C   UNL     1     -20.714 -38.635  19.682  1.00  0.00     0.278 C 
ENDBRANCH  23  26
BRANCH  24  28
ATOM     28  O   UNL     1     -22.110 -39.963  22.827  1.00  0.00    -0.493 OA
ATOM     29  C   UNL     1     -23.112 -40.946  22.618  1.00  0.00     0.278 C 
ENDBRANCH  24  28
ENDBRANCH   1  16
TORSDOF 6
ENDMDL
MODEL 6
REMARK VINA RESULT:    -9.363      2.917      5.791
REMARK INTER + INTRA:         -13.498
REMARK INTER:                 -12.741
REMARK INTRA:                  -0.756
REMARK UNBOUND:                -0.850
REMARK SMILES COc1cc2c(cc1OC)C(=O)[C@@H](C[C@H]1CC[N@@H+](Cc3ccccc3)CC1)C2
REMARK SMILES IDX 14 1 15 2 17 3 18 4 16 5 26 6 27 7 19 9 20 10 21 11 25 12
REMARK SMILES IDX 22 13 24 14 23 15 13 16 11 17 28 18 6 19 5 20 7 21 4 22 8 23
REMARK SMILES IDX 3 24 12 25 9 26 10 27 2 28 1 29
REMARK H PARENT 18 8
ROOT
ATOM      1  C   UNL     1     -17.936 -43.051  23.826  1.00  0.00     0.016 C 
ENDROOT
BRANCH   1   2
ATOM      2  C   UNL     1     -16.569 -42.666  24.432  1.00  0.00     0.001 C 
ATOM      3  C   UNL     1     -15.303 -42.306  26.593  1.00  0.00     0.262 C 
ATOM      4  N   UNL     1     -14.192 -43.183  26.082  1.00  0.00    -0.331 N 
ATOM      5  C   UNL     1     -16.635 -42.702  25.968  1.00  0.00     0.065 C 
ATOM      6  C   UNL     1     -14.091 -43.143  24.576  1.00  0.00     0.262 C 
ATOM      7  C   UNL     1     -15.412 -43.543  23.931  1.00  0.00     0.065 C 
ATOM      8  H   UNL     1     -13.318 -42.757  26.417  1.00  0.00     0.348 HD
BRANCH   4   9
ATOM      9  C   UNL     1     -14.190 -44.571  26.689  1.00  0.00     0.299 C 
BRANCH   9  10
ATOM     10  C   UNL     1     -12.889 -44.922  27.357  1.00  0.00     0.006 A 
ATOM     11  C   UNL     1     -12.072 -43.919  27.898  1.00  0.00     0.009 A 
ATOM     12  C   UNL     1     -12.484 -46.262  27.469  1.00  0.00     0.009 A 
ATOM     13  C   UNL     1     -10.878 -44.248  28.542  1.00  0.00     0.001 A 
ATOM     14  C   UNL     1     -11.291 -46.587  28.114  1.00  0.00     0.001 A 
ATOM     15  C   UNL     1     -10.491 -45.581  28.651  1.00  0.00     0.000 A 
ENDBRANCH   9  10
ENDBRANCH   4   9
ENDBRANCH   1   2
BRANCH   1  16
ATOM     16  C   UNL     1     -19.007 -41.947  23.830  1.00  0.00     0.066 C 
ATOM     17  C   UNL     1     -20.374 -42.456  23.405  1.00  0.00     0.166 C 
ATOM     18  C   UNL     1     -18.681 -40.824  22.811  1.00  0.00     0.048 C 
ATOM     19  C   UNL     1     -20.813 -41.749  22.211  1.00  0.00     0.025 A 
ATOM     20  C   UNL     1     -19.840 -40.825  21.866  1.00  0.00    -0.033 A 
ATOM     21  C   UNL     1     -21.982 -41.926  21.494  1.00  0.00     0.062 A 
ATOM     22  C   UNL     1     -20.020 -40.022  20.749  1.00  0.00     0.055 A 
ATOM     23  C   UNL     1     -22.177 -41.125  20.366  1.00  0.00     0.161 A 
ATOM     24  C   UNL     1     -21.191 -40.169  19.990  1.00  0.00     0.161 A 
ATOM     25  O   UNL     1     -21.020 -43.327  23.964  1.00  0.00    -0.294 OA
BRANCH  23  26
ATOM     26  O   UNL     1     -23.283 -41.190  19.555  1.00  0.00    -0.493 OA
ATOM     27  C   UNL     1     -23.924 -42.451  19.408  1.00  0.00     0.278 C 
ENDBRANCH  23  26
BRANCH  24  28
ATOM     28  O   UNL     1     -21.476 -39.435  18.865  1.00  0.00    -0.493 OA
ATOM     29  C   UNL     1     -21.487 -38.020  18.977  1.00  0.00     0.278 C 
ENDBRANCH  24  28
ENDBRANCH   1  16
TORSDOF 6
ENDMDL
MODEL 7
REMARK VINA RESULT:    -9.223      3.599      9.862
REMARK INTER + INTRA:         -13.309
REMARK INTER:                 -12.798
REMARK INTRA:                  -0.511
REMARK UNBOUND:                -0.850
REMARK SMILES COc1cc2c(cc1OC)C(=O)[C@@H](C[C@H]1CC[N@@H+](Cc3ccccc3)CC1)C2
REMARK SMILES IDX 14 1 15 2 17 3 18 4 16 5 26 6 27 7 19 9 20 10 21 11 25 12
REMARK SMILES IDX 22 13 24 14 23 15 13 16 11 17 28 18 6 19 5 20 7 21 4 22 8 23
REMARK SMILES IDX 3 24 12 25 9 26 10 27 2 28 1 29
REMARK H PARENT 18 8
ROOT
ATOM      1  C   UNL     1     -17.195 -42.949  24.670  1.00  0.00     0.016 C 
ENDROOT
BRANCH   1   2
ATOM      2  C   UNL     1     -18.358 -42.050  25.141  1.00  0.00     0.001 C 
ATOM      3  C   UNL     1     -20.541 -40.976  24.446  1.00  0.00     0.262 C 
ATOM      4  N   UNL     1     -21.192 -41.503  25.697  1.00  0.00    -0.331 N 
ATOM      5  C   UNL     1     -19.391 -41.877  24.015  1.00  0.00     0.065 C 
ATOM      6  C   UNL     1     -20.201 -41.655  26.825  1.00  0.00     0.262 C 
ATOM      7  C   UNL     1     -19.045 -42.560  26.416  1.00  0.00     0.065 C 
ATOM      8  H   UNL     1     -21.839 -40.767  26.011  1.00  0.00     0.348 HD
BRANCH   4   9
ATOM      9  C   UNL     1     -22.080 -42.706  25.455  1.00  0.00     0.299 C 
BRANCH   9  10
ATOM     10  C   UNL     1     -22.584 -43.333  26.725  1.00  0.00     0.006 A 
ATOM     11  C   UNL     1     -23.697 -42.799  27.392  1.00  0.00     0.009 A 
ATOM     12  C   UNL     1     -21.961 -44.476  27.253  1.00  0.00     0.009 A 
ATOM     13  C   UNL     1     -24.180 -43.399  28.555  1.00  0.00     0.001 A 
ATOM     14  C   UNL     1     -22.447 -45.072  28.416  1.00  0.00     0.001 A 
ATOM     15  C   UNL     1     -23.556 -44.535  29.065  1.00  0.00     0.000 A 
ENDBRANCH   9  10
ENDBRANCH   4   9
ENDBRANCH   1   2
BRANCH   1  16
ATOM     16  C   UNL     1     -15.820 -42.649  25.290  1.00  0.00     0.066 C 
ATOM     17  C   UNL     1     -14.802 -43.742  25.015  1.00  0.00     0.166 C 
ATOM     18  C   UNL     1     -15.891 -42.572  26.838  1.00  0.00     0.048 C 
ATOM     19  C   UNL     1     -14.338 -44.312  26.271  1.00  0.00     0.025 A 
ATOM     20  C   UNL     1     -14.970 -43.651  27.312  1.00  0.00    -0.033 A 
ATOM     21  C   UNL     1     -13.433 -45.340  26.461  1.00  0.00     0.062 A 
ATOM     22  C   UNL     1     -14.700 -44.016  28.623  1.00  0.00     0.055 A 
ATOM     23  C   UNL     1     -13.153 -45.720  27.776  1.00  0.00     0.161 A 
ATOM     24  C   UNL     1     -13.789 -45.055  28.863  1.00  0.00     0.161 A 
ATOM     25  O   UNL     1     -14.420 -44.105  23.914  1.00  0.00    -0.294 OA
BRANCH  23  26
ATOM     26  O   UNL     1     -12.281 -46.724  28.120  1.00  0.00    -0.493 OA
ATOM     27  C   UNL     1     -10.891 -46.429  28.106  1.00  0.00     0.278 C 
ENDBRANCH  23  26
BRANCH  24  28
ATOM     28  O   UNL     1     -13.448 -45.506  30.114  1.00  0.00    -0.493 OA
ATOM     29  C   UNL     1     -12.788 -44.605  30.990  1.00  0.00     0.278 C 
ENDBRANCH  24  28
ENDBRANCH   1  16
TORSDOF 6
ENDMDL
MODEL 8
REMARK VINA RESULT:    -9.175      3.029      5.945
REMARK INTER + INTRA:         -13.243
REMARK INTER:                 -12.747
REMARK INTRA:                  -0.496
REMARK UNBOUND:                -0.850
REMARK SMILES COc1cc2c(cc1OC)C(=O)[C@@H](C[C@H]1CC[N@@H+](Cc3ccccc3)CC1)C2
REMARK SMILES IDX 14 1 15 2 17 3 18 4 16 5 26 6 27 7 19 9 20 10 21 11 25 12
REMARK SMILES IDX 22 13 24 14 23 15 13 16 11 17 28 18 6 19 5 20 7 21 4 22 8 23
REMARK SMILES IDX 3 24 12 25 9 26 10 27 2 28 1 29
REMARK H PARENT 18 8
ROOT
ATOM      1  C   UNL     1     -18.480 -42.696  24.718  1.00  0.00     0.016 C 
ENDROOT
BRANCH   1   2
ATOM      2  C   UNL     1     -16.975 -42.445  24.952  1.00  0.00     0.001 C 
ATOM      3  C   UNL     1     -15.142 -42.398  26.696  1.00  0.00     0.262 C 
ATOM      4  N   UNL     1     -14.280 -43.253  25.806  1.00  0.00    -0.331 N 
ATOM      5  C   UNL     1     -16.619 -42.661  26.433  1.00  0.00     0.065 C 
ATOM      6  C   UNL     1     -14.594 -43.037  24.345  1.00  0.00     0.262 C 
ATOM      7  C   UNL     1     -16.067 -43.302  24.059  1.00  0.00     0.065 C 
ATOM      8  H   UNL     1     -13.320 -42.907  25.924  1.00  0.00     0.348 HD
BRANCH   4   9
ATOM      9  C   UNL     1     -14.214 -44.703  26.240  1.00  0.00     0.299 C 
BRANCH   9  10
ATOM     10  C   UNL     1     -13.026 -45.004  27.112  1.00  0.00     0.006 A 
ATOM     11  C   UNL     1     -12.620 -46.329  27.331  1.00  0.00     0.009 A 
ATOM     12  C   UNL     1     -12.293 -43.962  27.704  1.00  0.00     0.009 A 
ATOM     13  C   UNL     1     -11.501 -46.605  28.119  1.00  0.00     0.001 A 
ATOM     14  C   UNL     1     -11.176 -44.243  28.490  1.00  0.00     0.001 A 
ATOM     15  C   UNL     1     -10.780 -45.562  28.695  1.00  0.00     0.000 A 
ENDBRANCH   9  10
ENDBRANCH   4   9
ENDBRANCH   1   2
BRANCH   1  16
ATOM     16  C   UNL     1     -19.337 -42.871  25.982  1.00  0.00     0.066 C 
ATOM     17  C   UNL     1     -20.649 -43.585  25.706  1.00  0.00     0.166 C 
ATOM     18  C   UNL     1     -19.762 -41.505  26.583  1.00  0.00     0.048 C 
ATOM     19  C   UNL     1     -21.765 -42.719  26.055  1.00  0.00     0.025 A 
ATOM     20  C   UNL     1     -21.257 -41.526  26.544  1.00  0.00    -0.033 A 
ATOM     21  C   UNL     1     -23.118 -42.977  25.935  1.00  0.00     0.062 A 
ATOM     22  C   UNL     1     -22.126 -40.521  26.943  1.00  0.00     0.055 A 
ATOM     23  C   UNL     1     -24.006 -41.974  26.332  1.00  0.00     0.161 A 
ATOM     24  C   UNL     1     -23.509 -40.739  26.838  1.00  0.00     0.161 A 
ATOM     25  O   UNL     1     -20.770 -44.714  25.258  1.00  0.00    -0.294 OA
BRANCH  23  26
ATOM     26  O   UNL     1     -25.373 -42.084  26.267  1.00  0.00    -0.493 OA
ATOM     27  C   UNL     1     -25.972 -43.246  26.824  1.00  0.00     0.278 C 
ENDBRANCH  23  26
BRANCH  24  28
ATOM     28  O   UNL     1     -24.462 -39.819  27.196  1.00  0.00    -0.493 OA
ATOM     29  C   UNL     1     -24.340 -38.500  26.687  1.00  0.00     0.278 C 
ENDBRANCH  24  28
ENDBRANCH   1  16
TORSDOF 6
ENDMDL
MODEL 9
REMARK VINA RESULT:    -9.053      5.063     12.772
REMARK INTER + INTRA:         -13.078
REMARK INTER:                 -12.375
REMARK INTRA:                  -0.704
REMARK UNBOUND:                -0.850
REMARK SMILES COc1cc2c(cc1OC)C(=O)[C@@H](C[C@H]1CC[N@@H+](Cc3ccccc3)CC1)C2
REMARK SMILES IDX 14 1 15 2 17 3 18 4 16 5 26 6 27 7 19 9 20 10 21 11 25 12
REMARK SMILES IDX 22 13 24 14 23 15 13 16 11 17 28 18 6 19 5 20 7 21 4 22 8 23
REMARK SMILES IDX 3 24 12 25 9 26 10 27 2 28 1 29
REMARK H PARENT 18 8
ROOT
ATOM      1  C   UNL     1     -18.682 -41.002  22.213  1.00  0.00     0.016 C 
ENDROOT
BRANCH   1   2
ATOM      2  C   UNL     1     -20.119 -40.689  21.744  1.00  0.00     0.001 C 
ATOM      3  C   UNL     1     -21.977 -38.972  21.807  1.00  0.00     0.262 C 
ATOM      4  N   UNL     1     -22.121 -39.080  20.313  1.00  0.00    -0.331 N 
ATOM      5  C   UNL     1     -20.553 -39.299  22.238  1.00  0.00     0.065 C 
ATOM      6  C   UNL     1     -21.726 -40.447  19.808  1.00  0.00     0.262 C 
ATOM      7  C   UNL     1     -20.301 -40.790  20.223  1.00  0.00     0.065 C 
ATOM      8  H   UNL     1     -23.128 -39.008  20.120  1.00  0.00     0.348 HD
BRANCH   4   9
ATOM      9  C   UNL     1     -21.509 -37.916  19.561  1.00  0.00     0.299 C 
BRANCH   9  10
ATOM     10  C   UNL     1     -22.513 -37.140  18.755  1.00  0.00     0.006 A 
ATOM     11  C   UNL     1     -23.321 -36.169  19.366  1.00  0.00     0.009 A 
ATOM     12  C   UNL     1     -22.642 -37.359  17.374  1.00  0.00     0.009 A 
ATOM     13  C   UNL     1     -24.233 -35.430  18.612  1.00  0.00     0.001 A 
ATOM     14  C   UNL     1     -23.555 -36.618  16.624  1.00  0.00     0.001 A 
ATOM     15  C   UNL     1     -24.348 -35.654  17.242  1.00  0.00     0.000 A 
ENDBRANCH   9  10
ENDBRANCH   4   9
ENDBRANCH   1   2
BRANCH   1  16
ATOM     16  C   UNL     1     -18.502 -42.312  22.997  1.00  0.00     0.066 C 
ATOM     17  C   UNL     1     -18.868 -42.170  24.465  1.00  0.00     0.166 C 
ATOM     18  C   UNL     1     -17.021 -42.775  23.014  1.00  0.00     0.048 C 
ATOM     19  C   UNL     1     -17.709 -42.466  25.293  1.00  0.00     0.025 A 
ATOM     20  C   UNL     1     -16.651 -42.799  24.463  1.00  0.00    -0.033 A 
ATOM     21  C   UNL     1     -17.612 -42.430  26.672  1.00  0.00     0.062 A 
ATOM     22  C   UNL     1     -15.419 -43.119  25.015  1.00  0.00     0.055 A 
ATOM     23  C   UNL     1     -16.377 -42.749  27.242  1.00  0.00     0.161 A 
ATOM     24  C   UNL     1     -15.274 -43.094  26.410  1.00  0.00     0.161 A 
ATOM     25  O   UNL     1     -19.963 -41.855  24.903  1.00  0.00    -0.294 OA
BRANCH  23  26
ATOM     26  O   UNL     1     -16.128 -42.752  28.593  1.00  0.00    -0.493 OA
ATOM     27  C   UNL     1     -17.244 -42.785  29.472  1.00  0.00     0.278 C 
ENDBRANCH  23  26
BRANCH  24  28
ATOM     28  O   UNL     1     -14.105 -43.387  27.068  1.00  0.00    -0.493 OA
ATOM     29  C   UNL     1     -13.659 -44.734  27.068  1.00  0.00     0.278 C 
ENDBRANCH  24  28
ENDBRANCH   1  16
TORSDOF 6
ENDMDL
