MODEL 1
REMARK VINA RESULT:   -11.273      0.000      0.000
REMARK INTER + INTRA:         -14.470
REMARK INTER:                 -13.909
REMARK INTRA:                  -0.561
REMARK UNBOUND:                -0.561
REMARK SMILES COc1ccc(NC(=O)C2CCN(C(=O)c3ccccc3)CC2)cc1
REMARK SMILES IDX 3 1 4 2 5 3 6 4 24 5 25 6 2 7 1 8 7 9 8 10 9 12 10 13 11 14
REMARK SMILES IDX 23 15 12 16 22 17 13 18 14 19 15 20 16 21 17 22 21 23 18 24
REMARK SMILES IDX 20 25 19 26
REMARK H PARENT 7 11
ROOT
ATOM      1  C   UNL     1     -17.847 -42.085  23.587  1.00  0.00     0.119 A 
ATOM      2  C   UNL     1     -16.646 -42.594  23.094  1.00  0.00     0.048 A 
ATOM      3  C   UNL     1     -15.716 -43.186  23.955  1.00  0.00     0.030 A 
ATOM      4  C   UNL     1     -15.973 -43.279  25.327  1.00  0.00     0.041 A 
ATOM      5  C   UNL     1     -17.176 -42.768  25.817  1.00  0.00     0.030 A 
ATOM      6  C   UNL     1     -18.108 -42.175  24.953  1.00  0.00     0.048 A 
ENDROOT
BRANCH   1   7
ATOM      7  O   UNL     1     -18.667 -41.534  22.642  1.00  0.00    -0.497 OA
ATOM      8  C   UNL     1     -18.102 -40.531  21.808  1.00  0.00     0.278 C 
ENDBRANCH   1   7
BRANCH   4   9
ATOM      9  N   UNL     1     -14.985 -43.886  26.129  1.00  0.00    -0.326 N 
ATOM     10  C   UNL     1     -13.868 -43.289  26.692  1.00  0.00     0.227 C 
ATOM     11  H   UNL     1     -15.132 -44.866  26.333  1.00  0.00     0.169 HD
ATOM     12  O   UNL     1     -13.561 -42.105  26.605  1.00  0.00    -0.274 OA
BRANCH  10  13
ATOM     13  C   UNL     1     -13.008 -44.288  27.471  1.00  0.00     0.082 C 
ATOM     14  C   UNL     1     -11.741 -43.607  28.003  1.00  0.00     0.035 C 
ATOM     15  C   UNL     1     -13.791 -44.901  28.639  1.00  0.00     0.035 C 
ATOM     16  C   UNL     1     -10.901 -44.573  28.830  1.00  0.00     0.120 C 
ATOM     17  C   UNL     1     -12.920 -45.853  29.448  1.00  0.00     0.120 C 
ATOM     18  N   UNL     1     -11.682 -45.214  29.888  1.00  0.00    -0.339 N 
ATOM     19  C   UNL     1     -11.054 -45.790  31.002  1.00  0.00     0.253 C 
ATOM     20  O   UNL     1     -11.464 -46.805  31.561  1.00  0.00    -0.269 OA
BRANCH  19  21
ATOM     21  C   UNL     1      -9.851 -45.130  31.561  1.00  0.00     0.040 A 
ATOM     22  C   UNL     1      -9.996 -43.912  32.234  1.00  0.00     0.014 A 
ATOM     23  C   UNL     1      -8.579 -45.679  31.362  1.00  0.00     0.014 A 
ATOM     24  C   UNL     1      -8.870 -43.265  32.744  1.00  0.00     0.001 A 
ATOM     25  C   UNL     1      -7.456 -45.027  31.873  1.00  0.00     0.001 A 
ATOM     26  C   UNL     1      -7.604 -43.825  32.568  1.00  0.00     0.000 A 
ENDBRANCH  19  21
ENDBRANCH  10  13
ENDBRANCH   4   9
TORSDOF 4
ENDMDL
MODEL 2
REMARK VINA RESULT:   -10.275      1.531      1.959
REMARK INTER + INTRA:         -13.238
REMARK INTER:                 -12.875
REMARK INTRA:                  -0.364
REMARK UNBOUND:                -0.561
REMARK SMILES COc1ccc(NC(=O)C2CCN(C(=O)c3ccccc3)CC2)cc1
REMARK SMILES IDX 3 1 4 2 5 3 6 4 24 5 25 6 2 7 1 8 7 9 8 10 9 12 10 13 11 14
REMARK SMILES IDX 23 15 12 16 22 17 13 18 14 19 15 20 16 21 17 22 21 23 18 24
REMARK SMILES IDX 20 25 19 26
REMARK H PARENT 7 11
ROOT
ATOM      1  C   UNL     1     -17.298 -42.415  25.017  1.00  0.00     0.119 A 
ATOM      2  C   UNL     1     -16.187 -42.809  24.272  1.00  0.00     0.048 A 
ATOM      3  C   UNL     1     -15.006 -43.205  24.908  1.00  0.00     0.030 A 
ATOM      4  C   UNL     1     -14.917 -43.214  26.304  1.00  0.00     0.041 A 
ATOM      5  C   UNL     1     -16.030 -42.818  27.047  1.00  0.00     0.030 A 
ATOM      6  C   UNL     1     -17.214 -42.421  26.408  1.00  0.00     0.048 A 
ENDROOT
BRANCH   1   7
ATOM      7  O   UNL     1     -18.387 -42.052  24.275  1.00  0.00    -0.497 OA
ATOM      8  C   UNL     1     -18.218 -42.012  22.863  1.00  0.00     0.278 C 
ENDBRANCH   1   7
BRANCH   4   9
ATOM      9  N   UNL     1     -13.691 -43.624  26.869  1.00  0.00    -0.326 N 
ATOM     10  C   UNL     1     -13.197 -44.914  26.971  1.00  0.00     0.227 C 
ATOM     11  H   UNL     1     -13.101 -42.878  27.213  1.00  0.00     0.169 HD
ATOM     12  O   UNL     1     -13.741 -45.931  26.557  1.00  0.00    -0.274 OA
BRANCH  10  13
ATOM     13  C   UNL     1     -11.841 -44.959  27.682  1.00  0.00     0.082 C 
ATOM     14  C   UNL     1     -11.738 -43.832  28.717  1.00  0.00     0.035 C 
ATOM     15  C   UNL     1     -11.622 -46.312  28.371  1.00  0.00     0.035 C 
ATOM     16  C   UNL     1     -10.417 -43.897  29.475  1.00  0.00     0.120 C 
ATOM     17  C   UNL     1     -10.298 -46.339  29.126  1.00  0.00     0.120 C 
ATOM     18  N   UNL     1     -10.182 -45.219  30.056  1.00  0.00    -0.339 N 
ATOM     19  C   UNL     1      -9.281 -45.392  31.117  1.00  0.00     0.253 C 
ATOM     20  O   UNL     1      -8.575 -46.390  31.251  1.00  0.00    -0.269 OA
BRANCH  19  21
ATOM     21  C   UNL     1      -9.190 -44.336  32.153  1.00  0.00     0.040 A 
ATOM     22  C   UNL     1     -10.369 -43.788  32.668  1.00  0.00     0.014 A 
ATOM     23  C   UNL     1      -7.946 -43.844  32.563  1.00  0.00     0.014 A 
ATOM     24  C   UNL     1     -10.302 -42.775  33.625  1.00  0.00     0.001 A 
ATOM     25  C   UNL     1      -7.883 -42.830  33.520  1.00  0.00     0.001 A 
ATOM     26  C   UNL     1      -9.061 -42.302  34.053  1.00  0.00     0.000 A 
ENDBRANCH  19  21
ENDBRANCH  10  13
ENDBRANCH   4   9
TORSDOF 4
ENDMDL
MODEL 3
REMARK VINA RESULT:    -9.871      2.004     10.450
REMARK INTER + INTRA:         -12.740
REMARK INTER:                 -13.061
REMARK INTRA:                   0.321
REMARK UNBOUND:                -0.561
REMARK SMILES COc1ccc(NC(=O)C2CCN(C(=O)c3ccccc3)CC2)cc1
REMARK SMILES IDX 3 1 4 2 5 3 6 4 24 5 25 6 2 7 1 8 7 9 8 10 9 12 10 13 11 14
REMARK SMILES IDX 23 15 12 16 22 17 13 18 14 19 15 20 16 21 17 22 21 23 18 24
REMARK SMILES IDX 20 25 19 26
REMARK H PARENT 7 11
ROOT
ATOM      1  C   UNL     1     -12.291 -45.987  29.945  1.00  0.00     0.119 A 
ATOM      2  C   UNL     1     -11.909 -46.229  28.625  1.00  0.00     0.048 A 
ATOM      3  C   UNL     1     -12.656 -45.713  27.561  1.00  0.00     0.030 A 
ATOM      4  C   UNL     1     -13.800 -44.944  27.800  1.00  0.00     0.041 A 
ATOM      5  C   UNL     1     -14.180 -44.705  29.121  1.00  0.00     0.030 A 
ATOM      6  C   UNL     1     -13.431 -45.223  30.188  1.00  0.00     0.048 A 
ENDROOT
BRANCH   1   7
ATOM      7  O   UNL     1     -11.477 -46.546  30.890  1.00  0.00    -0.497 OA
ATOM      8  C   UNL     1     -10.433 -45.728  31.403  1.00  0.00     0.278 C 
ENDBRANCH   1   7
BRANCH   4   9
ATOM      9  N   UNL     1     -14.500 -44.463  26.674  1.00  0.00    -0.326 N 
ATOM     10  C   UNL     1     -14.494 -43.175  26.162  1.00  0.00     0.227 C 
ATOM     11  H   UNL     1     -15.045 -45.152  26.173  1.00  0.00     0.169 HD
ATOM     12  O   UNL     1     -13.849 -42.228  26.596  1.00  0.00    -0.274 OA
BRANCH  10  13
ATOM     13  C   UNL     1     -15.411 -43.033  24.944  1.00  0.00     0.082 C 
ATOM     14  C   UNL     1     -16.870 -42.866  25.386  1.00  0.00     0.035 C 
ATOM     15  C   UNL     1     -14.998 -41.839  24.075  1.00  0.00     0.035 C 
ATOM     16  C   UNL     1     -17.791 -42.665  24.188  1.00  0.00     0.120 C 
ATOM     17  C   UNL     1     -15.943 -41.662  22.893  1.00  0.00     0.120 C 
ATOM     18  N   UNL     1     -17.336 -41.577  23.322  1.00  0.00    -0.339 N 
ATOM     19  C   UNL     1     -18.217 -40.947  22.430  1.00  0.00     0.253 C 
ATOM     20  O   UNL     1     -17.879 -40.534  21.322  1.00  0.00    -0.269 OA
BRANCH  19  21
ATOM     21  C   UNL     1     -19.623 -40.737  22.847  1.00  0.00     0.040 A 
ATOM     22  C   UNL     1     -20.485 -40.036  21.997  1.00  0.00     0.014 A 
ATOM     23  C   UNL     1     -20.068 -41.171  24.101  1.00  0.00     0.014 A 
ATOM     24  C   UNL     1     -21.805 -39.806  22.386  1.00  0.00     0.001 A 
ATOM     25  C   UNL     1     -21.389 -40.938  24.486  1.00  0.00     0.001 A 
ATOM     26  C   UNL     1     -22.257 -40.262  23.626  1.00  0.00     0.000 A 
ENDBRANCH  19  21
ENDBRANCH  10  13
ENDBRANCH   4   9
TORSDOF 4
ENDMDL
MODEL 4
REMARK VINA RESULT:    -9.585      1.931      9.685
REMARK INTER + INTRA:         -12.387
REMARK INTER:                 -12.002
REMARK INTRA:                  -0.385
REMARK UNBOUND:                -0.561
REMARK SMILES COc1ccc(NC(=O)C2CCN(C(=O)c3ccccc3)CC2)cc1
REMARK SMILES IDX 3 1 4 2 5 3 6 4 24 5 25 6 2 7 1 8 7 9 8 10 9 12 10 13 11 14
REMARK SMILES IDX 23 15 12 16 22 17 13 18 14 19 15 20 16 21 17 22 21 23 18 24
REMARK SMILES IDX 20 25 19 26
REMARK H PARENT 7 11
ROOT
ATOM      1  C   UNL     1      -9.031 -42.770  33.763  1.00  0.00     0.119 A 
ATOM      2  C   UNL     1     -10.394 -42.503  33.634  1.00  0.00     0.048 A 
ATOM      3  C   UNL     1     -11.060 -42.762  32.431  1.00  0.00     0.030 A 
ATOM      4  C   UNL     1     -10.373 -43.295  31.336  1.00  0.00     0.041 A 
ATOM      5  C   UNL     1      -9.009 -43.560  31.468  1.00  0.00     0.030 A 
ATOM      6  C   UNL     1      -8.341 -43.300  32.674  1.00  0.00     0.048 A 
ENDROOT
BRANCH   1   7
ATOM      7  O   UNL     1      -8.501 -42.472  34.987  1.00  0.00    -0.497 OA
ATOM      8  C   UNL     1      -9.193 -41.505  35.768  1.00  0.00     0.278 C 
ENDBRANCH   1   7
BRANCH   4   9
ATOM      9  N   UNL     1     -11.115 -43.525  30.159  1.00  0.00    -0.326 N 
ATOM     10  C   UNL     1     -11.602 -44.734  29.689  1.00  0.00     0.227 C 
ATOM     11  H   UNL     1     -11.335 -42.701  29.616  1.00  0.00     0.169 HD
ATOM     12  O   UNL     1     -11.486 -45.823  30.241  1.00  0.00    -0.274 OA
BRANCH  10  13
ATOM     13  C   UNL     1     -12.332 -44.584  28.353  1.00  0.00     0.082 C 
ATOM     14  C   UNL     1     -13.851 -44.654  28.558  1.00  0.00     0.035 C 
ATOM     15  C   UNL     1     -11.968 -43.261  27.667  1.00  0.00     0.035 C 
ATOM     16  C   UNL     1     -14.597 -44.448  27.245  1.00  0.00     0.120 C 
ATOM     17  C   UNL     1     -12.737 -43.084  26.364  1.00  0.00     0.120 C 
ATOM     18  N   UNL     1     -14.177 -43.225  26.560  1.00  0.00    -0.339 N 
ATOM     19  C   UNL     1     -14.992 -42.624  25.590  1.00  0.00     0.253 C 
ATOM     20  O   UNL     1     -14.552 -42.055  24.593  1.00  0.00    -0.269 OA
BRANCH  19  21
ATOM     21  C   UNL     1     -16.461 -42.643  25.784  1.00  0.00     0.040 A 
ATOM     22  C   UNL     1     -17.289 -42.838  24.674  1.00  0.00     0.014 A 
ATOM     23  C   UNL     1     -17.018 -42.400  27.045  1.00  0.00     0.014 A 
ATOM     24  C   UNL     1     -18.675 -42.833  24.834  1.00  0.00     0.001 A 
ATOM     25  C   UNL     1     -18.404 -42.395  27.200  1.00  0.00     0.001 A 
ATOM     26  C   UNL     1     -19.231 -42.617  26.097  1.00  0.00     0.000 A 
ENDBRANCH  19  21
ENDBRANCH  10  13
ENDBRANCH   4   9
TORSDOF 4
ENDMDL
MODEL 5
REMARK VINA RESULT:    -9.284      4.547      7.216
REMARK INTER + INTRA:         -12.016
REMARK INTER:                 -11.508
REMARK INTRA:                  -0.508
REMARK UNBOUND:                -0.561
REMARK SMILES COc1ccc(NC(=O)C2CCN(C(=O)c3ccccc3)CC2)cc1
REMARK SMILES IDX 3 1 4 2 5 3 6 4 24 5 25 6 2 7 1 8 7 9 8 10 9 12 10 13 11 14
REMARK SMILES IDX 23 15 12 16 22 17 13 18 14 19 15 20 16 21 17 22 21 23 18 24
REMARK SMILES IDX 20 25 19 26
REMARK H PARENT 7 11
ROOT
ATOM      1  C   UNL     1     -24.401 -44.894  27.861  1.00  0.00     0.119 A 
ATOM      2  C   UNL     1     -24.127 -44.262  26.649  1.00  0.00     0.048 A 
ATOM      3  C   UNL     1     -22.837 -43.807  26.357  1.00  0.00     0.030 A 
ATOM      4  C   UNL     1     -21.796 -43.979  27.275  1.00  0.00     0.041 A 
ATOM      5  C   UNL     1     -22.073 -44.612  28.488  1.00  0.00     0.030 A 
ATOM      6  C   UNL     1     -23.367 -45.068  28.780  1.00  0.00     0.048 A 
ENDROOT
BRANCH   1   7
ATOM      7  O   UNL     1     -25.699 -45.290  28.022  1.00  0.00    -0.497 OA
ATOM      8  C   UNL     1     -26.098 -45.661  29.336  1.00  0.00     0.278 C 
ENDBRANCH   1   7
BRANCH   4   9
ATOM      9  N   UNL     1     -20.525 -43.491  26.908  1.00  0.00    -0.326 N 
ATOM     10  C   UNL     1     -20.082 -42.179  26.940  1.00  0.00     0.227 C 
ATOM     11  H   UNL     1     -19.858 -44.192  26.614  1.00  0.00     0.169 HD
ATOM     12  O   UNL     1     -20.726 -41.208  27.322  1.00  0.00    -0.274 OA
BRANCH  10  13
ATOM     13  C   UNL     1     -18.646 -42.040  26.428  1.00  0.00     0.082 C 
ATOM     14  C   UNL     1     -17.647 -42.495  27.500  1.00  0.00     0.035 C 
ATOM     15  C   UNL     1     -18.432 -42.855  25.147  1.00  0.00     0.035 C 
ATOM     16  C   UNL     1     -16.213 -42.419  26.987  1.00  0.00     0.120 C 
ATOM     17  C   UNL     1     -16.988 -42.763  24.668  1.00  0.00     0.120 C 
ATOM     18  N   UNL     1     -16.044 -43.130  25.720  1.00  0.00    -0.339 N 
ATOM     19  C   UNL     1     -14.776 -43.548  25.290  1.00  0.00     0.253 C 
ATOM     20  O   UNL     1     -14.431 -43.561  24.110  1.00  0.00    -0.269 OA
BRANCH  19  21
ATOM     21  C   UNL     1     -13.805 -44.031  26.300  1.00  0.00     0.040 A 
ATOM     22  C   UNL     1     -12.876 -43.130  26.831  1.00  0.00     0.014 A 
ATOM     23  C   UNL     1     -13.770 -45.380  26.668  1.00  0.00     0.014 A 
ATOM     24  C   UNL     1     -11.938 -43.574  27.764  1.00  0.00     0.001 A 
ATOM     25  C   UNL     1     -12.829 -45.819  27.600  1.00  0.00     0.001 A 
ATOM     26  C   UNL     1     -11.919 -44.915  28.151  1.00  0.00     0.000 A 
ENDBRANCH  19  21
ENDBRANCH  10  13
ENDBRANCH   4   9
TORSDOF 4
ENDMDL
MODEL 6
REMARK VINA RESULT:    -8.732      1.743      9.864
REMARK INTER + INTRA:         -11.334
REMARK INTER:                 -12.210
REMARK INTRA:                   0.875
REMARK UNBOUND:                -0.561
REMARK SMILES COc1ccc(NC(=O)C2CCN(C(=O)c3ccccc3)CC2)cc1
REMARK SMILES IDX 3 1 4 2 5 3 6 4 24 5 25 6 2 7 1 8 7 9 8 10 9 12 10 13 11 14
REMARK SMILES IDX 23 15 12 16 22 17 13 18 14 19 15 20 16 21 17 22 21 23 18 24
REMARK SMILES IDX 20 25 19 26
REMARK H PARENT 7 11
ROOT
ATOM      1  C   UNL     1      -9.251 -45.086  30.853  1.00  0.00     0.119 A 
ATOM      2  C   UNL     1     -10.364 -45.926  30.833  1.00  0.00     0.048 A 
ATOM      3  C   UNL     1     -11.378 -45.744  29.887  1.00  0.00     0.030 A 
ATOM      4  C   UNL     1     -11.296 -44.716  28.943  1.00  0.00     0.041 A 
ATOM      5  C   UNL     1     -10.182 -43.875  28.966  1.00  0.00     0.030 A 
ATOM      6  C   UNL     1      -9.165 -44.059  29.915  1.00  0.00     0.048 A 
ENDROOT
BRANCH   1   7
ATOM      7  O   UNL     1      -8.334 -45.371  31.825  1.00  0.00    -0.497 OA
ATOM      8  C   UNL     1      -7.195 -46.126  31.431  1.00  0.00     0.278 C 
ENDBRANCH   1   7
BRANCH   4   9
ATOM      9  N   UNL     1     -12.360 -44.596  28.025  1.00  0.00    -0.326 N 
ATOM     10  C   UNL     1     -12.685 -43.498  27.245  1.00  0.00     0.227 C 
ATOM     11  H   UNL     1     -12.931 -45.423  27.911  1.00  0.00     0.169 HD
ATOM     12  O   UNL     1     -12.075 -42.435  27.204  1.00  0.00    -0.274 OA
BRANCH  10  13
ATOM     13  C   UNL     1     -13.935 -43.740  26.397  1.00  0.00     0.082 C 
ATOM     14  C   UNL     1     -15.186 -43.227  27.122  1.00  0.00     0.035 C 
ATOM     15  C   UNL     1     -13.819 -43.057  25.029  1.00  0.00     0.035 C 
ATOM     16  C   UNL     1     -16.435 -43.408  26.266  1.00  0.00     0.120 C 
ATOM     17  C   UNL     1     -15.085 -43.250  24.204  1.00  0.00     0.120 C 
ATOM     18  N   UNL     1     -16.277 -42.825  24.934  1.00  0.00    -0.339 N 
ATOM     19  C   UNL     1     -17.394 -42.499  24.151  1.00  0.00     0.253 C 
ATOM     20  O   UNL     1     -17.419 -42.610  22.927  1.00  0.00    -0.269 OA
BRANCH  19  21
ATOM     21  C   UNL     1     -18.602 -41.964  24.822  1.00  0.00     0.040 A 
ATOM     22  C   UNL     1     -18.690 -42.033  26.216  1.00  0.00     0.014 A 
ATOM     23  C   UNL     1     -19.670 -41.459  24.072  1.00  0.00     0.014 A 
ATOM     24  C   UNL     1     -19.831 -41.557  26.863  1.00  0.00     0.001 A 
ATOM     25  C   UNL     1     -20.810 -40.985  24.723  1.00  0.00     0.001 A 
ATOM     26  C   UNL     1     -20.886 -41.029  26.117  1.00  0.00     0.000 A 
ENDBRANCH  19  21
ENDBRANCH  10  13
ENDBRANCH   4   9
TORSDOF 4
ENDMDL
MODEL 7
REMARK VINA RESULT:    -8.691      4.322      6.966
REMARK INTER + INTRA:         -11.284
REMARK INTER:                 -10.825
REMARK INTRA:                  -0.459
REMARK UNBOUND:                -0.561
REMARK SMILES COc1ccc(NC(=O)C2CCN(C(=O)c3ccccc3)CC2)cc1
REMARK SMILES IDX 3 1 4 2 5 3 6 4 24 5 25 6 2 7 1 8 7 9 8 10 9 12 10 13 11 14
REMARK SMILES IDX 23 15 12 16 22 17 13 18 14 19 15 20 16 21 17 22 21 23 18 24
REMARK SMILES IDX 20 25 19 26
REMARK H PARENT 7 11
ROOT
ATOM      1  C   UNL     1     -24.891 -40.902  26.477  1.00  0.00     0.119 A 
ATOM      2  C   UNL     1     -24.003 -40.426  27.442  1.00  0.00     0.048 A 
ATOM      3  C   UNL     1     -22.622 -40.576  27.275  1.00  0.00     0.030 A 
ATOM      4  C   UNL     1     -22.106 -41.206  26.138  1.00  0.00     0.041 A 
ATOM      5  C   UNL     1     -22.997 -41.682  25.176  1.00  0.00     0.030 A 
ATOM      6  C   UNL     1     -24.382 -41.531  25.343  1.00  0.00     0.048 A 
ENDROOT
BRANCH   1   7
ATOM      7  O   UNL     1     -26.212 -40.692  26.760  1.00  0.00    -0.497 OA
ATOM      8  C   UNL     1     -27.151 -41.516  26.081  1.00  0.00     0.278 C 
ENDBRANCH   1   7
BRANCH   4   9
ATOM      9  N   UNL     1     -20.703 -41.321  26.046  1.00  0.00    -0.326 N 
ATOM     10  C   UNL     1     -19.869 -42.127  26.805  1.00  0.00     0.227 C 
ATOM     11  H   UNL     1     -20.268 -40.766  25.321  1.00  0.00     0.169 HD
ATOM     12  O   UNL     1     -20.221 -42.907  27.682  1.00  0.00    -0.274 OA
BRANCH  10  13
ATOM     13  C   UNL     1     -18.396 -41.948  26.431  1.00  0.00     0.082 C 
ATOM     14  C   UNL     1     -17.489 -42.541  27.517  1.00  0.00     0.035 C 
ATOM     15  C   UNL     1     -18.081 -42.607  25.083  1.00  0.00     0.035 C 
ATOM     16  C   UNL     1     -16.018 -42.424  27.135  1.00  0.00     0.120 C 
ATOM     17  C   UNL     1     -16.602 -42.479  24.737  1.00  0.00     0.120 C 
ATOM     18  N   UNL     1     -15.749 -42.981  25.810  1.00  0.00    -0.339 N 
ATOM     19  C   UNL     1     -14.451 -43.363  25.436  1.00  0.00     0.253 C 
ATOM     20  O   UNL     1     -14.011 -43.239  24.295  1.00  0.00    -0.269 OA
BRANCH  19  21
ATOM     21  C   UNL     1     -13.568 -43.975  26.456  1.00  0.00     0.040 A 
ATOM     22  C   UNL     1     -13.743 -45.324  26.783  1.00  0.00     0.014 A 
ATOM     23  C   UNL     1     -12.618 -43.203  27.135  1.00  0.00     0.014 A 
ATOM     24  C   UNL     1     -12.938 -45.910  27.760  1.00  0.00     0.001 A 
ATOM     25  C   UNL     1     -11.816 -43.793  28.111  1.00  0.00     0.001 A 
ATOM     26  C   UNL     1     -11.973 -45.147  28.418  1.00  0.00     0.000 A 
ENDBRANCH  19  21
ENDBRANCH  10  13
ENDBRANCH   4   9
TORSDOF 4
ENDMDL
