MODEL 1
REMARK VINA RESULT:   -10.392      0.000      0.000
REMARK INTER + INTRA:         -16.295
REMARK INTER:                 -15.556
REMARK INTRA:                  -0.739
REMARK UNBOUND:                -0.739
REMARK SMILES COc1cc2c(cc1OC)SC(=C(O)CCc1cc[n+](Cc3ccsc3)cc1)C2
REMARK SMILES IDX 15 1 13 2 14 3 12 5 29 6 11 7 5 8 6 9 4 10 7 11 3 12 8 13
REMARK SMILES IDX 2 14 1 15 9 16 10 17 16 18 17 19 18 20 28 21 19 22 27 23
REMARK SMILES IDX 20 24 21 25 22 26 23 27 26 28 24 29 25 30
REMARK H PARENT 14 4
ROOT
ATOM      1  C   UNL     1     -14.494 -43.760  26.399  1.00  0.00     0.080 C 
ENDROOT
BRANCH   1   2
ATOM      2  C   UNL     1     -15.068 -43.426  25.047  1.00  0.00     0.103 C 
BRANCH   2   3
ATOM      3  O   UNL     1     -14.199 -43.705  24.004  1.00  0.00    -0.511 OA
ATOM      4  H   UNL     1     -14.735 -43.739  23.185  1.00  0.00     0.293 HD
ENDBRANCH   2   3
BRANCH   2   5
ATOM      5  C   UNL     1     -16.299 -42.928  24.827  1.00  0.00     0.032 C 
ATOM      6  C   UNL     1     -17.327 -42.596  25.891  1.00  0.00     0.083 C 
ATOM      7  S   UNL     1     -16.862 -42.579  23.195  1.00  0.00    -0.090 SA
ATOM      8  C   UNL     1     -18.527 -42.024  25.191  1.00  0.00    -0.025 A 
ATOM      9  C   UNL     1     -18.413 -41.962  23.801  1.00  0.00     0.020 A 
ATOM     10  C   UNL     1     -19.685 -41.580  25.823  1.00  0.00     0.055 A 
ATOM     11  C   UNL     1     -19.443 -41.458  23.018  1.00  0.00     0.066 A 
ATOM     12  C   UNL     1     -20.735 -41.068  25.050  1.00  0.00     0.161 A 
ATOM     13  C   UNL     1     -20.611 -41.005  23.640  1.00  0.00     0.161 A 
BRANCH  12  14
ATOM     14  O   UNL     1     -21.918 -40.600  25.567  1.00  0.00    -0.493 OA
ATOM     15  C   UNL     1     -22.139 -40.744  26.962  1.00  0.00     0.278 C 
ENDBRANCH  12  14
BRANCH  13  16
ATOM     16  O   UNL     1     -21.692 -40.486  22.969  1.00  0.00    -0.493 OA
ATOM     17  C   UNL     1     -21.488 -39.315  22.190  1.00  0.00     0.278 C 
ENDBRANCH  13  16
ENDBRANCH   2   5
ENDBRANCH   1   2
BRANCH   1  18
ATOM     18  C   UNL     1     -13.821 -45.138  26.396  1.00  0.00     0.044 C 
BRANCH  18  19
ATOM     19  C   UNL     1     -13.098 -45.421  27.693  1.00  0.00    -0.036 A 
ATOM     20  C   UNL     1     -13.585 -44.911  28.897  1.00  0.00     0.074 A 
ATOM     21  C   UNL     1     -11.929 -46.179  27.715  1.00  0.00     0.074 A 
ATOM     22  C   UNL     1     -12.910 -45.174  30.083  1.00  0.00     0.308 A 
ATOM     23  C   UNL     1     -11.286 -46.419  28.926  1.00  0.00     0.308 A 
ATOM     24  N   UNL     1     -11.781 -45.919  30.083  1.00  0.00    -0.201 N 
BRANCH  24  25
ATOM     25  C   UNL     1     -11.076 -46.192  31.359  1.00  0.00     0.394 C 
BRANCH  25  26
ATOM     26  C   UNL     1      -9.717 -45.565  31.339  1.00  0.00     0.027 A 
ATOM     27  C   UNL     1      -8.478 -46.292  31.300  1.00  0.00     0.022 A 
ATOM     28  C   UNL     1      -9.480 -44.202  31.343  1.00  0.00     0.075 A 
ATOM     29  C   UNL     1      -7.377 -45.464  31.296  1.00  0.00     0.065 A 
ATOM     30  S   UNL     1      -7.815 -43.815  31.333  1.00  0.00    -0.152 S 
ENDBRANCH  25  26
ENDBRANCH  24  25
ENDBRANCH  18  19
ENDBRANCH   1  18
TORSDOF 9
ENDMDL
MODEL 2
REMARK VINA RESULT:   -10.186      1.050      2.221
REMARK INTER + INTRA:         -15.987
REMARK INTER:                 -15.384
REMARK INTRA:                  -0.603
REMARK UNBOUND:                -0.739
REMARK SMILES COc1cc2c(cc1OC)SC(=C(O)CCc1cc[n+](Cc3ccsc3)cc1)C2
REMARK SMILES IDX 15 1 13 2 14 3 12 5 29 6 11 7 5 8 6 9 4 10 7 11 3 12 8 13
REMARK SMILES IDX 2 14 1 15 9 16 10 17 16 18 17 19 18 20 28 21 19 22 27 23
REMARK SMILES IDX 20 24 21 25 22 26 23 27 26 28 24 29 25 30
REMARK H PARENT 14 4
ROOT
ATOM      1  C   UNL     1     -13.982 -43.676  26.216  1.00  0.00     0.080 C 
ENDROOT
BRANCH   1   2
ATOM      2  C   UNL     1     -15.010 -43.426  25.144  1.00  0.00     0.103 C 
BRANCH   2   3
ATOM      3  O   UNL     1     -14.580 -43.801  23.881  1.00  0.00    -0.511 OA
ATOM      4  H   UNL     1     -14.846 -44.734  23.752  1.00  0.00     0.293 HD
ENDBRANCH   2   3
BRANCH   2   5
ATOM      5  C   UNL     1     -16.239 -42.915  25.349  1.00  0.00     0.032 C 
ATOM      6  C   UNL     1     -17.204 -42.460  24.273  1.00  0.00     0.083 C 
ATOM      7  S   UNL     1     -16.887 -42.729  26.976  1.00  0.00    -0.090 SA
ATOM      8  C   UNL     1     -18.462 -42.011  24.960  1.00  0.00    -0.025 A 
ATOM      9  C   UNL     1     -18.426 -42.099  26.352  1.00  0.00     0.020 A 
ATOM     10  C   UNL     1     -19.600 -41.534  24.314  1.00  0.00     0.055 A 
ATOM     11  C   UNL     1     -19.515 -41.719  27.125  1.00  0.00     0.066 A 
ATOM     12  C   UNL     1     -20.709 -41.146  25.076  1.00  0.00     0.161 A 
ATOM     13  C   UNL     1     -20.666 -41.241  26.489  1.00  0.00     0.161 A 
BRANCH  12  14
ATOM     14  O   UNL     1     -21.881 -40.666  24.545  1.00  0.00    -0.493 OA
ATOM     15  C   UNL     1     -22.065 -40.761  23.140  1.00  0.00     0.278 C 
ENDBRANCH  12  14
BRANCH  13  16
ATOM     16  O   UNL     1     -21.803 -40.839  27.149  1.00  0.00    -0.493 OA
ATOM     17  C   UNL     1     -22.793 -41.820  27.421  1.00  0.00     0.278 C 
ENDBRANCH  13  16
ENDBRANCH   2   5
ENDBRANCH   1   2
BRANCH   1  18
ATOM     18  C   UNL     1     -13.776 -45.177  26.453  1.00  0.00     0.044 C 
BRANCH  18  19
ATOM     19  C   UNL     1     -13.065 -45.453  27.759  1.00  0.00    -0.036 A 
ATOM     20  C   UNL     1     -11.872 -46.178  27.772  1.00  0.00     0.074 A 
ATOM     21  C   UNL     1     -13.586 -45.007  28.972  1.00  0.00     0.074 A 
ATOM     22  C   UNL     1     -11.229 -46.429  28.978  1.00  0.00     0.308 A 
ATOM     23  C   UNL     1     -12.909 -45.281  30.155  1.00  0.00     0.308 A 
ATOM     24  N   UNL     1     -11.750 -45.981  30.143  1.00  0.00    -0.201 N 
BRANCH  24  25
ATOM     25  C   UNL     1     -11.047 -46.255  31.421  1.00  0.00     0.394 C 
BRANCH  25  26
ATOM     26  C   UNL     1      -9.700 -45.604  31.414  1.00  0.00     0.027 A 
ATOM     27  C   UNL     1      -8.452 -46.298  31.252  1.00  0.00     0.022 A 
ATOM     28  C   UNL     1      -9.483 -44.243  31.552  1.00  0.00     0.075 A 
ATOM     29  C   UNL     1      -7.365 -45.454  31.294  1.00  0.00     0.065 A 
ATOM     30  S   UNL     1      -7.825 -43.826  31.520  1.00  0.00    -0.152 S 
ENDBRANCH  25  26
ENDBRANCH  24  25
ENDBRANCH  18  19
ENDBRANCH   1  18
TORSDOF 9
ENDMDL
MODEL 3
REMARK VINA RESULT:    -9.723      1.372      2.516
REMARK INTER + INTRA:         -15.293
REMARK INTER:                 -14.606
REMARK INTRA:                  -0.687
REMARK UNBOUND:                -0.739
REMARK SMILES COc1cc2c(cc1OC)SC(=C(O)CCc1cc[n+](Cc3ccsc3)cc1)C2
REMARK SMILES IDX 15 1 13 2 14 3 12 5 29 6 11 7 5 8 6 9 4 10 7 11 3 12 8 13
REMARK SMILES IDX 2 14 1 15 9 16 10 17 16 18 17 19 18 20 28 21 19 22 27 23
REMARK SMILES IDX 20 24 21 25 22 26 23 27 26 28 24 29 25 30
REMARK H PARENT 14 4
ROOT
ATOM      1  C   UNL     1     -15.230 -43.574  25.971  1.00  0.00     0.080 C 
ENDROOT
BRANCH   1   2
ATOM      2  C   UNL     1     -15.444 -42.928  24.627  1.00  0.00     0.103 C 
BRANCH   2   3
ATOM      3  O   UNL     1     -14.313 -42.952  23.827  1.00  0.00    -0.511 OA
ATOM      4  H   UNL     1     -14.580 -42.627  22.943  1.00  0.00     0.293 HD
ENDBRANCH   2   3
BRANCH   2   5
ATOM      5  C   UNL     1     -16.602 -42.390  24.198  1.00  0.00     0.032 C 
ATOM      6  C   UNL     1     -16.844 -41.774  22.835  1.00  0.00     0.083 C 
ATOM      7  S   UNL     1     -18.030 -42.364  25.228  1.00  0.00    -0.090 SA
ATOM      8  C   UNL     1     -18.285 -41.352  22.785  1.00  0.00    -0.025 A 
ATOM      9  C   UNL     1     -19.004 -41.601  23.954  1.00  0.00     0.020 A 
ATOM     10  C   UNL     1     -18.906 -40.755  21.690  1.00  0.00     0.055 A 
ATOM     11  C   UNL     1     -20.347 -41.265  24.058  1.00  0.00     0.066 A 
ATOM     12  C   UNL     1     -20.260 -40.409  21.775  1.00  0.00     0.161 A 
ATOM     13  C   UNL     1     -20.985 -40.667  22.965  1.00  0.00     0.161 A 
BRANCH  12  14
ATOM     14  O   UNL     1     -20.972 -39.821  20.759  1.00  0.00    -0.493 OA
ATOM     15  C   UNL     1     -20.345 -38.784  20.018  1.00  0.00     0.278 C 
ENDBRANCH  12  14
BRANCH  13  16
ATOM     16  O   UNL     1     -22.307 -40.294  22.952  1.00  0.00    -0.493 OA
ATOM     17  C   UNL     1     -23.285 -41.318  23.061  1.00  0.00     0.278 C 
ENDBRANCH  13  16
ENDBRANCH   2   5
ENDBRANCH   1   2
BRANCH   1  18
ATOM     18  C   UNL     1     -14.137 -44.646  25.909  1.00  0.00     0.044 C 
BRANCH  18  19
ATOM     19  C   UNL     1     -13.655 -45.048  27.285  1.00  0.00    -0.036 A 
ATOM     20  C   UNL     1     -12.621 -45.973  27.427  1.00  0.00     0.074 A 
ATOM     21  C   UNL     1     -14.237 -44.518  28.435  1.00  0.00     0.074 A 
ATOM     22  C   UNL     1     -12.188 -46.338  28.696  1.00  0.00     0.308 A 
ATOM     23  C   UNL     1     -13.772 -44.910  29.686  1.00  0.00     0.308 A 
ATOM     24  N   UNL     1     -12.763 -45.806  29.799  1.00  0.00    -0.201 N 
BRANCH  24  25
ATOM     25  C   UNL     1     -12.285 -46.204  31.146  1.00  0.00     0.394 C 
BRANCH  25  26
ATOM     26  C   UNL     1     -10.928 -45.625  31.400  1.00  0.00     0.027 A 
ATOM     27  C   UNL     1      -9.691 -46.343  31.268  1.00  0.00     0.022 A 
ATOM     28  C   UNL     1     -10.691 -44.316  31.785  1.00  0.00     0.075 A 
ATOM     29  C   UNL     1      -8.593 -45.569  31.571  1.00  0.00     0.065 A 
ATOM     30  S   UNL     1      -9.030 -43.979  32.010  1.00  0.00    -0.152 S 
ENDBRANCH  25  26
ENDBRANCH  24  25
ENDBRANCH  18  19
ENDBRANCH   1  18
TORSDOF 9
ENDMDL
MODEL 4
REMARK VINA RESULT:    -9.705      1.640      2.294
REMARK INTER + INTRA:         -15.267
REMARK INTER:                 -14.337
REMARK INTRA:                  -0.929
REMARK UNBOUND:                -0.739
REMARK SMILES COc1cc2c(cc1OC)SC(=C(O)CCc1cc[n+](Cc3ccsc3)cc1)C2
REMARK SMILES IDX 15 1 13 2 14 3 12 5 29 6 11 7 5 8 6 9 4 10 7 11 3 12 8 13
REMARK SMILES IDX 2 14 1 15 9 16 10 17 16 18 17 19 18 20 28 21 19 22 27 23
REMARK SMILES IDX 20 24 21 25 22 26 23 27 26 28 24 29 25 30
REMARK H PARENT 14 4
ROOT
ATOM      1  C   UNL     1     -14.310 -42.759  25.423  1.00  0.00     0.080 C 
ENDROOT
BRANCH   1   2
ATOM      2  C   UNL     1     -15.370 -42.282  24.465  1.00  0.00     0.103 C 
BRANCH   2   3
ATOM      3  O   UNL     1     -14.848 -41.777  23.285  1.00  0.00    -0.511 OA
ATOM      4  H   UNL     1     -15.391 -40.999  23.041  1.00  0.00     0.293 HD
ENDBRANCH   2   3
BRANCH   2   5
ATOM      5  C   UNL     1     -16.698 -42.341  24.683  1.00  0.00     0.032 C 
ATOM      6  C   UNL     1     -17.370 -42.547  26.026  1.00  0.00     0.083 C 
ATOM      7  S   UNL     1     -17.846 -42.159  23.360  1.00  0.00    -0.090 SA
ATOM      8  C   UNL     1     -18.854 -42.495  25.795  1.00  0.00    -0.025 A 
ATOM      9  C   UNL     1     -19.229 -42.301  24.465  1.00  0.00     0.020 A 
ATOM     10  C   UNL     1     -19.822 -42.628  26.788  1.00  0.00     0.055 A 
ATOM     11  C   UNL     1     -20.566 -42.233  24.098  1.00  0.00     0.066 A 
ATOM     12  C   UNL     1     -21.177 -42.561  26.437  1.00  0.00     0.161 A 
ATOM     13  C   UNL     1     -21.550 -42.361  25.085  1.00  0.00     0.161 A 
BRANCH  12  14
ATOM     14  O   UNL     1     -22.212 -42.675  27.332  1.00  0.00    -0.493 OA
ATOM     15  C   UNL     1     -22.587 -43.977  27.757  1.00  0.00     0.278 C 
ENDBRANCH  12  14
BRANCH  13  16
ATOM     16  O   UNL     1     -22.901 -42.308  24.840  1.00  0.00    -0.493 OA
ATOM     17  C   UNL     1     -23.472 -43.342  24.051  1.00  0.00     0.278 C 
ENDBRANCH  13  16
ENDBRANCH   2   5
ENDBRANCH   1   2
BRANCH   1  18
ATOM     18  C   UNL     1     -14.266 -44.290  25.491  1.00  0.00     0.044 C 
BRANCH  18  19
ATOM     19  C   UNL     1     -13.910 -44.787  26.874  1.00  0.00    -0.036 A 
ATOM     20  C   UNL     1     -13.022 -45.852  27.032  1.00  0.00     0.074 A 
ATOM     21  C   UNL     1     -14.466 -44.209  28.013  1.00  0.00     0.074 A 
ATOM     22  C   UNL     1     -12.704 -46.304  28.307  1.00  0.00     0.308 A 
ATOM     23  C   UNL     1     -14.119 -44.693  29.270  1.00  0.00     0.308 A 
ATOM     24  N   UNL     1     -13.251 -45.723  29.400  1.00  0.00    -0.201 N 
BRANCH  24  25
ATOM     25  C   UNL     1     -12.897 -46.217  30.754  1.00  0.00     0.394 C 
BRANCH  25  26
ATOM     26  C   UNL     1     -11.582 -45.641  31.181  1.00  0.00     0.027 A 
ATOM     27  C   UNL     1     -11.408 -44.346  31.779  1.00  0.00     0.022 A 
ATOM     28  C   UNL     1     -10.365 -46.290  31.065  1.00  0.00     0.075 A 
ATOM     29  C   UNL     1     -10.090 -44.067  32.066  1.00  0.00     0.065 A 
ATOM     30  S   UNL     1      -9.053 -45.350  31.630  1.00  0.00    -0.152 S 
ENDBRANCH  25  26
ENDBRANCH  24  25
ENDBRANCH  18  19
ENDBRANCH   1  18
TORSDOF 9
ENDMDL
MODEL 5
REMARK VINA RESULT:    -9.412      1.726      2.078
REMARK INTER + INTRA:         -14.828
REMARK INTER:                 -14.358
REMARK INTRA:                  -0.470
REMARK UNBOUND:                -0.739
REMARK SMILES COc1cc2c(cc1OC)SC(=C(O)CCc1cc[n+](Cc3ccsc3)cc1)C2
REMARK SMILES IDX 15 1 13 2 14 3 12 5 29 6 11 7 5 8 6 9 4 10 7 11 3 12 8 13
REMARK SMILES IDX 2 14 1 15 9 16 10 17 16 18 17 19 18 20 28 21 19 22 27 23
REMARK SMILES IDX 20 24 21 25 22 26 23 27 26 28 24 29 25 30
REMARK H PARENT 14 4
ROOT
ATOM      1  C   UNL     1     -14.057 -43.667  26.408  1.00  0.00     0.080 C 
ENDROOT
BRANCH   1   2
ATOM      2  C   UNL     1     -15.438 -43.193  26.775  1.00  0.00     0.103 C 
BRANCH   2   3
ATOM      3  O   UNL     1     -15.650 -43.146  28.144  1.00  0.00    -0.511 OA
ATOM      4  H   UNL     1     -16.381 -42.512  28.299  1.00  0.00     0.293 HD
ENDBRANCH   2   3
BRANCH   2   5
ATOM      5  C   UNL     1     -16.392 -42.824  25.899  1.00  0.00     0.032 C 
ATOM      6  C   UNL     1     -17.807 -42.408  26.249  1.00  0.00     0.083 C 
ATOM      7  S   UNL     1     -16.067 -42.769  24.169  1.00  0.00    -0.090 SA
ATOM      8  C   UNL     1     -18.494 -42.037  24.965  1.00  0.00    -0.025 A 
ATOM      9  C   UNL     1     -17.706 -42.179  23.823  1.00  0.00     0.020 A 
ATOM     10  C   UNL     1     -19.808 -41.585  24.863  1.00  0.00     0.055 A 
ATOM     11  C   UNL     1     -18.205 -41.875  22.563  1.00  0.00     0.066 A 
ATOM     12  C   UNL     1     -20.329 -41.273  23.601  1.00  0.00     0.161 A 
ATOM     13  C   UNL     1     -19.522 -41.418  22.445  1.00  0.00     0.161 A 
BRANCH  12  14
ATOM     14  O   UNL     1     -21.606 -40.818  23.384  1.00  0.00    -0.493 OA
ATOM     15  C   UNL     1     -22.674 -41.495  24.029  1.00  0.00     0.278 C 
ENDBRANCH  12  14
BRANCH  13  16
ATOM     16  O   UNL     1     -20.121 -41.085  21.254  1.00  0.00    -0.493 OA
ATOM     17  C   UNL     1     -19.684 -39.902  20.601  1.00  0.00     0.278 C 
ENDBRANCH  13  16
ENDBRANCH   2   5
ENDBRANCH   1   2
BRANCH   1  18
ATOM     18  C   UNL     1     -13.774 -45.063  26.976  1.00  0.00     0.044 C 
BRANCH  18  19
ATOM     19  C   UNL     1     -12.569 -45.071  27.890  1.00  0.00    -0.036 A 
ATOM     20  C   UNL     1     -11.742 -43.952  27.976  1.00  0.00     0.074 A 
ATOM     21  C   UNL     1     -12.251 -46.195  28.651  1.00  0.00     0.074 A 
ATOM     22  C   UNL     1     -10.635 -43.972  28.815  1.00  0.00     0.308 A 
ATOM     23  C   UNL     1     -11.133 -46.171  29.479  1.00  0.00     0.308 A 
ATOM     24  N   UNL     1     -10.348 -45.070  29.551  1.00  0.00    -0.201 N 
BRANCH  24  25
ATOM     25  C   UNL     1      -9.164 -45.072  30.445  1.00  0.00     0.394 C 
BRANCH  25  26
ATOM     26  C   UNL     1      -9.404 -44.169  31.614  1.00  0.00     0.027 A 
ATOM     27  C   UNL     1      -8.372 -43.588  32.429  1.00  0.00     0.022 A 
ATOM     28  C   UNL     1     -10.654 -43.768  32.055  1.00  0.00     0.075 A 
ATOM     29  C   UNL     1      -8.875 -42.804  33.443  1.00  0.00     0.065 A 
ATOM     30  S   UNL     1     -10.581 -42.750  33.426  1.00  0.00    -0.152 S 
ENDBRANCH  25  26
ENDBRANCH  24  25
ENDBRANCH  18  19
ENDBRANCH   1  18
TORSDOF 9
ENDMDL
MODEL 6
REMARK VINA RESULT:    -9.272      2.193      2.499
REMARK INTER + INTRA:         -14.619
REMARK INTER:                 -13.971
REMARK INTRA:                  -0.648
REMARK UNBOUND:                -0.739
REMARK SMILES COc1cc2c(cc1OC)SC(=C(O)CCc1cc[n+](Cc3ccsc3)cc1)C2
REMARK SMILES IDX 15 1 13 2 14 3 12 5 29 6 11 7 5 8 6 9 4 10 7 11 3 12 8 13
REMARK SMILES IDX 2 14 1 15 9 16 10 17 16 18 17 19 18 20 28 21 19 22 27 23
REMARK SMILES IDX 20 24 21 25 22 26 23 27 26 28 24 29 25 30
REMARK H PARENT 14 4
ROOT
ATOM      1  C   UNL     1     -14.830 -43.105  25.543  1.00  0.00     0.080 C 
ENDROOT
BRANCH   1   2
ATOM      2  C   UNL     1     -15.865 -43.088  24.448  1.00  0.00     0.103 C 
BRANCH   2   3
ATOM      3  O   UNL     1     -15.420 -43.670  23.272  1.00  0.00    -0.511 OA
ATOM      4  H   UNL     1     -14.696 -43.106  22.929  1.00  0.00     0.293 HD
ENDBRANCH   2   3
BRANCH   2   5
ATOM      5  C   UNL     1     -17.111 -42.592  24.565  1.00  0.00     0.032 C 
ATOM      6  C   UNL     1     -17.878 -42.408  25.859  1.00  0.00     0.083 C 
ATOM      7  S   UNL     1     -18.016 -42.063  23.150  1.00  0.00    -0.090 SA
ATOM      8  C   UNL     1     -19.198 -41.781  25.512  1.00  0.00    -0.025 A 
ATOM      9  C   UNL     1     -19.392 -41.553  24.149  1.00  0.00     0.020 A 
ATOM     10  C   UNL     1     -20.186 -41.437  26.432  1.00  0.00     0.055 A 
ATOM     11  C   UNL     1     -20.564 -40.979  23.676  1.00  0.00     0.066 A 
ATOM     12  C   UNL     1     -21.376 -40.857  25.974  1.00  0.00     0.161 A 
ATOM     13  C   UNL     1     -21.565 -40.626  24.589  1.00  0.00     0.161 A 
BRANCH  12  14
ATOM     14  O   UNL     1     -22.413 -40.477  26.790  1.00  0.00    -0.493 OA
ATOM     15  C   UNL     1     -23.291 -41.485  27.267  1.00  0.00     0.278 C 
ENDBRANCH  12  14
BRANCH  13  16
ATOM     16  O   UNL     1     -22.763 -40.052  24.237  1.00  0.00    -0.493 OA
ATOM     17  C   UNL     1     -23.704 -40.857  23.541  1.00  0.00     0.278 C 
ENDBRANCH  13  16
ENDBRANCH   2   5
ENDBRANCH   1   2
BRANCH   1  18
ATOM     18  C   UNL     1     -14.182 -44.487  25.679  1.00  0.00     0.044 C 
BRANCH  18  19
ATOM     19  C   UNL     1     -13.897 -44.842  27.121  1.00  0.00    -0.036 A 
ATOM     20  C   UNL     1     -14.618 -44.239  28.152  1.00  0.00     0.074 A 
ATOM     21  C   UNL     1     -12.903 -45.762  27.454  1.00  0.00     0.074 A 
ATOM     22  C   UNL     1     -14.346 -44.570  29.474  1.00  0.00     0.308 A 
ATOM     23  C   UNL     1     -12.664 -46.064  28.790  1.00  0.00     0.308 A 
ATOM     24  N   UNL     1     -13.382 -45.470  29.773  1.00  0.00    -0.201 N 
BRANCH  24  25
ATOM     25  C   UNL     1     -13.107 -45.814  31.190  1.00  0.00     0.394 C 
BRANCH  25  26
ATOM     26  C   UNL     1     -13.084 -44.571  32.023  1.00  0.00     0.027 A 
ATOM     27  C   UNL     1     -11.952 -43.697  32.166  1.00  0.00     0.022 A 
ATOM     28  C   UNL     1     -14.158 -44.096  32.757  1.00  0.00     0.075 A 
ATOM     29  C   UNL     1     -12.206 -42.630  32.999  1.00  0.00     0.065 A 
ATOM     30  S   UNL     1     -13.798 -42.661  33.613  1.00  0.00    -0.152 S 
ENDBRANCH  25  26
ENDBRANCH  24  25
ENDBRANCH  18  19
ENDBRANCH   1  18
TORSDOF 9
ENDMDL
MODEL 7
REMARK VINA RESULT:    -8.722      2.165      3.292
REMARK INTER + INTRA:         -13.795
REMARK INTER:                 -13.419
REMARK INTRA:                  -0.376
REMARK UNBOUND:                -0.739
REMARK SMILES COc1cc2c(cc1OC)SC(=C(O)CCc1cc[n+](Cc3ccsc3)cc1)C2
REMARK SMILES IDX 15 1 13 2 14 3 12 5 29 6 11 7 5 8 6 9 4 10 7 11 3 12 8 13
REMARK SMILES IDX 2 14 1 15 9 16 10 17 16 18 17 19 18 20 28 21 19 22 27 23
REMARK SMILES IDX 20 24 21 25 22 26 23 27 26 28 24 29 25 30
REMARK H PARENT 14 4
ROOT
ATOM      1  C   UNL     1     -16.880 -42.400  28.078  1.00  0.00     0.080 C 
ENDROOT
BRANCH   1   2
ATOM      2  C   UNL     1     -18.341 -42.572  27.757  1.00  0.00     0.103 C 
BRANCH   2   3
ATOM      3  O   UNL     1     -19.043 -43.228  28.756  1.00  0.00    -0.511 OA
ATOM      4  H   UNL     1     -19.755 -42.623  29.050  1.00  0.00     0.293 HD
ENDBRANCH   2   3
BRANCH   2   5
ATOM      5  C   UNL     1     -18.948 -42.131  26.639  1.00  0.00     0.032 C 
ATOM      6  C   UNL     1     -18.391 -42.217  25.232  1.00  0.00     0.083 C 
ATOM      7  S   UNL     1     -20.542 -41.385  26.702  1.00  0.00    -0.090 SA
ATOM      8  C   UNL     1     -19.428 -41.649  24.305  1.00  0.00    -0.025 A 
ATOM      9  C   UNL     1     -20.582 -41.186  24.938  1.00  0.00     0.020 A 
ATOM     10  C   UNL     1     -19.301 -41.563  22.920  1.00  0.00     0.055 A 
ATOM     11  C   UNL     1     -21.628 -40.633  24.212  1.00  0.00     0.066 A 
ATOM     12  C   UNL     1     -20.346 -41.008  22.170  1.00  0.00     0.161 A 
ATOM     13  C   UNL     1     -21.516 -40.542  22.820  1.00  0.00     0.161 A 
BRANCH  12  14
ATOM     14  O   UNL     1     -20.330 -40.877  20.803  1.00  0.00    -0.493 OA
ATOM     15  C   UNL     1     -19.623 -39.778  20.247  1.00  0.00     0.278 C 
ENDBRANCH  12  14
BRANCH  13  16
ATOM     16  O   UNL     1     -22.485 -40.016  22.000  1.00  0.00    -0.493 OA
ATOM     17  C   UNL     1     -22.857 -38.660  22.198  1.00  0.00     0.278 C 
ENDBRANCH  13  16
ENDBRANCH   2   5
ENDBRANCH   1   2
BRANCH   1  18
ATOM     18  C   UNL     1     -15.992 -42.972  26.966  1.00  0.00     0.044 C 
BRANCH  18  19
ATOM     19  C   UNL     1     -14.905 -43.871  27.512  1.00  0.00    -0.036 A 
ATOM     20  C   UNL     1     -14.001 -44.489  26.647  1.00  0.00     0.074 A 
ATOM     21  C   UNL     1     -14.790 -44.113  28.880  1.00  0.00     0.074 A 
ATOM     22  C   UNL     1     -13.008 -45.316  27.159  1.00  0.00     0.308 A 
ATOM     23  C   UNL     1     -13.781 -44.948  29.349  1.00  0.00     0.308 A 
ATOM     24  N   UNL     1     -12.911 -45.532  28.491  1.00  0.00    -0.201 N 
BRANCH  24  25
ATOM     25  C   UNL     1     -11.842 -46.414  29.020  1.00  0.00     0.394 C 
BRANCH  25  26
ATOM     26  C   UNL     1     -10.886 -45.619  29.852  1.00  0.00     0.027 A 
ATOM     27  C   UNL     1     -10.663 -45.813  31.258  1.00  0.00     0.022 A 
ATOM     28  C   UNL     1     -10.084 -44.599  29.370  1.00  0.00     0.075 A 
ATOM     29  C   UNL     1      -9.734 -44.936  31.774  1.00  0.00     0.065 A 
ATOM     30  S   UNL     1      -9.119 -43.880  30.584  1.00  0.00    -0.152 S 
ENDBRANCH  25  26
ENDBRANCH  24  25
ENDBRANCH  18  19
ENDBRANCH   1  18
TORSDOF 9
ENDMDL
MODEL 8
REMARK VINA RESULT:    -8.580      3.837     11.622
REMARK INTER + INTRA:         -13.583
REMARK INTER:                 -13.677
REMARK INTRA:                   0.094
REMARK UNBOUND:                -0.739
REMARK SMILES COc1cc2c(cc1OC)SC(=C(O)CCc1cc[n+](Cc3ccsc3)cc1)C2
REMARK SMILES IDX 15 1 13 2 14 3 12 5 29 6 11 7 5 8 6 9 4 10 7 11 3 12 8 13
REMARK SMILES IDX 2 14 1 15 9 16 10 17 16 18 17 19 18 20 28 21 19 22 27 23
REMARK SMILES IDX 20 24 21 25 22 26 23 27 26 28 24 29 25 30
REMARK H PARENT 14 4
ROOT
ATOM      1  C   UNL     1     -14.545 -43.882  25.240  1.00  0.00     0.080 C 
ENDROOT
BRANCH   1   2
ATOM      2  C   UNL     1     -14.306 -43.695  26.715  1.00  0.00     0.103 C 
BRANCH   2   3
ATOM      3  O   UNL     1     -15.421 -43.227  27.391  1.00  0.00    -0.511 OA
ATOM      4  H   UNL     1     -15.098 -42.641  28.106  1.00  0.00     0.293 HD
ENDBRANCH   2   3
BRANCH   2   5
ATOM      5  C   UNL     1     -13.152 -43.963  27.356  1.00  0.00     0.032 C 
ATOM      6  C   UNL     1     -12.063 -42.961  27.682  1.00  0.00     0.083 C 
ATOM      7  S   UNL     1     -12.781 -45.589  27.922  1.00  0.00    -0.090 SA
ATOM      8  C   UNL     1     -10.993 -43.694  28.440  1.00  0.00    -0.025 A 
ATOM      9  C   UNL     1     -11.243 -45.054  28.629  1.00  0.00     0.020 A 
ATOM     10  C   UNL     1      -9.825 -43.117  28.934  1.00  0.00     0.055 A 
ATOM     11  C   UNL     1     -10.344 -45.862  29.312  1.00  0.00     0.066 A 
ATOM     12  C   UNL     1      -8.905 -43.916  29.626  1.00  0.00     0.161 A 
ATOM     13  C   UNL     1      -9.168 -45.296  29.816  1.00  0.00     0.161 A 
BRANCH  12  14
ATOM     14  O   UNL     1      -7.727 -43.453  30.157  1.00  0.00    -0.493 OA
ATOM     15  C   UNL     1      -7.639 -43.318  31.568  1.00  0.00     0.278 C 
ENDBRANCH  12  14
BRANCH  13  16
ATOM     16  O   UNL     1      -8.208 -45.995  30.508  1.00  0.00    -0.493 OA
ATOM     17  C   UNL     1      -8.636 -47.075  31.326  1.00  0.00     0.278 C 
ENDBRANCH  13  16
ENDBRANCH   2   5
ENDBRANCH   1   2
BRANCH   1  18
ATOM     18  C   UNL     1     -14.769 -42.539  24.535  1.00  0.00     0.044 C 
BRANCH  18  19
ATOM     19  C   UNL     1     -16.196 -42.376  24.063  1.00  0.00    -0.036 A 
ATOM     20  C   UNL     1     -17.255 -42.842  24.843  1.00  0.00     0.074 A 
ATOM     21  C   UNL     1     -16.485 -41.774  22.839  1.00  0.00     0.074 A 
ATOM     22  C   UNL     1     -18.562 -42.690  24.397  1.00  0.00     0.308 A 
ATOM     23  C   UNL     1     -17.809 -41.642  22.433  1.00  0.00     0.308 A 
ATOM     24  N   UNL     1     -18.820 -42.096  23.209  1.00  0.00    -0.201 N 
BRANCH  24  25
ATOM     25  C   UNL     1     -20.222 -41.939  22.752  1.00  0.00     0.394 C 
BRANCH  25  26
ATOM     26  C   UNL     1     -20.328 -40.777  21.815  1.00  0.00     0.027 A 
ATOM     27  C   UNL     1     -20.481 -39.406  22.221  1.00  0.00     0.022 A 
ATOM     28  C   UNL     1     -20.281 -40.872  20.435  1.00  0.00     0.075 A 
ATOM     29  C   UNL     1     -20.561 -38.542  21.151  1.00  0.00     0.065 A 
ATOM     30  S   UNL     1     -20.449 -39.359  19.657  1.00  0.00    -0.152 S 
ENDBRANCH  25  26
ENDBRANCH  24  25
ENDBRANCH  18  19
ENDBRANCH   1  18
TORSDOF 9
ENDMDL
MODEL 9
REMARK VINA RESULT:    -8.444      3.144      5.310
REMARK INTER + INTRA:         -13.379
REMARK INTER:                 -12.759
REMARK INTRA:                  -0.620
REMARK UNBOUND:                -0.739
REMARK SMILES COc1cc2c(cc1OC)SC(=C(O)CCc1cc[n+](Cc3ccsc3)cc1)C2
REMARK SMILES IDX 15 1 13 2 14 3 12 5 29 6 11 7 5 8 6 9 4 10 7 11 3 12 8 13
REMARK SMILES IDX 2 14 1 15 9 16 10 17 16 18 17 19 18 20 28 21 19 22 27 23
REMARK SMILES IDX 20 24 21 25 22 26 23 27 26 28 24 29 25 30
REMARK H PARENT 14 4
ROOT
ATOM      1  C   UNL     1     -17.422 -41.678  23.416  1.00  0.00     0.080 C 
ENDROOT
BRANCH   1   2
ATOM      2  C   UNL     1     -17.645 -40.846  22.180  1.00  0.00     0.103 C 
BRANCH   2   3
ATOM      3  O   UNL     1     -16.506 -40.712  21.403  1.00  0.00    -0.511 OA
ATOM      4  H   UNL     1     -15.942 -40.037  21.834  1.00  0.00     0.293 HD
ENDBRANCH   2   3
BRANCH   2   5
ATOM      5  C   UNL     1     -18.817 -40.290  21.819  1.00  0.00     0.032 C 
ATOM      6  C   UNL     1     -19.075 -39.509  20.545  1.00  0.00     0.083 C 
ATOM      7  S   UNL     1     -20.247 -40.436  22.837  1.00  0.00    -0.090 SA
ATOM      8  C   UNL     1     -20.528 -39.125  20.543  1.00  0.00    -0.025 A 
ATOM      9  C   UNL     1     -21.240 -39.542  21.668  1.00  0.00     0.020 A 
ATOM     10  C   UNL     1     -21.164 -38.409  19.532  1.00  0.00     0.055 A 
ATOM     11  C   UNL     1     -22.592 -39.259  21.808  1.00  0.00     0.066 A 
ATOM     12  C   UNL     1     -22.528 -38.114  19.654  1.00  0.00     0.161 A 
ATOM     13  C   UNL     1     -23.246 -38.544  20.798  1.00  0.00     0.161 A 
BRANCH  12  14
ATOM     14  O   UNL     1     -23.254 -37.420  18.719  1.00  0.00    -0.493 OA
ATOM     15  C   UNL     1     -22.829 -37.479  17.365  1.00  0.00     0.278 C 
ENDBRANCH  12  14
BRANCH  13  16
ATOM     16  O   UNL     1     -24.578 -38.208  20.827  1.00  0.00    -0.493 OA
ATOM     17  C   UNL     1     -25.526 -39.266  20.849  1.00  0.00     0.278 C 
ENDBRANCH  13  16
ENDBRANCH   2   5
ENDBRANCH   1   2
BRANCH   1  18
ATOM     18  C   UNL     1     -16.452 -42.834  23.144  1.00  0.00     0.044 C 
BRANCH  18  19
ATOM     19  C   UNL     1     -15.769 -43.311  24.405  1.00  0.00    -0.036 A 
ATOM     20  C   UNL     1     -16.133 -42.787  25.646  1.00  0.00     0.074 A 
ATOM     21  C   UNL     1     -14.756 -44.268  24.358  1.00  0.00     0.074 A 
ATOM     22  C   UNL     1     -15.495 -43.230  26.799  1.00  0.00     0.308 A 
ATOM     23  C   UNL     1     -14.145 -44.683  25.537  1.00  0.00     0.308 A 
ATOM     24  N   UNL     1     -14.519 -44.165  26.730  1.00  0.00    -0.201 N 
BRANCH  24  25
ATOM     25  C   UNL     1     -13.852 -44.629  27.971  1.00  0.00     0.394 C 
BRANCH  25  26
ATOM     26  C   UNL     1     -12.456 -44.094  28.033  1.00  0.00     0.027 A 
ATOM     27  C   UNL     1     -12.038 -42.825  27.502  1.00  0.00     0.022 A 
ATOM     28  C   UNL     1     -11.387 -44.750  28.620  1.00  0.00     0.075 A 
ATOM     29  C   UNL     1     -10.694 -42.589  27.690  1.00  0.00     0.065 A 
ATOM     30  S   UNL     1      -9.923 -43.875  28.504  1.00  0.00    -0.152 S 
ENDBRANCH  25  26
ENDBRANCH  24  25
ENDBRANCH  18  19
ENDBRANCH   1  18
TORSDOF 9
ENDMDL
