MODEL 1
REMARK VINA RESULT:    -9.764      0.000      0.000
REMARK INTER + INTRA:         -10.049
REMARK INTER:                 -10.049
REMARK INTRA:                   0.000
REMARK UNBOUND:                 0.000
REMARK SMILES CC1=C[C@@H]2Cc3[nH]c4cc(Cl)ccc4c(=N)c3[C@H](C1)C2
REMARK SMILES IDX 7 1 6 2 17 3 15 4 14 5 13 6 12 7 10 8 11 9 9 10 8 11 18 12
REMARK SMILES IDX 19 13 2 14 1 15 3 16 4 17 5 18 20 19 16 21
REMARK H PARENT 7 20 16 22
ROOT
ATOM      1  N   UNL     1     -13.449 -45.015  27.125  1.00  0.00    -0.358 N 
ATOM      2  C   UNL     1     -13.204 -45.267  28.458  1.00  0.00     0.021 A 
ATOM      3  C   UNL     1     -13.978 -44.786  29.459  1.00  0.00     0.000 A 
ATOM      4  C   UNL     1     -15.151 -43.911  29.097  1.00  0.00     0.068 A 
ATOM      5  C   UNL     1     -15.370 -43.629  27.647  1.00  0.00     0.023 A 
ATOM      6  C   UNL     1     -16.437 -42.819  27.232  1.00  0.00     0.014 A 
ATOM      7  C   UNL     1     -16.631 -42.565  25.874  1.00  0.00     0.021 A 
ATOM      8  C   UNL     1     -15.764 -43.124  24.939  1.00  0.00     0.043 A 
ATOM      9  Cl  UNL     1     -16.008 -42.820  23.262  1.00  0.00    -0.084 Cl
ATOM     10  C   UNL     1     -14.701 -43.932  25.346  1.00  0.00     0.047 A 
ATOM     11  C   UNL     1     -14.490 -44.181  26.706  1.00  0.00     0.049 A 
ATOM     12  C   UNL     1     -13.712 -45.108  30.923  1.00  0.00     0.028 C 
ATOM     13  C   UNL     1     -12.947 -43.954  31.612  1.00  0.00     0.039 C 
ATOM     14  C   UNL     1     -11.458 -43.950  31.321  1.00  0.00    -0.076 C 
ATOM     15  C   UNL     1     -10.701 -42.735  31.772  1.00  0.00     0.039 C 
ATOM     16  C   UNL     1     -10.861 -44.974  30.682  1.00  0.00    -0.024 C 
ATOM     17  C   UNL     1     -11.607 -46.217  30.240  1.00  0.00     0.018 C 
ATOM     18  C   UNL     1     -11.980 -46.128  28.748  1.00  0.00     0.062 C 
ATOM     19  C   UNL     1     -12.889 -46.396  31.056  1.00  0.00     0.017 C 
ATOM     20  H   UNL     1     -12.752 -45.301  26.448  1.00  0.00     0.166 HD
ENDROOT
BRANCH   4  21
ATOM     21  N   UNL     1     -15.965 -43.388  29.961  1.00  0.00    -0.300 NA
ATOM     22  H   UNL     1     -15.523 -42.662  30.523  1.00  0.00     0.188 HD
ENDBRANCH   4  21
TORSDOF 1
ENDMDL
MODEL 2
REMARK VINA RESULT:    -9.516      2.056      3.161
REMARK INTER + INTRA:          -9.794
REMARK INTER:                  -9.794
REMARK INTRA:                   0.000
REMARK UNBOUND:                 0.000
REMARK SMILES CC1=C[C@@H]2Cc3[nH]c4cc(Cl)ccc4c(=N)c3[C@H](C1)C2
REMARK SMILES IDX 7 1 6 2 17 3 15 4 14 5 13 6 12 7 10 8 11 9 9 10 8 11 18 12
REMARK SMILES IDX 19 13 2 14 1 15 3 16 4 17 5 18 20 19 16 21
REMARK H PARENT 7 20 16 22
ROOT
ATOM      1  N   UNL     1     -10.775 -43.200  27.878  1.00  0.00    -0.358 N 
ATOM      2  C   UNL     1     -10.158 -43.845  28.928  1.00  0.00     0.021 A 
ATOM      3  C   UNL     1     -10.760 -44.808  29.664  1.00  0.00     0.000 A 
ATOM      4  C   UNL     1     -12.184 -45.174  29.333  1.00  0.00     0.068 A 
ATOM      5  C   UNL     1     -12.836 -44.434  28.212  1.00  0.00     0.023 A 
ATOM      6  C   UNL     1     -14.161 -44.715  27.849  1.00  0.00     0.014 A 
ATOM      7  C   UNL     1     -14.759 -44.017  26.798  1.00  0.00     0.021 A 
ATOM      8  C   UNL     1     -14.028 -43.047  26.114  1.00  0.00     0.043 A 
ATOM      9  Cl  UNL     1     -14.760 -42.192  24.812  1.00  0.00    -0.084 Cl
ATOM     10  C   UNL     1     -12.709 -42.764  26.471  1.00  0.00     0.047 A 
ATOM     11  C   UNL     1     -12.106 -43.449  27.532  1.00  0.00     0.049 A 
ATOM     12  C   UNL     1     -10.047 -45.536  30.795  1.00  0.00     0.028 C 
ATOM     13  C   UNL     1     -10.426 -44.929  32.167  1.00  0.00     0.039 C 
ATOM     14  C   UNL     1      -9.681 -43.648  32.494  1.00  0.00    -0.076 C 
ATOM     15  C   UNL     1     -10.163 -42.893  33.699  1.00  0.00     0.039 C 
ATOM     16  C   UNL     1      -8.658 -43.213  31.733  1.00  0.00    -0.024 C 
ATOM     17  C   UNL     1      -8.145 -43.974  30.528  1.00  0.00     0.018 C 
ATOM     18  C   UNL     1      -8.733 -43.396  29.227  1.00  0.00     0.062 C 
ATOM     19  C   UNL     1      -8.525 -45.453  30.622  1.00  0.00     0.017 C 
ATOM     20  H   UNL     1     -10.307 -42.403  27.463  1.00  0.00     0.166 HD
ENDROOT
BRANCH   4  21
ATOM     21  N   UNL     1     -12.871 -46.077  29.963  1.00  0.00    -0.300 NA
ATOM     22  H   UNL     1     -13.011 -46.919  29.405  1.00  0.00     0.188 HD
ENDBRANCH   4  21
TORSDOF 1
ENDMDL
MODEL 3
REMARK VINA RESULT:    -8.769      4.047      7.120
REMARK INTER + INTRA:          -9.026
REMARK INTER:                  -9.026
REMARK INTRA:                   0.000
REMARK UNBOUND:                 0.000
REMARK SMILES CC1=C[C@@H]2Cc3[nH]c4cc(Cl)ccc4c(=N)c3[C@H](C1)C2
REMARK SMILES IDX 7 1 6 2 17 3 15 4 14 5 13 6 12 7 10 8 11 9 9 10 8 11 18 12
REMARK SMILES IDX 19 13 2 14 1 15 3 16 4 17 5 18 20 19 16 21
REMARK H PARENT 7 20 16 22
ROOT
ATOM      1  N   UNL     1     -11.945 -43.644  32.478  1.00  0.00    -0.358 N 
ATOM      2  C   UNL     1     -12.249 -44.413  31.375  1.00  0.00     0.021 A 
ATOM      3  C   UNL     1     -11.309 -44.987  30.589  1.00  0.00     0.000 A 
ATOM      4  C   UNL     1      -9.858 -44.752  30.923  1.00  0.00     0.068 A 
ATOM      5  C   UNL     1      -9.561 -43.887  32.103  1.00  0.00     0.023 A 
ATOM      6  C   UNL     1      -8.236 -43.616  32.473  1.00  0.00     0.014 A 
ATOM      7  C   UNL     1      -7.972 -42.807  33.579  1.00  0.00     0.021 A 
ATOM      8  C   UNL     1      -9.032 -42.277  34.312  1.00  0.00     0.043 A 
ATOM      9  Cl  UNL     1      -8.709 -41.288  35.682  1.00  0.00    -0.084 Cl
ATOM     10  C   UNL     1     -10.353 -42.543  33.949  1.00  0.00     0.047 A 
ATOM     11  C   UNL     1     -10.627 -43.342  32.833  1.00  0.00     0.049 A 
ATOM     12  C   UNL     1     -11.666 -45.865  29.398  1.00  0.00     0.028 C 
ATOM     13  C   UNL     1     -11.587 -45.063  28.077  1.00  0.00     0.039 C 
ATOM     14  C   UNL     1     -12.799 -44.187  27.822  1.00  0.00    -0.076 C 
ATOM     15  C   UNL     1     -12.685 -43.221  26.680  1.00  0.00     0.039 C 
ATOM     16  C   UNL     1     -13.903 -44.269  28.589  1.00  0.00    -0.024 C 
ATOM     17  C   UNL     1     -14.042 -45.255  29.731  1.00  0.00     0.018 C 
ATOM     18  C   UNL     1     -13.735 -44.576  31.079  1.00  0.00     0.062 C 
ATOM     19  C   UNL     1     -13.084 -46.433  29.547  1.00  0.00     0.017 C 
ATOM     20  H   UNL     1     -12.698 -43.144  32.935  1.00  0.00     0.166 HD
ENDROOT
BRANCH   4  21
ATOM     21  N   UNL     1      -8.865 -45.243  30.249  1.00  0.00    -0.300 NA
ATOM     22  H   UNL     1      -8.926 -45.030  29.253  1.00  0.00     0.188 HD
ENDBRANCH   4  21
TORSDOF 1
ENDMDL
MODEL 4
REMARK VINA RESULT:    -8.657      1.927      2.810
REMARK INTER + INTRA:          -8.910
REMARK INTER:                  -8.910
REMARK INTRA:                   0.000
REMARK UNBOUND:                 0.000
REMARK SMILES CC1=C[C@@H]2Cc3[nH]c4cc(Cl)ccc4c(=N)c3[C@H](C1)C2
REMARK SMILES IDX 7 1 6 2 17 3 15 4 14 5 13 6 12 7 10 8 11 9 9 10 8 11 18 12
REMARK SMILES IDX 19 13 2 14 1 15 3 16 4 17 5 18 20 19 16 21
REMARK H PARENT 7 20 16 22
ROOT
ATOM      1  N   UNL     1     -12.465 -42.789  27.596  1.00  0.00    -0.358 N 
ATOM      2  C   UNL     1     -11.927 -43.668  28.511  1.00  0.00     0.021 A 
ATOM      3  C   UNL     1     -12.079 -45.011  28.429  1.00  0.00     0.000 A 
ATOM      4  C   UNL     1     -12.899 -45.568  27.294  1.00  0.00     0.068 A 
ATOM      5  C   UNL     1     -13.496 -44.589  26.338  1.00  0.00     0.023 A 
ATOM      6  C   UNL     1     -14.276 -45.030  25.260  1.00  0.00     0.014 A 
ATOM      7  C   UNL     1     -14.828 -44.104  24.373  1.00  0.00     0.021 A 
ATOM      8  C   UNL     1     -14.593 -42.745  24.565  1.00  0.00     0.043 A 
ATOM      9  Cl  UNL     1     -15.264 -41.602  23.467  1.00  0.00    -0.084 Cl
ATOM     10  C   UNL     1     -13.817 -42.299  25.636  1.00  0.00     0.047 A 
ATOM     11  C   UNL     1     -13.271 -43.219  26.538  1.00  0.00     0.049 A 
ATOM     12  C   UNL     1     -11.443 -45.966  29.429  1.00  0.00     0.028 C 
ATOM     13  C   UNL     1     -12.468 -46.403  30.504  1.00  0.00     0.039 C 
ATOM     14  C   UNL     1     -12.683 -45.371  31.595  1.00  0.00    -0.076 C 
ATOM     15  C   UNL     1     -13.822 -45.635  32.536  1.00  0.00     0.039 C 
ATOM     16  C   UNL     1     -11.903 -44.278  31.696  1.00  0.00    -0.024 C 
ATOM     17  C   UNL     1     -10.736 -44.009  30.768  1.00  0.00     0.018 C 
ATOM     18  C   UNL     1     -11.142 -43.029  29.651  1.00  0.00     0.062 C 
ATOM     19  C   UNL     1     -10.246 -45.308  30.126  1.00  0.00     0.017 C 
ATOM     20  H   UNL     1     -12.417 -41.798  27.799  1.00  0.00     0.166 HD
ENDROOT
BRANCH   4  21
ATOM     21  N   UNL     1     -13.120 -46.832  27.105  1.00  0.00    -0.300 NA
ATOM     22  H   UNL     1     -13.773 -47.004  26.341  1.00  0.00     0.188 HD
ENDBRANCH   4  21
TORSDOF 1
ENDMDL
MODEL 5
REMARK VINA RESULT:    -8.615      4.353      8.470
REMARK INTER + INTRA:          -8.867
REMARK INTER:                  -8.867
REMARK INTRA:                   0.000
REMARK UNBOUND:                 0.000
REMARK SMILES CC1=C[C@@H]2Cc3[nH]c4cc(Cl)ccc4c(=N)c3[C@H](C1)C2
REMARK SMILES IDX 7 1 6 2 17 3 15 4 14 5 13 6 12 7 10 8 11 9 9 10 8 11 18 12
REMARK SMILES IDX 19 13 2 14 1 15 3 16 4 17 5 18 20 19 16 21
REMARK H PARENT 7 20 16 22
ROOT
ATOM      1  N   UNL     1     -17.793 -42.384  26.386  1.00  0.00    -0.358 N 
ATOM      2  C   UNL     1     -18.933 -42.409  25.612  1.00  0.00     0.021 A 
ATOM      3  C   UNL     1     -18.934 -42.754  24.303  1.00  0.00     0.000 A 
ATOM      4  C   UNL     1     -17.619 -43.105  23.656  1.00  0.00     0.068 A 
ATOM      5  C   UNL     1     -16.397 -43.036  24.512  1.00  0.00     0.023 A 
ATOM      6  C   UNL     1     -15.136 -43.341  23.980  1.00  0.00     0.014 A 
ATOM      7  C   UNL     1     -14.003 -43.274  24.791  1.00  0.00     0.021 A 
ATOM      8  C   UNL     1     -14.135 -42.907  26.129  1.00  0.00     0.043 A 
ATOM      9  Cl  UNL     1     -12.740 -42.834  27.133  1.00  0.00    -0.084 Cl
ATOM     10  C   UNL     1     -15.388 -42.603  26.664  1.00  0.00     0.047 A 
ATOM     11  C   UNL     1     -16.528 -42.654  25.855  1.00  0.00     0.049 A 
ATOM     12  C   UNL     1     -20.211 -42.813  23.476  1.00  0.00     0.028 C 
ATOM     13  C   UNL     1     -20.385 -41.525  22.638  1.00  0.00     0.039 C 
ATOM     14  C   UNL     1     -20.928 -40.350  23.430  1.00  0.00    -0.076 C 
ATOM     15  C   UNL     1     -20.907 -39.020  22.735  1.00  0.00     0.039 C 
ATOM     16  C   UNL     1     -21.385 -40.499  24.688  1.00  0.00    -0.024 C 
ATOM     17  C   UNL     1     -21.434 -41.838  25.395  1.00  0.00     0.018 C 
ATOM     18  C   UNL     1     -20.219 -42.008  26.326  1.00  0.00     0.062 C 
ATOM     19  C   UNL     1     -21.438 -42.984  24.381  1.00  0.00     0.017 C 
ATOM     20  H   UNL     1     -17.854 -41.990  27.317  1.00  0.00     0.166 HD
ENDROOT
BRANCH   4  21
ATOM     21  N   UNL     1     -17.486 -43.449  22.413  1.00  0.00    -0.300 NA
ATOM     22  H   UNL     1     -17.987 -42.826  21.780  1.00  0.00     0.188 HD
ENDBRANCH   4  21
TORSDOF 1
ENDMDL
MODEL 6
REMARK VINA RESULT:    -8.485      5.913     10.612
REMARK INTER + INTRA:          -8.733
REMARK INTER:                  -8.733
REMARK INTRA:                   0.000
REMARK UNBOUND:                 0.000
REMARK SMILES CC1=C[C@@H]2Cc3[nH]c4cc(Cl)ccc4c(=N)c3[C@H](C1)C2
REMARK SMILES IDX 7 1 6 2 17 3 15 4 14 5 13 6 12 7 10 8 11 9 9 10 8 11 18 12
REMARK SMILES IDX 19 13 2 14 1 15 3 16 4 17 5 18 20 19 16 21
REMARK H PARENT 7 20 16 22
ROOT
ATOM      1  N   UNL     1     -17.840 -40.898  21.798  1.00  0.00    -0.358 N 
ATOM      2  C   UNL     1     -19.127 -40.457  21.577  1.00  0.00     0.021 A 
ATOM      3  C   UNL     1     -20.125 -40.595  22.481  1.00  0.00     0.000 A 
ATOM      4  C   UNL     1     -19.816 -41.288  23.784  1.00  0.00     0.068 A 
ATOM      5  C   UNL     1     -18.422 -41.785  23.979  1.00  0.00     0.023 A 
ATOM      6  C   UNL     1     -18.060 -42.445  25.162  1.00  0.00     0.014 A 
ATOM      7  C   UNL     1     -16.753 -42.903  25.333  1.00  0.00     0.021 A 
ATOM      8  C   UNL     1     -15.814 -42.694  24.324  1.00  0.00     0.043 A 
ATOM      9  Cl  UNL     1     -14.199 -43.249  24.537  1.00  0.00    -0.084 Cl
ATOM     10  C   UNL     1     -16.168 -42.037  23.145  1.00  0.00     0.047 A 
ATOM     11  C   UNL     1     -17.480 -41.587  22.959  1.00  0.00     0.049 A 
ATOM     12  C   UNL     1     -21.530 -40.066  22.233  1.00  0.00     0.028 C 
ATOM     13  C   UNL     1     -22.468 -41.196  21.748  1.00  0.00     0.039 C 
ATOM     14  C   UNL     1     -22.311 -41.530  20.276  1.00  0.00    -0.076 C 
ATOM     15  C   UNL     1     -23.025 -42.760  19.799  1.00  0.00     0.039 C 
ATOM     16  C   UNL     1     -21.562 -40.768  19.457  1.00  0.00    -0.024 C 
ATOM     17  C   UNL     1     -20.853 -39.511  19.917  1.00  0.00     0.018 C 
ATOM     18  C   UNL     1     -19.372 -39.800  20.223  1.00  0.00     0.062 C 
ATOM     19  C   UNL     1     -21.514 -38.951  21.179  1.00  0.00     0.017 C 
ATOM     20  H   UNL     1     -17.187 -40.876  21.024  1.00  0.00     0.166 HD
ENDROOT
BRANCH   4  21
ATOM     21  N   UNL     1     -20.683 -41.484  24.729  1.00  0.00    -0.300 NA
ATOM     22  H   UNL     1     -20.272 -41.400  25.658  1.00  0.00     0.188 HD
ENDBRANCH   4  21
TORSDOF 1
ENDMDL
MODEL 7
REMARK VINA RESULT:    -8.461      4.579      9.063
REMARK INTER + INTRA:          -8.708
REMARK INTER:                  -8.708
REMARK INTRA:                   0.000
REMARK UNBOUND:                 0.000
REMARK SMILES CC1=C[C@@H]2Cc3[nH]c4cc(Cl)ccc4c(=N)c3[C@H](C1)C2
REMARK SMILES IDX 7 1 6 2 17 3 15 4 14 5 13 6 12 7 10 8 11 9 9 10 8 11 18 12
REMARK SMILES IDX 19 13 2 14 1 15 3 16 4 17 5 18 20 19 16 21
REMARK H PARENT 7 20 16 22
ROOT
ATOM      1  N   UNL     1     -17.887 -42.171  23.895  1.00  0.00    -0.358 N 
ATOM      2  C   UNL     1     -19.181 -41.720  23.747  1.00  0.00     0.021 A 
ATOM      3  C   UNL     1     -19.999 -41.456  24.793  1.00  0.00     0.000 A 
ATOM      4  C   UNL     1     -19.475 -41.692  26.186  1.00  0.00     0.068 A 
ATOM      5  C   UNL     1     -18.081 -42.213  26.312  1.00  0.00     0.023 A 
ATOM      6  C   UNL     1     -17.525 -42.463  27.575  1.00  0.00     0.014 A 
ATOM      7  C   UNL     1     -16.221 -42.948  27.679  1.00  0.00     0.021 A 
ATOM      8  C   UNL     1     -15.478 -43.176  26.522  1.00  0.00     0.043 A 
ATOM      9  Cl  UNL     1     -13.866 -43.765  26.648  1.00  0.00    -0.084 Cl
ATOM     10  C   UNL     1     -16.026 -42.928  25.262  1.00  0.00     0.047 A 
ATOM     11  C   UNL     1     -17.337 -42.455  25.148  1.00  0.00     0.049 A 
ATOM     12  C   UNL     1     -21.412 -40.921  24.609  1.00  0.00     0.028 C 
ATOM     13  C   UNL     1     -22.452 -42.063  24.708  1.00  0.00     0.039 C 
ATOM     14  C   UNL     1     -22.576 -42.887  23.440  1.00  0.00    -0.076 C 
ATOM     15  C   UNL     1     -23.396 -44.139  23.544  1.00  0.00     0.039 C 
ATOM     16  C   UNL     1     -21.970 -42.516  22.296  1.00  0.00    -0.024 C 
ATOM     17  C   UNL     1     -21.157 -41.243  22.168  1.00  0.00     0.018 C 
ATOM     18  C   UNL     1     -19.652 -41.540  22.309  1.00  0.00     0.062 C 
ATOM     19  C   UNL     1     -21.561 -40.235  23.245  1.00  0.00     0.017 C 
ATOM     20  H   UNL     1     -17.386 -42.468  23.066  1.00  0.00     0.166 HD
ENDROOT
BRANCH   4  21
ATOM     21  N   UNL     1     -20.158 -41.481  27.268  1.00  0.00    -0.300 NA
ATOM     22  H   UNL     1     -19.620 -40.985  27.979  1.00  0.00     0.188 HD
ENDBRANCH   4  21
TORSDOF 1
ENDMDL
MODEL 8
REMARK VINA RESULT:    -8.204      7.545      9.619
REMARK INTER + INTRA:          -8.444
REMARK INTER:                  -8.444
REMARK INTRA:                   0.000
REMARK UNBOUND:                 0.000
REMARK SMILES CC1=C[C@@H]2Cc3[nH]c4cc(Cl)ccc4c(=N)c3[C@H](C1)C2
REMARK SMILES IDX 7 1 6 2 17 3 15 4 14 5 13 6 12 7 10 8 11 9 9 10 8 11 18 12
REMARK SMILES IDX 19 13 2 14 1 15 3 16 4 17 5 18 20 19 16 21
REMARK H PARENT 7 20 16 22
ROOT
ATOM      1  N   UNL     1     -21.661 -39.850  23.445  1.00  0.00    -0.358 N 
ATOM      2  C   UNL     1     -21.027 -40.623  24.394  1.00  0.00     0.021 A 
ATOM      3  C   UNL     1     -19.845 -41.246  24.175  1.00  0.00     0.000 A 
ATOM      4  C   UNL     1     -19.206 -41.108  22.817  1.00  0.00     0.068 A 
ATOM      5  C   UNL     1     -19.934 -40.293  21.800  1.00  0.00     0.023 A 
ATOM      6  C   UNL     1     -19.406 -40.124  20.512  1.00  0.00     0.014 A 
ATOM      7  C   UNL     1     -20.096 -39.358  19.571  1.00  0.00     0.021 A 
ATOM      8  C   UNL     1     -21.306 -38.763  19.923  1.00  0.00     0.043 A 
ATOM      9  Cl  UNL     1     -22.153 -37.811  18.767  1.00  0.00    -0.084 Cl
ATOM     10  C   UNL     1     -21.836 -38.928  21.203  1.00  0.00     0.047 A 
ATOM     11  C   UNL     1     -21.158 -39.705  22.149  1.00  0.00     0.049 A 
ATOM     12  C   UNL     1     -19.142 -42.062  25.251  1.00  0.00     0.028 C 
ATOM     13  C   UNL     1     -19.420 -43.573  25.067  1.00  0.00     0.039 C 
ATOM     14  C   UNL     1     -20.775 -44.012  25.591  1.00  0.00    -0.076 C 
ATOM     15  C   UNL     1     -21.196 -45.410  25.242  1.00  0.00     0.039 C 
ATOM     16  C   UNL     1     -21.554 -43.184  26.313  1.00  0.00    -0.024 C 
ATOM     17  C   UNL     1     -21.134 -41.778  26.692  1.00  0.00     0.018 C 
ATOM     18  C   UNL     1     -21.750 -40.746  25.730  1.00  0.00     0.062 C 
ATOM     19  C   UNL     1     -19.611 -41.640  26.649  1.00  0.00     0.017 C 
ATOM     20  H   UNL     1     -22.600 -39.527  23.641  1.00  0.00     0.166 HD
ENDROOT
BRANCH   4  21
ATOM     21  N   UNL     1     -18.079 -41.656  22.482  1.00  0.00    -0.300 NA
ATOM     22  H   UNL     1     -17.933 -41.660  21.473  1.00  0.00     0.188 HD
ENDBRANCH   4  21
TORSDOF 1
ENDMDL
MODEL 9
REMARK VINA RESULT:    -8.200      5.163      9.866
REMARK INTER + INTRA:          -8.439
REMARK INTER:                  -8.439
REMARK INTRA:                   0.000
REMARK UNBOUND:                 0.000
REMARK SMILES CC1=C[C@@H]2Cc3[nH]c4cc(Cl)ccc4c(=N)c3[C@H](C1)C2
REMARK SMILES IDX 7 1 6 2 17 3 15 4 14 5 13 6 12 7 10 8 11 9 9 10 8 11 18 12
REMARK SMILES IDX 19 13 2 14 1 15 3 16 4 17 5 18 20 19 16 21
REMARK H PARENT 7 20 16 22
ROOT
ATOM      1  N   UNL     1     -20.325 -41.948  25.591  1.00  0.00    -0.358 N 
ATOM      2  C   UNL     1     -20.740 -41.938  24.277  1.00  0.00     0.021 A 
ATOM      3  C   UNL     1     -19.925 -42.240  23.239  1.00  0.00     0.000 A 
ATOM      4  C   UNL     1     -18.487 -42.579  23.536  1.00  0.00     0.068 A 
ATOM      5  C   UNL     1     -18.060 -42.548  24.967  1.00  0.00     0.023 A 
ATOM      6  C   UNL     1     -16.737 -42.846  25.322  1.00  0.00     0.014 A 
ATOM      7  C   UNL     1     -16.351 -42.815  26.662  1.00  0.00     0.021 A 
ATOM      8  C   UNL     1     -17.289 -42.492  27.640  1.00  0.00     0.043 A 
ATOM      9  Cl  UNL     1     -16.818 -42.462  29.295  1.00  0.00    -0.084 Cl
ATOM     10  C   UNL     1     -18.608 -42.195  27.293  1.00  0.00     0.047 A 
ATOM     11  C   UNL     1     -19.000 -42.210  25.950  1.00  0.00     0.049 A 
ATOM     12  C   UNL     1     -20.414 -42.262  21.797  1.00  0.00     0.028 C 
ATOM     13  C   UNL     1     -20.049 -40.945  21.071  1.00  0.00     0.039 C 
ATOM     14  C   UNL     1     -20.982 -39.792  21.392  1.00  0.00    -0.076 C 
ATOM     15  C   UNL     1     -20.554 -38.441  20.901  1.00  0.00     0.039 C 
ATOM     16  C   UNL     1     -22.118 -39.979  22.090  1.00  0.00    -0.024 C 
ATOM     17  C   UNL     1     -22.576 -41.340  22.574  1.00  0.00     0.018 C 
ATOM     18  C   UNL     1     -22.197 -41.550  24.052  1.00  0.00     0.062 C 
ATOM     19  C   UNL     1     -21.935 -42.452  21.740  1.00  0.00     0.017 C 
ATOM     20  H   UNL     1     -20.957 -41.584  26.295  1.00  0.00     0.166 HD
ENDROOT
BRANCH   4  21
ATOM     21  N   UNL     1     -17.608 -42.884  22.633  1.00  0.00    -0.300 NA
ATOM     22  H   UNL     1     -17.754 -43.815  22.244  1.00  0.00     0.188 HD
ENDBRANCH   4  21
TORSDOF 1
ENDMDL
