MODEL 1
REMARK VINA RESULT:   -12.540      0.000      0.000
REMARK INTER + INTRA:         -18.547
REMARK INTER:                 -17.671
REMARK INTRA:                  -0.876
REMARK UNBOUND:                -0.876
REMARK SMILES O=C(Nc1ccc2c(c1)C(=O)N(CC[C@H]1CC[N@@H+](Cc3ccccc3)CC1)C2=O)c1ccccc1
REMARK SMILES IDX 14 1 15 2 17 3 18 4 16 5 26 6 27 7 19 9 20 10 21 11 25 12
REMARK SMILES IDX 22 13 24 14 23 15 13 16 12 17 10 18 28 19 8 20 7 21 9 22
REMARK SMILES IDX 6 23 4 24 5 25 11 26 29 27 3 28 2 29 1 31 30 32 31 33 35 34
REMARK SMILES IDX 32 35 34 36 33 37
REMARK H PARENT 18 8 3 30
ROOT
ATOM      1  C   UNL     1     -13.997 -44.664  27.540  1.00  0.00     0.026 C 
ENDROOT
BRANCH   1   2
ATOM      2  C   UNL     1     -12.636 -45.388  27.640  1.00  0.00     0.002 C 
ATOM      3  C   UNL     1     -11.504 -43.943  29.422  1.00  0.00     0.262 C 
ATOM      4  N   UNL     1     -11.526 -45.120  30.367  1.00  0.00    -0.331 N 
ATOM      5  C   UNL     1     -11.465 -44.451  27.985  1.00  0.00     0.065 C 
ATOM      6  C   UNL     1     -12.707 -46.027  30.119  1.00  0.00     0.262 C 
ATOM      7  C   UNL     1     -12.686 -46.522  28.677  1.00  0.00     0.065 C 
ATOM      8  H   UNL     1     -10.677 -45.672  30.199  1.00  0.00     0.348 HD
BRANCH   4   9
ATOM      9  C   UNL     1     -11.441 -44.652  31.807  1.00  0.00     0.299 C 
BRANCH   9  10
ATOM     10  C   UNL     1     -10.044 -44.273  32.220  1.00  0.00     0.006 A 
ATOM     11  C   UNL     1      -8.940 -45.007  31.761  1.00  0.00     0.009 A 
ATOM     12  C   UNL     1      -9.825 -43.166  33.056  1.00  0.00     0.009 A 
ATOM     13  C   UNL     1      -7.645 -44.636  32.125  1.00  0.00     0.001 A 
ATOM     14  C   UNL     1      -8.528 -42.800  33.417  1.00  0.00     0.001 A 
ATOM     15  C   UNL     1      -7.439 -43.533  32.949  1.00  0.00     0.000 A 
ENDBRANCH   9  10
ENDBRANCH   4   9
ENDBRANCH   1   2
BRANCH   1  16
ATOM     16  C   UNL     1     -13.952 -43.376  26.699  1.00  0.00     0.129 C 
BRANCH  16  17
ATOM     17  N   UNL     1     -15.259 -43.039  26.167  1.00  0.00    -0.274 N 
ATOM     18  C   UNL     1     -15.550 -43.025  24.830  1.00  0.00     0.261 C 
ATOM     19  C   UNL     1     -16.328 -42.648  26.925  1.00  0.00     0.261 C 
ATOM     20  C   UNL     1     -16.952 -42.629  24.714  1.00  0.00     0.055 A 
ATOM     21  C   UNL     1     -17.428 -42.405  25.993  1.00  0.00     0.053 A 
ATOM     22  C   UNL     1     -17.741 -42.462  23.591  1.00  0.00     0.040 A 
ATOM     23  C   UNL     1     -18.729 -42.012  26.221  1.00  0.00     0.017 A 
ATOM     24  C   UNL     1     -19.065 -42.052  23.785  1.00  0.00     0.042 A 
ATOM     25  C   UNL     1     -19.552 -41.842  25.100  1.00  0.00     0.027 A 
ATOM     26  O   UNL     1     -14.799 -43.242  23.896  1.00  0.00    -0.269 OA
ATOM     27  O   UNL     1     -16.396 -42.492  28.128  1.00  0.00    -0.269 OA
BRANCH  24  28
ATOM     28  N   UNL     1     -19.972 -41.843  22.726  1.00  0.00    -0.322 N 
ATOM     29  C   UNL     1     -19.828 -40.957  21.670  1.00  0.00     0.255 C 
ATOM     30  H   UNL     1     -20.862 -42.324  22.795  1.00  0.00     0.170 HD
ATOM     31  O   UNL     1     -18.926 -40.139  21.533  1.00  0.00    -0.269 OA
BRANCH  29  32
ATOM     32  C   UNL     1     -20.920 -40.999  20.659  1.00  0.00     0.040 A 
ATOM     33  C   UNL     1     -21.605 -42.185  20.360  1.00  0.00     0.014 A 
ATOM     34  C   UNL     1     -21.243 -39.820  19.974  1.00  0.00     0.014 A 
ATOM     35  C   UNL     1     -22.623 -42.180  19.404  1.00  0.00     0.001 A 
ATOM     36  C   UNL     1     -22.263 -39.820  19.021  1.00  0.00     0.001 A 
ATOM     37  C   UNL     1     -22.954 -40.998  18.741  1.00  0.00     0.000 A 
ENDBRANCH  29  32
ENDBRANCH  24  28
ENDBRANCH  16  17
ENDBRANCH   1  16
TORSDOF 7
ENDMDL
MODEL 2
REMARK VINA RESULT:   -12.090      2.798      4.367
REMARK INTER + INTRA:         -17.913
REMARK INTER:                 -17.208
REMARK INTRA:                  -0.704
REMARK UNBOUND:                -0.876
REMARK SMILES O=C(Nc1ccc2c(c1)C(=O)N(CC[C@H]1CC[N@@H+](Cc3ccccc3)CC1)C2=O)c1ccccc1
REMARK SMILES IDX 14 1 15 2 17 3 18 4 16 5 26 6 27 7 19 9 20 10 21 11 25 12
REMARK SMILES IDX 22 13 24 14 23 15 13 16 12 17 10 18 28 19 8 20 7 21 9 22
REMARK SMILES IDX 6 23 4 24 5 25 11 26 29 27 3 28 2 29 1 31 30 32 31 33 35 34
REMARK SMILES IDX 32 35 34 36 33 37
REMARK H PARENT 18 8 3 30
ROOT
ATOM      1  C   UNL     1     -14.053 -44.645  27.584  1.00  0.00     0.026 C 
ENDROOT
BRANCH   1   2
ATOM      2  C   UNL     1     -12.716 -45.415  27.661  1.00  0.00     0.002 C 
ATOM      3  C   UNL     1     -11.497 -43.997  29.408  1.00  0.00     0.262 C 
ATOM      4  N   UNL     1     -11.541 -45.165  30.363  1.00  0.00    -0.331 N 
ATOM      5  C   UNL     1     -11.506 -44.517  27.975  1.00  0.00     0.065 C 
ATOM      6  C   UNL     1     -12.758 -46.032  30.147  1.00  0.00     0.262 C 
ATOM      7  C   UNL     1     -12.784 -46.539  28.709  1.00  0.00     0.065 C 
ATOM      8  H   UNL     1     -10.715 -45.747  30.183  1.00  0.00     0.348 HD
BRANCH   4   9
ATOM      9  C   UNL     1     -11.410 -44.689  31.797  1.00  0.00     0.299 C 
BRANCH   9  10
ATOM     10  C   UNL     1     -10.001 -44.307  32.163  1.00  0.00     0.006 A 
ATOM     11  C   UNL     1      -9.754 -43.198  32.988  1.00  0.00     0.009 A 
ATOM     12  C   UNL     1      -8.915 -45.067  31.700  1.00  0.00     0.009 A 
ATOM     13  C   UNL     1      -8.447 -42.864  33.346  1.00  0.00     0.001 A 
ATOM     14  C   UNL     1      -7.610 -44.727  32.062  1.00  0.00     0.001 A 
ATOM     15  C   UNL     1      -7.378 -43.628  32.886  1.00  0.00     0.000 A 
ENDBRANCH   9  10
ENDBRANCH   4   9
ENDBRANCH   1   2
BRANCH   1  16
ATOM     16  C   UNL     1     -14.072 -43.548  26.504  1.00  0.00     0.129 C 
BRANCH  16  17
ATOM     17  N   UNL     1     -15.422 -43.101  26.220  1.00  0.00    -0.274 N 
ATOM     18  C   UNL     1     -16.304 -42.699  27.186  1.00  0.00     0.261 C 
ATOM     19  C   UNL     1     -15.987 -43.079  24.974  1.00  0.00     0.261 C 
ATOM     20  C   UNL     1     -17.543 -42.342  26.496  1.00  0.00     0.055 A 
ATOM     21  C   UNL     1     -17.347 -42.568  25.146  1.00  0.00     0.053 A 
ATOM     22  C   UNL     1     -18.742 -41.878  27.001  1.00  0.00     0.040 A 
ATOM     23  C   UNL     1     -18.339 -42.328  24.221  1.00  0.00     0.017 A 
ATOM     24  C   UNL     1     -19.777 -41.634  26.092  1.00  0.00     0.042 A 
ATOM     25  C   UNL     1     -19.563 -41.850  24.707  1.00  0.00     0.027 A 
ATOM     26  O   UNL     1     -16.139 -42.681  28.392  1.00  0.00    -0.269 OA
ATOM     27  O   UNL     1     -15.510 -43.426  23.913  1.00  0.00    -0.269 OA
BRANCH  24  28
ATOM     28  N   UNL     1     -21.049 -41.161  26.476  1.00  0.00    -0.322 N 
ATOM     29  C   UNL     1     -22.061 -41.892  27.078  1.00  0.00     0.255 C 
ATOM     30  H   UNL     1     -21.278 -40.213  26.201  1.00  0.00     0.170 HD
ATOM     31  O   UNL     1     -22.050 -43.099  27.292  1.00  0.00    -0.269 OA
BRANCH  29  32
ATOM     32  C   UNL     1     -23.278 -41.111  27.434  1.00  0.00     0.040 A 
ATOM     33  C   UNL     1     -23.269 -39.709  27.473  1.00  0.00     0.014 A 
ATOM     34  C   UNL     1     -24.448 -41.807  27.762  1.00  0.00     0.014 A 
ATOM     35  C   UNL     1     -24.433 -39.015  27.812  1.00  0.00     0.001 A 
ATOM     36  C   UNL     1     -25.608 -41.108  28.098  1.00  0.00     0.001 A 
ATOM     37  C   UNL     1     -25.601 -39.714  28.118  1.00  0.00     0.000 A 
ENDBRANCH  29  32
ENDBRANCH  24  28
ENDBRANCH  16  17
ENDBRANCH   1  16
TORSDOF 7
ENDMDL
MODEL 3
REMARK VINA RESULT:   -11.446      1.906      2.553
REMARK INTER + INTRA:         -17.005
REMARK INTER:                 -16.669
REMARK INTRA:                  -0.336
REMARK UNBOUND:                -0.876
REMARK SMILES O=C(Nc1ccc2c(c1)C(=O)N(CC[C@H]1CC[N@@H+](Cc3ccccc3)CC1)C2=O)c1ccccc1
REMARK SMILES IDX 14 1 15 2 17 3 18 4 16 5 26 6 27 7 19 9 20 10 21 11 25 12
REMARK SMILES IDX 22 13 24 14 23 15 13 16 12 17 10 18 28 19 8 20 7 21 9 22
REMARK SMILES IDX 6 23 4 24 5 25 11 26 29 27 3 28 2 29 1 31 30 32 31 33 35 34
REMARK SMILES IDX 32 35 34 36 33 37
REMARK H PARENT 18 8 3 30
ROOT
ATOM      1  C   UNL     1     -13.549 -45.178  27.270  1.00  0.00     0.026 C 
ENDROOT
BRANCH   1   2
ATOM      2  C   UNL     1     -12.227 -45.669  27.902  1.00  0.00     0.002 C 
ATOM      3  C   UNL     1     -11.662 -43.644  29.360  1.00  0.00     0.262 C 
ATOM      4  N   UNL     1     -11.873 -44.492  30.591  1.00  0.00    -0.331 N 
ATOM      5  C   UNL     1     -11.230 -44.536  28.202  1.00  0.00     0.065 C 
ATOM      6  C   UNL     1     -12.906 -45.571  30.370  1.00  0.00     0.262 C 
ATOM      7  C   UNL     1     -12.490 -46.454  29.198  1.00  0.00     0.065 C 
ATOM      8  H   UNL     1     -10.985 -44.960  30.804  1.00  0.00     0.348 HD
BRANCH   4   9
ATOM      9  C   UNL     1     -12.185 -43.622  31.794  1.00  0.00     0.299 C 
BRANCH   9  10
ATOM     10  C   UNL     1     -10.960 -43.254  32.586  1.00  0.00     0.006 A 
ATOM     11  C   UNL     1      -9.692 -43.712  32.194  1.00  0.00     0.009 A 
ATOM     12  C   UNL     1     -11.066 -42.430  33.718  1.00  0.00     0.009 A 
ATOM     13  C   UNL     1      -8.556 -43.346  32.917  1.00  0.00     0.001 A 
ATOM     14  C   UNL     1      -9.926 -42.068  34.438  1.00  0.00     0.001 A 
ATOM     15  C   UNL     1      -8.672 -42.524  34.035  1.00  0.00     0.000 A 
ENDBRANCH   9  10
ENDBRANCH   4   9
ENDBRANCH   1   2
BRANCH   1  16
ATOM     16  C   UNL     1     -13.514 -43.703  26.832  1.00  0.00     0.129 C 
BRANCH  16  17
ATOM     17  N   UNL     1     -14.706 -43.337  26.092  1.00  0.00    -0.274 N 
ATOM     18  C   UNL     1     -15.837 -42.840  26.680  1.00  0.00     0.261 C 
ATOM     19  C   UNL     1     -14.861 -43.493  24.742  1.00  0.00     0.261 C 
ATOM     20  C   UNL     1     -16.800 -42.612  25.604  1.00  0.00     0.055 A 
ATOM     21  C   UNL     1     -16.201 -43.005  24.421  1.00  0.00     0.053 A 
ATOM     22  C   UNL     1     -18.091 -42.121  25.652  1.00  0.00     0.040 A 
ATOM     23  C   UNL     1     -16.859 -42.916  23.213  1.00  0.00     0.017 A 
ATOM     24  C   UNL     1     -18.794 -42.028  24.446  1.00  0.00     0.042 A 
ATOM     25  C   UNL     1     -18.168 -42.415  23.234  1.00  0.00     0.027 A 
ATOM     26  O   UNL     1     -16.050 -42.661  27.865  1.00  0.00    -0.269 OA
ATOM     27  O   UNL     1     -14.085 -43.960  23.933  1.00  0.00    -0.269 OA
BRANCH  24  28
ATOM     28  N   UNL     1     -20.116 -41.547  24.356  1.00  0.00    -0.322 N 
ATOM     29  C   UNL     1     -20.630 -40.700  23.388  1.00  0.00     0.255 C 
ATOM     30  H   UNL     1     -20.730 -41.773  25.131  1.00  0.00     0.170 HD
ATOM     31  O   UNL     1     -19.992 -40.151  22.497  1.00  0.00    -0.269 OA
BRANCH  29  32
ATOM     32  C   UNL     1     -22.086 -40.413  23.509  1.00  0.00     0.040 A 
ATOM     33  C   UNL     1     -22.957 -41.283  24.182  1.00  0.00     0.014 A 
ATOM     34  C   UNL     1     -22.592 -39.254  22.906  1.00  0.00     0.014 A 
ATOM     35  C   UNL     1     -24.316 -40.975  24.272  1.00  0.00     0.001 A 
ATOM     36  C   UNL     1     -23.952 -38.951  23.001  1.00  0.00     0.001 A 
ATOM     37  C   UNL     1     -24.810 -39.809  23.687  1.00  0.00     0.000 A 
ENDBRANCH  29  32
ENDBRANCH  24  28
ENDBRANCH  16  17
ENDBRANCH   1  16
TORSDOF 7
ENDMDL
MODEL 4
REMARK VINA RESULT:   -11.371      1.547      2.515
REMARK INTER + INTRA:         -16.900
REMARK INTER:                 -16.298
REMARK INTRA:                  -0.602
REMARK UNBOUND:                -0.876
REMARK SMILES O=C(Nc1ccc2c(c1)C(=O)N(CC[C@H]1CC[N@@H+](Cc3ccccc3)CC1)C2=O)c1ccccc1
REMARK SMILES IDX 14 1 15 2 17 3 18 4 16 5 26 6 27 7 19 9 20 10 21 11 25 12
REMARK SMILES IDX 22 13 24 14 23 15 13 16 12 17 10 18 28 19 8 20 7 21 9 22
REMARK SMILES IDX 6 23 4 24 5 25 11 26 29 27 3 28 2 29 1 31 30 32 31 33 35 34
REMARK SMILES IDX 32 35 34 36 33 37
REMARK H PARENT 18 8 3 30
ROOT
ATOM      1  C   UNL     1     -12.522 -42.948  27.438  1.00  0.00     0.026 C 
ENDROOT
BRANCH   1   2
ATOM      2  C   UNL     1     -11.046 -43.363  27.631  1.00  0.00     0.002 C 
ATOM      3  C   UNL     1     -10.732 -42.718  30.087  1.00  0.00     0.262 C 
ATOM      4  N   UNL     1     -10.567 -44.179  30.432  1.00  0.00    -0.331 N 
ATOM      5  C   UNL     1     -10.290 -42.488  28.647  1.00  0.00     0.065 C 
ATOM      6  C   UNL     1     -11.358 -45.075  29.511  1.00  0.00     0.262 C 
ATOM      7  C   UNL     1     -10.935 -44.834  28.065  1.00  0.00     0.065 C 
ATOM      8  H   UNL     1      -9.575 -44.418  30.313  1.00  0.00     0.348 HD
BRANCH   4   9
ATOM      9  C   UNL     1     -10.881 -44.422  31.896  1.00  0.00     0.299 C 
BRANCH   9  10
ATOM     10  C   UNL     1     -12.152 -43.752  32.344  1.00  0.00     0.006 A 
ATOM     11  C   UNL     1     -12.117 -42.718  33.293  1.00  0.00     0.009 A 
ATOM     12  C   UNL     1     -13.389 -44.138  31.804  1.00  0.00     0.009 A 
ATOM     13  C   UNL     1     -13.295 -42.081  33.686  1.00  0.00     0.001 A 
ATOM     14  C   UNL     1     -14.564 -43.498  32.201  1.00  0.00     0.001 A 
ATOM     15  C   UNL     1     -14.516 -42.469  33.138  1.00  0.00     0.000 A 
ENDBRANCH   9  10
ENDBRANCH   4   9
ENDBRANCH   1   2
BRANCH   1  16
ATOM     16  C   UNL     1     -13.421 -44.087  26.922  1.00  0.00     0.129 C 
BRANCH  16  17
ATOM     17  N   UNL     1     -14.676 -43.582  26.400  1.00  0.00    -0.274 N 
ATOM     18  C   UNL     1     -14.912 -43.374  25.069  1.00  0.00     0.261 C 
ATOM     19  C   UNL     1     -15.742 -43.207  27.170  1.00  0.00     0.261 C 
ATOM     20  C   UNL     1     -16.274 -42.857  24.963  1.00  0.00     0.055 A 
ATOM     21  C   UNL     1     -16.783 -42.761  26.245  1.00  0.00     0.053 A 
ATOM     22  C   UNL     1     -17.003 -42.485  23.849  1.00  0.00     0.040 A 
ATOM     23  C   UNL     1     -18.059 -42.298  26.484  1.00  0.00     0.017 A 
ATOM     24  C   UNL     1     -18.299 -41.999  24.055  1.00  0.00     0.042 A 
ATOM     25  C   UNL     1     -18.821 -41.921  25.371  1.00  0.00     0.027 A 
ATOM     26  O   UNL     1     -14.143 -43.529  24.137  1.00  0.00    -0.269 OA
ATOM     27  O   UNL     1     -15.847 -43.201  28.380  1.00  0.00    -0.269 OA
BRANCH  24  28
ATOM     28  N   UNL     1     -19.145 -41.585  23.006  1.00  0.00    -0.322 N 
ATOM     29  C   UNL     1     -18.814 -40.749  21.951  1.00  0.00     0.255 C 
ATOM     30  H   UNL     1     -20.120 -41.853  23.081  1.00  0.00     0.170 HD
ATOM     31  O   UNL     1     -17.752 -40.155  21.807  1.00  0.00    -0.269 OA
BRANCH  29  32
ATOM     32  C   UNL     1     -19.896 -40.537  20.950  1.00  0.00     0.040 A 
ATOM     33  C   UNL     1     -20.816 -41.547  20.632  1.00  0.00     0.014 A 
ATOM     34  C   UNL     1     -19.970 -39.301  20.295  1.00  0.00     0.014 A 
ATOM     35  C   UNL     1     -21.816 -41.307  19.688  1.00  0.00     0.001 A 
ATOM     36  C   UNL     1     -20.973 -39.066  19.353  1.00  0.00     0.001 A 
ATOM     37  C   UNL     1     -21.896 -40.066  19.054  1.00  0.00     0.000 A 
ENDBRANCH  29  32
ENDBRANCH  24  28
ENDBRANCH  16  17
ENDBRANCH   1  16
TORSDOF 7
ENDMDL
MODEL 5
REMARK VINA RESULT:   -11.355      3.022     10.619
REMARK INTER + INTRA:         -16.877
REMARK INTER:                 -15.316
REMARK INTRA:                  -1.562
REMARK UNBOUND:                -0.876
REMARK SMILES O=C(Nc1ccc2c(c1)C(=O)N(CC[C@H]1CC[N@@H+](Cc3ccccc3)CC1)C2=O)c1ccccc1
REMARK SMILES IDX 14 1 15 2 17 3 18 4 16 5 26 6 27 7 19 9 20 10 21 11 25 12
REMARK SMILES IDX 22 13 24 14 23 15 13 16 12 17 10 18 28 19 8 20 7 21 9 22
REMARK SMILES IDX 6 23 4 24 5 25 11 26 29 27 3 28 2 29 1 31 30 32 31 33 35 34
REMARK SMILES IDX 32 35 34 36 33 37
REMARK H PARENT 18 8 3 30
ROOT
ATOM      1  C   UNL     1     -21.839 -39.955  22.479  1.00  0.00     0.026 C 
ENDROOT
BRANCH   1   2
ATOM      2  C   UNL     1     -23.363 -40.030  22.722  1.00  0.00     0.002 C 
ATOM      3  C   UNL     1     -23.450 -42.020  24.328  1.00  0.00     0.262 C 
ATOM      4  N   UNL     1     -23.921 -41.093  25.423  1.00  0.00    -0.331 N 
ATOM      5  C   UNL     1     -23.875 -41.459  22.977  1.00  0.00     0.065 C 
ATOM      6  C   UNL     1     -23.376 -39.695  25.262  1.00  0.00     0.262 C 
ATOM      7  C   UNL     1     -23.781 -39.136  23.901  1.00  0.00     0.065 C 
ATOM      8  H   UNL     1     -24.944 -41.031  25.361  1.00  0.00     0.348 HD
BRANCH   4   9
ATOM      9  C   UNL     1     -23.622 -41.683  26.789  1.00  0.00     0.299 C 
BRANCH   9  10
ATOM     10  C   UNL     1     -22.177 -42.066  26.960  1.00  0.00     0.006 A 
ATOM     11  C   UNL     1     -21.165 -41.099  26.853  1.00  0.00     0.009 A 
ATOM     12  C   UNL     1     -21.822 -43.393  27.250  1.00  0.00     0.009 A 
ATOM     13  C   UNL     1     -19.828 -41.454  27.039  1.00  0.00     0.001 A 
ATOM     14  C   UNL     1     -20.483 -43.742  27.434  1.00  0.00     0.001 A 
ATOM     15  C   UNL     1     -19.489 -42.772  27.332  1.00  0.00     0.000 A 
ENDBRANCH   9  10
ENDBRANCH   4   9
ENDBRANCH   1   2
BRANCH   1  16
ATOM     16  C   UNL     1     -21.261 -41.203  21.787  1.00  0.00     0.129 C 
BRANCH  16  17
ATOM     17  N   UNL     1     -19.909 -41.481  22.229  1.00  0.00    -0.274 N 
ATOM     18  C   UNL     1     -19.603 -42.404  23.192  1.00  0.00     0.261 C 
ATOM     19  C   UNL     1     -18.795 -40.826  21.781  1.00  0.00     0.261 C 
ATOM     20  C   UNL     1     -18.151 -42.374  23.352  1.00  0.00     0.055 A 
ATOM     21  C   UNL     1     -17.657 -41.415  22.486  1.00  0.00     0.053 A 
ATOM     22  C   UNL     1     -17.331 -43.104  24.191  1.00  0.00     0.040 A 
ATOM     23  C   UNL     1     -16.309 -41.142  22.402  1.00  0.00     0.017 A 
ATOM     24  C   UNL     1     -15.956 -42.846  24.140  1.00  0.00     0.042 A 
ATOM     25  C   UNL     1     -15.455 -41.875  23.237  1.00  0.00     0.027 A 
ATOM     26  O   UNL     1     -20.369 -43.091  23.843  1.00  0.00    -0.269 OA
ATOM     27  O   UNL     1     -18.714 -39.915  20.981  1.00  0.00    -0.269 OA
BRANCH  24  28
ATOM     28  N   UNL     1     -15.013 -43.519  24.943  1.00  0.00    -0.322 N 
ATOM     29  C   UNL     1     -14.478 -43.079  26.144  1.00  0.00     0.255 C 
ATOM     30  H   UNL     1     -14.618 -44.369  24.557  1.00  0.00     0.170 HD
ATOM     31  O   UNL     1     -14.669 -41.984  26.660  1.00  0.00    -0.269 OA
BRANCH  29  32
ATOM     32  C   UNL     1     -13.549 -44.034  26.808  1.00  0.00     0.040 A 
ATOM     33  C   UNL     1     -13.684 -45.422  26.657  1.00  0.00     0.014 A 
ATOM     34  C   UNL     1     -12.533 -43.521  27.625  1.00  0.00     0.014 A 
ATOM     35  C   UNL     1     -12.790 -46.283  27.297  1.00  0.00     0.001 A 
ATOM     36  C   UNL     1     -11.642 -44.386  28.262  1.00  0.00     0.001 A 
ATOM     37  C   UNL     1     -11.769 -45.765  28.094  1.00  0.00     0.000 A 
ENDBRANCH  29  32
ENDBRANCH  24  28
ENDBRANCH  16  17
ENDBRANCH   1  16
TORSDOF 7
ENDMDL
MODEL 6
REMARK VINA RESULT:   -11.286      2.099     13.486
REMARK INTER + INTRA:         -16.781
REMARK INTER:                 -16.762
REMARK INTRA:                  -0.019
REMARK UNBOUND:                -0.876
REMARK SMILES O=C(Nc1ccc2c(c1)C(=O)N(CC[C@H]1CC[N@@H+](Cc3ccccc3)CC1)C2=O)c1ccccc1
REMARK SMILES IDX 14 1 15 2 17 3 18 4 16 5 26 6 27 7 19 9 20 10 21 11 25 12
REMARK SMILES IDX 22 13 24 14 23 15 13 16 12 17 10 18 28 19 8 20 7 21 9 22
REMARK SMILES IDX 6 23 4 24 5 25 11 26 29 27 3 28 2 29 1 31 30 32 31 33 35 34
REMARK SMILES IDX 32 35 34 36 33 37
REMARK H PARENT 18 8 3 30
ROOT
ATOM      1  C   UNL     1     -19.431 -41.504  22.674  1.00  0.00     0.026 C 
ENDROOT
BRANCH   1   2
ATOM      2  C   UNL     1     -19.423 -40.087  22.056  1.00  0.00     0.002 C 
ATOM      3  C   UNL     1     -20.536 -40.587  19.807  1.00  0.00     0.262 C 
ATOM      4  N   UNL     1     -21.721 -39.751  20.227  1.00  0.00    -0.331 N 
ATOM      5  C   UNL     1     -19.287 -40.085  20.523  1.00  0.00     0.065 C 
ATOM      6  C   UNL     1     -21.945 -39.788  21.719  1.00  0.00     0.262 C 
ATOM      7  C   UNL     1     -20.690 -39.307  22.443  1.00  0.00     0.065 C 
ATOM      8  H   UNL     1     -21.522 -38.777  19.972  1.00  0.00     0.348 HD
BRANCH   4   9
ATOM      9  C   UNL     1     -22.958 -40.143  19.441  1.00  0.00     0.299 C 
BRANCH   9  10
ATOM     10  C   UNL     1     -23.179 -39.284  18.225  1.00  0.00     0.006 A 
ATOM     11  C   UNL     1     -22.628 -37.995  18.153  1.00  0.00     0.009 A 
ATOM     12  C   UNL     1     -23.923 -39.768  17.137  1.00  0.00     0.009 A 
ATOM     13  C   UNL     1     -22.812 -37.212  17.013  1.00  0.00     0.001 A 
ATOM     14  C   UNL     1     -24.105 -38.980  16.000  1.00  0.00     0.001 A 
ATOM     15  C   UNL     1     -23.548 -37.705  15.937  1.00  0.00     0.000 A 
ENDBRANCH   9  10
ENDBRANCH   4   9
ENDBRANCH   1   2
BRANCH   1  16
ATOM     16  C   UNL     1     -19.324 -41.509  24.209  1.00  0.00     0.129 C 
BRANCH  16  17
ATOM     17  N   UNL     1     -18.078 -42.102  24.656  1.00  0.00    -0.274 N 
ATOM     18  C   UNL     1     -17.813 -42.410  25.963  1.00  0.00     0.261 C 
ATOM     19  C   UNL     1     -17.012 -42.374  23.843  1.00  0.00     0.261 C 
ATOM     20  C   UNL     1     -16.465 -42.972  25.993  1.00  0.00     0.055 A 
ATOM     21  C   UNL     1     -15.979 -42.956  24.699  1.00  0.00     0.053 A 
ATOM     22  C   UNL     1     -15.719 -43.442  27.057  1.00  0.00     0.040 A 
ATOM     23  C   UNL     1     -14.719 -43.423  24.393  1.00  0.00     0.017 A 
ATOM     24  C   UNL     1     -14.429 -43.914  26.786  1.00  0.00     0.042 A 
ATOM     25  C   UNL     1     -13.944 -43.912  25.454  1.00  0.00     0.027 A 
ATOM     26  O   UNL     1     -18.518 -42.216  26.937  1.00  0.00    -0.269 OA
ATOM     27  O   UNL     1     -16.887 -42.169  22.653  1.00  0.00    -0.269 OA
BRANCH  24  28
ATOM     28  N   UNL     1     -13.565 -44.416  27.780  1.00  0.00    -0.322 N 
ATOM     29  C   UNL     1     -12.880 -45.621  27.756  1.00  0.00     0.255 C 
ATOM     30  H   UNL     1     -13.510 -43.883  28.640  1.00  0.00     0.170 HD
ATOM     31  O   UNL     1     -12.988 -46.495  26.903  1.00  0.00    -0.269 OA
BRANCH  29  32
ATOM     32  C   UNL     1     -11.982 -45.860  28.920  1.00  0.00     0.040 A 
ATOM     33  C   UNL     1     -12.450 -45.790  30.240  1.00  0.00     0.014 A 
ATOM     34  C   UNL     1     -10.630 -46.134  28.676  1.00  0.00     0.014 A 
ATOM     35  C   UNL     1     -11.574 -46.021  31.303  1.00  0.00     0.001 A 
ATOM     36  C   UNL     1      -9.759 -46.366  29.742  1.00  0.00     0.001 A 
ATOM     37  C   UNL     1     -10.233 -46.314  31.053  1.00  0.00     0.000 A 
ENDBRANCH  29  32
ENDBRANCH  24  28
ENDBRANCH  16  17
ENDBRANCH   1  16
TORSDOF 7
ENDMDL
MODEL 7
REMARK VINA RESULT:   -11.268      2.374     13.386
REMARK INTER + INTRA:         -16.754
REMARK INTER:                 -15.882
REMARK INTRA:                  -0.872
REMARK UNBOUND:                -0.876
REMARK SMILES O=C(Nc1ccc2c(c1)C(=O)N(CC[C@H]1CC[N@@H+](Cc3ccccc3)CC1)C2=O)c1ccccc1
REMARK SMILES IDX 14 1 15 2 17 3 18 4 16 5 26 6 27 7 19 9 20 10 21 11 25 12
REMARK SMILES IDX 22 13 24 14 23 15 13 16 12 17 10 18 28 19 8 20 7 21 9 22
REMARK SMILES IDX 6 23 4 24 5 25 11 26 29 27 3 28 2 29 1 31 30 32 31 33 35 34
REMARK SMILES IDX 32 35 34 36 33 37
REMARK H PARENT 18 8 3 30
ROOT
ATOM      1  C   UNL     1     -19.772 -40.523  22.257  1.00  0.00     0.026 C 
ENDROOT
BRANCH   1   2
ATOM      2  C   UNL     1     -19.674 -40.572  20.716  1.00  0.00     0.002 C 
ATOM      3  C   UNL     1     -22.159 -40.723  20.126  1.00  0.00     0.262 C 
ATOM      4  N   UNL     1     -22.076 -39.355  19.494  1.00  0.00    -0.331 N 
ATOM      5  C   UNL     1     -20.793 -41.396  20.054  1.00  0.00     0.065 C 
ATOM      6  C   UNL     1     -21.045 -38.479  20.165  1.00  0.00     0.262 C 
ATOM      7  C   UNL     1     -19.679 -39.157  20.115  1.00  0.00     0.065 C 
ATOM      8  H   UNL     1     -21.782 -39.479  18.518  1.00  0.00     0.348 HD
BRANCH   4   9
ATOM      9  C   UNL     1     -23.446 -38.706  19.438  1.00  0.00     0.299 C 
BRANCH   9  10
ATOM     10  C   UNL     1     -23.549 -37.641  18.380  1.00  0.00     0.006 A 
ATOM     11  C   UNL     1     -23.106 -37.889  17.072  1.00  0.00     0.009 A 
ATOM     12  C   UNL     1     -24.110 -36.390  18.683  1.00  0.00     0.009 A 
ATOM     13  C   UNL     1     -23.229 -36.908  16.088  1.00  0.00     0.001 A 
ATOM     14  C   UNL     1     -24.229 -35.411  17.695  1.00  0.00     0.001 A 
ATOM     15  C   UNL     1     -23.792 -35.672  16.398  1.00  0.00     0.000 A 
ENDBRANCH   9  10
ENDBRANCH   4   9
ENDBRANCH   1   2
BRANCH   1  16
ATOM     16  C   UNL     1     -19.990 -41.902  22.906  1.00  0.00     0.129 C 
BRANCH  16  17
ATOM     17  N   UNL     1     -19.072 -42.125  24.006  1.00  0.00    -0.274 N 
ATOM     18  C   UNL     1     -17.794 -42.586  23.842  1.00  0.00     0.261 C 
ATOM     19  C   UNL     1     -19.385 -41.956  25.326  1.00  0.00     0.261 C 
ATOM     20  C   UNL     1     -17.211 -42.683  25.179  1.00  0.00     0.055 A 
ATOM     21  C   UNL     1     -18.181 -42.292  26.084  1.00  0.00     0.053 A 
ATOM     22  C   UNL     1     -15.952 -43.092  25.575  1.00  0.00     0.040 A 
ATOM     23  C   UNL     1     -17.940 -42.276  27.441  1.00  0.00     0.017 A 
ATOM     24  C   UNL     1     -15.675 -43.099  26.947  1.00  0.00     0.042 A 
ATOM     25  C   UNL     1     -16.668 -42.680  27.869  1.00  0.00     0.027 A 
ATOM     26  O   UNL     1     -17.240 -42.910  22.807  1.00  0.00    -0.269 OA
ATOM     27  O   UNL     1     -20.442 -41.621  25.824  1.00  0.00    -0.269 OA
BRANCH  24  28
ATOM     28  N   UNL     1     -14.433 -43.496  27.483  1.00  0.00    -0.322 N 
ATOM     29  C   UNL     1     -13.648 -44.559  27.065  1.00  0.00     0.255 C 
ATOM     30  H   UNL     1     -14.127 -43.009  28.318  1.00  0.00     0.170 HD
ATOM     31  O   UNL     1     -13.951 -45.390  26.217  1.00  0.00    -0.269 OA
BRANCH  29  32
ATOM     32  C   UNL     1     -12.347 -44.700  27.776  1.00  0.00     0.040 A 
ATOM     33  C   UNL     1     -11.851 -45.952  28.166  1.00  0.00     0.014 A 
ATOM     34  C   UNL     1     -11.622 -43.540  28.081  1.00  0.00     0.014 A 
ATOM     35  C   UNL     1     -10.626 -46.040  28.831  1.00  0.00     0.001 A 
ATOM     36  C   UNL     1     -10.397 -43.634  28.744  1.00  0.00     0.001 A 
ATOM     37  C   UNL     1      -9.899 -44.883  29.114  1.00  0.00     0.000 A 
ENDBRANCH  29  32
ENDBRANCH  24  28
ENDBRANCH  16  17
ENDBRANCH   1  16
TORSDOF 7
ENDMDL
MODEL 8
REMARK VINA RESULT:   -11.054      2.259     13.088
REMARK INTER + INTRA:         -16.453
REMARK INTER:                 -15.326
REMARK INTRA:                  -1.127
REMARK UNBOUND:                -0.876
REMARK SMILES O=C(Nc1ccc2c(c1)C(=O)N(CC[C@H]1CC[N@@H+](Cc3ccccc3)CC1)C2=O)c1ccccc1
REMARK SMILES IDX 14 1 15 2 17 3 18 4 16 5 26 6 27 7 19 9 20 10 21 11 25 12
REMARK SMILES IDX 22 13 24 14 23 15 13 16 12 17 10 18 28 19 8 20 7 21 9 22
REMARK SMILES IDX 6 23 4 24 5 25 11 26 29 27 3 28 2 29 1 31 30 32 31 33 35 34
REMARK SMILES IDX 32 35 34 36 33 37
REMARK H PARENT 18 8 3 30
ROOT
ATOM      1  C   UNL     1     -20.865 -40.944  24.424  1.00  0.00     0.026 C 
ENDROOT
BRANCH   1   2
ATOM      2  C   UNL     1     -22.232 -40.975  23.705  1.00  0.00     0.002 C 
ATOM      3  C   UNL     1     -21.860 -39.118  21.985  1.00  0.00     0.262 C 
ATOM      4  N   UNL     1     -21.927 -40.148  20.883  1.00  0.00    -0.331 N 
ATOM      5  C   UNL     1     -22.680 -39.601  23.176  1.00  0.00     0.065 C 
ATOM      6  C   UNL     1     -21.419 -41.497  21.332  1.00  0.00     0.262 C 
ATOM      7  C   UNL     1     -22.222 -41.976  22.537  1.00  0.00     0.065 C 
ATOM      8  H   UNL     1     -22.913 -40.264  20.623  1.00  0.00     0.348 HD
BRANCH   4   9
ATOM      9  C   UNL     1     -21.224 -39.644  19.637  1.00  0.00     0.299 C 
BRANCH   9  10
ATOM     10  C   UNL     1     -22.169 -39.044  18.630  1.00  0.00     0.006 A 
ATOM     11  C   UNL     1     -22.020 -37.711  18.219  1.00  0.00     0.009 A 
ATOM     12  C   UNL     1     -23.200 -39.818  18.074  1.00  0.00     0.009 A 
ATOM     13  C   UNL     1     -22.882 -37.167  17.266  1.00  0.00     0.001 A 
ATOM     14  C   UNL     1     -24.060 -39.268  17.122  1.00  0.00     0.001 A 
ATOM     15  C   UNL     1     -23.898 -37.945  16.716  1.00  0.00     0.000 A 
ENDBRANCH   9  10
ENDBRANCH   4   9
ENDBRANCH   1   2
BRANCH   1  16
ATOM     16  C   UNL     1     -20.488 -42.278  25.093  1.00  0.00     0.129 C 
BRANCH  16  17
ATOM     17  N   UNL     1     -19.051 -42.448  25.174  1.00  0.00    -0.274 N 
ATOM     18  C   UNL     1     -18.344 -42.364  26.343  1.00  0.00     0.261 C 
ATOM     19  C   UNL     1     -18.232 -42.658  24.099  1.00  0.00     0.261 C 
ATOM     20  C   UNL     1     -16.941 -42.582  25.998  1.00  0.00     0.055 A 
ATOM     21  C   UNL     1     -16.874 -42.768  24.629  1.00  0.00     0.053 A 
ATOM     22  C   UNL     1     -15.817 -42.600  26.802  1.00  0.00     0.040 A 
ATOM     23  C   UNL     1     -15.675 -42.997  23.988  1.00  0.00     0.017 A 
ATOM     24  C   UNL     1     -14.581 -42.818  26.184  1.00  0.00     0.042 A 
ATOM     25  C   UNL     1     -14.521 -43.027  24.783  1.00  0.00     0.027 A 
ATOM     26  O   UNL     1     -18.764 -42.107  27.457  1.00  0.00    -0.269 OA
ATOM     27  O   UNL     1     -18.520 -42.723  22.921  1.00  0.00    -0.269 OA
BRANCH  24  28
ATOM     28  N   UNL     1     -13.360 -42.858  26.888  1.00  0.00    -0.322 N 
ATOM     29  C   UNL     1     -12.757 -43.974  27.446  1.00  0.00     0.255 C 
ATOM     30  H   UNL     1     -12.925 -41.963  27.084  1.00  0.00     0.170 HD
ATOM     31  O   UNL     1     -13.235 -45.101  27.500  1.00  0.00    -0.269 OA
BRANCH  29  32
ATOM     32  C   UNL     1     -11.431 -43.726  28.076  1.00  0.00     0.040 A 
ATOM     33  C   UNL     1     -10.902 -44.588  29.047  1.00  0.00     0.014 A 
ATOM     34  C   UNL     1     -10.715 -42.582  27.699  1.00  0.00     0.014 A 
ATOM     35  C   UNL     1      -9.653 -44.319  29.612  1.00  0.00     0.001 A 
ATOM     36  C   UNL     1      -9.466 -42.319  28.266  1.00  0.00     0.001 A 
ATOM     37  C   UNL     1      -8.936 -43.189  29.218  1.00  0.00     0.000 A 
ENDBRANCH  29  32
ENDBRANCH  24  28
ENDBRANCH  16  17
ENDBRANCH   1  16
TORSDOF 7
ENDMDL
MODEL 9
REMARK VINA RESULT:   -11.023      1.990     12.758
REMARK INTER + INTRA:         -16.409
REMARK INTER:                 -15.841
REMARK INTRA:                  -0.568
REMARK UNBOUND:                -0.876
REMARK SMILES O=C(Nc1ccc2c(c1)C(=O)N(CC[C@H]1CC[N@@H+](Cc3ccccc3)CC1)C2=O)c1ccccc1
REMARK SMILES IDX 14 1 15 2 17 3 18 4 16 5 26 6 27 7 19 9 20 10 21 11 25 12
REMARK SMILES IDX 22 13 24 14 23 15 13 16 12 17 10 18 28 19 8 20 7 21 9 22
REMARK SMILES IDX 6 23 4 24 5 25 11 26 29 27 3 28 2 29 1 31 30 32 31 33 35 34
REMARK SMILES IDX 32 35 34 36 33 37
REMARK H PARENT 18 8 3 30
ROOT
ATOM      1  C   UNL     1     -20.481 -42.637  25.042  1.00  0.00     0.026 C 
ENDROOT
BRANCH   1   2
ATOM      2  C   UNL     1     -21.809 -42.002  24.575  1.00  0.00     0.002 C 
ATOM      3  C   UNL     1     -20.949 -40.567  22.638  1.00  0.00     0.262 C 
ATOM      4  N   UNL     1     -21.716 -41.439  21.674  1.00  0.00    -0.331 N 
ATOM      5  C   UNL     1     -21.643 -40.586  23.995  1.00  0.00     0.065 C 
ATOM      6  C   UNL     1     -21.835 -42.863  22.162  1.00  0.00     0.262 C 
ATOM      7  C   UNL     1     -22.510 -42.886  23.530  1.00  0.00     0.065 C 
ATOM      8  H   UNL     1     -22.668 -41.062  21.600  1.00  0.00     0.348 HD
BRANCH   4   9
ATOM      9  C   UNL     1     -21.122 -41.347  20.281  1.00  0.00     0.299 C 
BRANCH   9  10
ATOM     10  C   UNL     1     -21.639 -40.170  19.498  1.00  0.00     0.006 A 
ATOM     11  C   UNL     1     -22.816 -40.277  18.741  1.00  0.00     0.009 A 
ATOM     12  C   UNL     1     -20.960 -38.941  19.531  1.00  0.00     0.009 A 
ATOM     13  C   UNL     1     -23.306 -39.176  18.039  1.00  0.00     0.001 A 
ATOM     14  C   UNL     1     -21.455 -37.842  18.826  1.00  0.00     0.001 A 
ATOM     15  C   UNL     1     -22.628 -37.960  18.083  1.00  0.00     0.000 A 
ENDBRANCH   9  10
ENDBRANCH   4   9
ENDBRANCH   1   2
BRANCH   1  16
ATOM     16  C   UNL     1     -19.462 -41.616  25.578  1.00  0.00     0.129 C 
BRANCH  16  17
ATOM     17  N   UNL     1     -18.148 -42.208  25.744  1.00  0.00    -0.274 N 
ATOM     18  C   UNL     1     -17.603 -42.508  26.962  1.00  0.00     0.261 C 
ATOM     19  C   UNL     1     -17.287 -42.485  24.719  1.00  0.00     0.261 C 
ATOM     20  C   UNL     1     -16.281 -43.072  26.699  1.00  0.00     0.055 A 
ATOM     21  C   UNL     1     -16.091 -43.064  25.329  1.00  0.00     0.053 A 
ATOM     22  C   UNL     1     -15.319 -43.536  27.576  1.00  0.00     0.040 A 
ATOM     23  C   UNL     1     -14.928 -43.534  24.757  1.00  0.00     0.017 A 
ATOM     24  C   UNL     1     -14.120 -44.011  27.031  1.00  0.00     0.042 A 
ATOM     25  C   UNL     1     -13.939 -44.017  25.625  1.00  0.00     0.027 A 
ATOM     26  O   UNL     1     -18.076 -42.307  28.066  1.00  0.00    -0.269 OA
ATOM     27  O   UNL     1     -17.427 -42.287  23.528  1.00  0.00    -0.269 OA
BRANCH  24  28
ATOM     28  N   UNL     1     -13.058 -44.508  27.814  1.00  0.00    -0.322 N 
ATOM     29  C   UNL     1     -13.159 -45.172  29.026  1.00  0.00     0.255 C 
ATOM     30  H   UNL     1     -12.122 -44.277  27.501  1.00  0.00     0.170 HD
ATOM     31  O   UNL     1     -14.188 -45.353  29.666  1.00  0.00    -0.269 OA
BRANCH  29  32
ATOM     32  C   UNL     1     -11.867 -45.645  29.596  1.00  0.00     0.040 A 
ATOM     33  C   UNL     1     -11.595 -45.572  30.970  1.00  0.00     0.014 A 
ATOM     34  C   UNL     1     -10.895 -46.148  28.721  1.00  0.00     0.014 A 
ATOM     35  C   UNL     1     -10.370 -46.027  31.462  1.00  0.00     0.001 A 
ATOM     36  C   UNL     1      -9.672 -46.603  29.219  1.00  0.00     0.001 A 
ATOM     37  C   UNL     1      -9.413 -46.546  30.588  1.00  0.00     0.000 A 
ENDBRANCH  29  32
ENDBRANCH  24  28
ENDBRANCH  16  17
ENDBRANCH   1  16
TORSDOF 7
ENDMDL
