MODEL 1
REMARK VINA RESULT:    -9.773      0.000      0.000
REMARK INTER + INTRA:         -10.058
REMARK INTER:                 -10.058
REMARK INTRA:                   0.000
REMARK UNBOUND:                 0.000
REMARK SMILES CC1=C[C@H]2Cc3nc4cc(Cl)ccc4c(N)c3[C@@H](C1)C2
REMARK SMILES IDX 1 1 2 2 3 3 4 4 5 5 6 6 7 7 8 8 9 9 10 10 11 11 12 12 13 13
REMARK SMILES IDX 14 14 15 15 17 16 18 17 19 18 20 19 16 20
REMARK H PARENT 16 21 16 22
ROOT
ATOM      1  C   UNL     1      -9.718 -43.619  30.917  1.00  0.00     0.039 C 
ATOM      2  C   UNL     1     -10.994 -44.408  30.924  1.00  0.00    -0.076 C 
ATOM      3  C   UNL     1     -12.036 -44.084  31.711  1.00  0.00    -0.024 C 
ATOM      4  C   UNL     1     -13.323 -44.882  31.745  1.00  0.00     0.018 C 
ATOM      5  C   UNL     1     -14.400 -44.218  30.876  1.00  0.00     0.064 C 
ATOM      6  C   UNL     1     -14.227 -44.462  29.392  1.00  0.00     0.047 A 
ATOM      7  N   UNL     1     -15.021 -43.713  28.592  1.00  0.00    -0.252 NA
ATOM      8  C   UNL     1     -14.942 -43.871  27.265  1.00  0.00     0.074 A 
ATOM      9  C   UNL     1     -15.736 -43.054  26.475  1.00  0.00     0.049 A 
ATOM     10  C   UNL     1     -15.699 -43.134  25.086  1.00  0.00     0.043 A 
ATOM     11  Cl  UNL     1     -16.697 -42.102  24.139  1.00  0.00    -0.084 Cl
ATOM     12  C   UNL     1     -14.855 -44.041  24.460  1.00  0.00     0.021 A 
ATOM     13  C   UNL     1     -14.052 -44.874  25.238  1.00  0.00     0.014 A 
ATOM     14  C   UNL     1     -14.084 -44.812  26.654  1.00  0.00     0.024 A 
ATOM     15  C   UNL     1     -13.308 -45.638  27.510  1.00  0.00     0.046 A 
ATOM     16  C   UNL     1     -13.345 -45.430  28.901  1.00  0.00     0.001 A 
ATOM     17  C   UNL     1     -12.459 -46.227  29.852  1.00  0.00     0.028 C 
ATOM     18  C   UNL     1     -11.054 -45.591  29.979  1.00  0.00     0.039 C 
ATOM     19  C   UNL     1     -13.099 -46.312  31.243  1.00  0.00     0.017 C 
ENDROOT
BRANCH  15  20
ATOM     20  N   UNL     1     -12.332 -46.527  26.986  1.00  0.00    -0.398 N 
ATOM     21  H   UNL     1     -11.658 -46.010  26.425  1.00  0.00     0.156 HD
ATOM     22  H   UNL     1     -12.742 -47.266  26.423  1.00  0.00     0.156 HD
ENDBRANCH  15  20
TORSDOF 1
ENDMDL
MODEL 2
REMARK VINA RESULT:    -9.713      4.290      7.947
REMARK INTER + INTRA:          -9.997
REMARK INTER:                  -9.997
REMARK INTRA:                   0.000
REMARK UNBOUND:                 0.000
REMARK SMILES CC1=C[C@H]2Cc3nc4cc(Cl)ccc4c(N)c3[C@@H](C1)C2
REMARK SMILES IDX 1 1 2 2 3 3 4 4 5 5 6 6 7 7 8 8 9 9 10 10 11 11 12 12 13 13
REMARK SMILES IDX 14 14 15 15 17 16 18 17 19 18 20 19 16 20
REMARK H PARENT 16 21 16 22
ROOT
ATOM      1  C   UNL     1     -22.332 -45.018  25.069  1.00  0.00     0.039 C 
ATOM      2  C   UNL     1     -21.704 -43.659  25.168  1.00  0.00    -0.076 C 
ATOM      3  C   UNL     1     -21.781 -42.911  26.284  1.00  0.00    -0.024 C 
ATOM      4  C   UNL     1     -21.171 -41.529  26.394  1.00  0.00     0.018 C 
ATOM      5  C   UNL     1     -19.815 -41.586  27.111  1.00  0.00     0.064 C 
ATOM      6  C   UNL     1     -18.680 -42.075  26.238  1.00  0.00     0.047 A 
ATOM      7  N   UNL     1     -17.528 -42.349  26.894  1.00  0.00    -0.252 NA
ATOM      8  C   UNL     1     -16.468 -42.777  26.198  1.00  0.00     0.074 A 
ATOM      9  C   UNL     1     -15.320 -43.091  26.909  1.00  0.00     0.049 A 
ATOM     10  C   UNL     1     -14.180 -43.566  26.268  1.00  0.00     0.043 A 
ATOM     11  Cl  UNL     1     -12.776 -43.949  27.184  1.00  0.00    -0.084 Cl
ATOM     12  C   UNL     1     -14.172 -43.738  24.892  1.00  0.00     0.021 A 
ATOM     13  C   UNL     1     -15.315 -43.422  24.158  1.00  0.00     0.014 A 
ATOM     14  C   UNL     1     -16.483 -42.929  24.794  1.00  0.00     0.024 A 
ATOM     15  C   UNL     1     -17.676 -42.573  24.112  1.00  0.00     0.046 A 
ATOM     16  C   UNL     1     -18.809 -42.182  24.849  1.00  0.00     0.001 A 
ATOM     17  C   UNL     1     -20.140 -41.881  24.169  1.00  0.00     0.028 C 
ATOM     18  C   UNL     1     -20.960 -43.174  23.940  1.00  0.00     0.039 C 
ATOM     19  C   UNL     1     -20.969 -40.903  25.010  1.00  0.00     0.017 C 
ENDROOT
BRANCH  15  20
ATOM     20  N   UNL     1     -17.824 -42.804  22.719  1.00  0.00    -0.398 N 
ATOM     21  H   UNL     1     -16.909 -42.899  22.284  1.00  0.00     0.156 HD
ATOM     22  H   UNL     1     -18.342 -42.064  22.255  1.00  0.00     0.156 HD
ENDBRANCH  15  20
TORSDOF 1
ENDMDL
MODEL 3
REMARK VINA RESULT:    -9.215      3.614      6.719
REMARK INTER + INTRA:          -9.484
REMARK INTER:                  -9.484
REMARK INTRA:                   0.000
REMARK UNBOUND:                 0.000
REMARK SMILES CC1=C[C@H]2Cc3nc4cc(Cl)ccc4c(N)c3[C@@H](C1)C2
REMARK SMILES IDX 1 1 2 2 3 3 4 4 5 5 6 6 7 7 8 8 9 9 10 10 11 11 12 12 13 13
REMARK SMILES IDX 14 14 15 15 17 16 18 17 19 18 20 19 16 20
REMARK H PARENT 16 21 16 22
ROOT
ATOM      1  C   UNL     1     -13.742 -43.070  26.555  1.00  0.00     0.039 C 
ATOM      2  C   UNL     1     -13.428 -44.283  27.381  1.00  0.00    -0.076 C 
ATOM      3  C   UNL     1     -12.670 -45.293  26.916  1.00  0.00    -0.024 C 
ATOM      4  C   UNL     1     -12.360 -46.533  27.729  1.00  0.00     0.018 C 
ATOM      5  C   UNL     1     -10.970 -46.431  28.371  1.00  0.00     0.064 C 
ATOM      6  C   UNL     1     -10.926 -45.550  29.602  1.00  0.00     0.047 A 
ATOM      7  N   UNL     1      -9.684 -45.262  30.056  1.00  0.00    -0.252 NA
ATOM      8  C   UNL     1      -9.552 -44.497  31.147  1.00  0.00     0.074 A 
ATOM      9  C   UNL     1      -8.265 -44.184  31.557  1.00  0.00     0.049 A 
ATOM     10  C   UNL     1      -8.036 -43.375  32.666  1.00  0.00     0.043 A 
ATOM     11  Cl  UNL     1      -6.425 -43.006  33.141  1.00  0.00    -0.084 Cl
ATOM     12  C   UNL     1      -9.102 -42.859  33.387  1.00  0.00     0.021 A 
ATOM     13  C   UNL     1     -10.404 -43.167  32.993  1.00  0.00     0.014 A 
ATOM     14  C   UNL     1     -10.656 -43.996  31.871  1.00  0.00     0.024 A 
ATOM     15  C   UNL     1     -11.951 -44.365  31.422  1.00  0.00     0.046 A 
ATOM     16  C   UNL     1     -12.091 -45.116  30.241  1.00  0.00     0.001 A 
ATOM     17  C   UNL     1     -13.463 -45.455  29.668  1.00  0.00     0.028 C 
ATOM     18  C   UNL     1     -14.003 -44.306  28.783  1.00  0.00     0.039 C 
ATOM     19  C   UNL     1     -13.399 -46.741  28.835  1.00  0.00     0.017 C 
ENDROOT
BRANCH  15  20
ATOM     20  N   UNL     1     -13.119 -43.814  32.014  1.00  0.00    -0.398 N 
ATOM     21  H   UNL     1     -13.946 -44.140  31.517  1.00  0.00     0.156 HD
ATOM     22  H   UNL     1     -13.109 -42.798  32.020  1.00  0.00     0.156 HD
ENDBRANCH  15  20
TORSDOF 1
ENDMDL
MODEL 4
REMARK VINA RESULT:    -9.014      1.782      2.353
REMARK INTER + INTRA:          -9.277
REMARK INTER:                  -9.277
REMARK INTRA:                   0.000
REMARK UNBOUND:                 0.000
REMARK SMILES CC1=C[C@H]2Cc3nc4cc(Cl)ccc4c(N)c3[C@@H](C1)C2
REMARK SMILES IDX 1 1 2 2 3 3 4 4 5 5 6 6 7 7 8 8 9 9 10 10 11 11 12 12 13 13
REMARK SMILES IDX 14 14 15 15 17 16 18 17 19 18 20 19 16 20
REMARK H PARENT 16 21 16 22
ROOT
ATOM      1  C   UNL     1     -10.446 -42.756  32.874  1.00  0.00     0.039 C 
ATOM      2  C   UNL     1     -10.476 -43.850  31.847  1.00  0.00    -0.076 C 
ATOM      3  C   UNL     1     -11.064 -45.038  32.078  1.00  0.00    -0.024 C 
ATOM      4  C   UNL     1     -11.085 -46.159  31.060  1.00  0.00     0.018 C 
ATOM      5  C   UNL     1     -12.425 -46.192  30.312  1.00  0.00     0.064 C 
ATOM      6  C   UNL     1     -12.550 -45.139  29.232  1.00  0.00     0.047 A 
ATOM      7  N   UNL     1     -13.790 -44.996  28.710  1.00  0.00    -0.252 NA
ATOM      8  C   UNL     1     -13.989 -44.094  27.742  1.00  0.00     0.074 A 
ATOM      9  C   UNL     1     -15.282 -43.942  27.264  1.00  0.00     0.049 A 
ATOM     10  C   UNL     1     -15.583 -43.011  26.275  1.00  0.00     0.043 A 
ATOM     11  Cl  UNL     1     -17.200 -42.850  25.711  1.00  0.00    -0.084 Cl
ATOM     12  C   UNL     1     -14.585 -42.207  25.745  1.00  0.00     0.021 A 
ATOM     13  C   UNL     1     -13.277 -42.348  26.209  1.00  0.00     0.014 A 
ATOM     14  C   UNL     1     -12.952 -43.298  27.210  1.00  0.00     0.024 A 
ATOM     15  C   UNL     1     -11.643 -43.508  27.718  1.00  0.00     0.046 A 
ATOM     16  C   UNL     1     -11.444 -44.411  28.779  1.00  0.00     0.001 A 
ATOM     17  C   UNL     1     -10.074 -44.600  29.421  1.00  0.00     0.028 C 
ATOM     18  C   UNL     1      -9.816 -43.539  30.518  1.00  0.00     0.039 C 
ATOM     19  C   UNL     1      -9.955 -45.999  30.039  1.00  0.00     0.017 C 
ENDROOT
BRANCH  15  20
ATOM     20  N   UNL     1     -10.560 -42.674  27.331  1.00  0.00    -0.398 N 
ATOM     21  H   UNL     1     -10.036 -42.383  28.154  1.00  0.00     0.156 HD
ATOM     22  H   UNL     1     -10.867 -41.852  26.820  1.00  0.00     0.156 HD
ENDBRANCH  15  20
TORSDOF 1
ENDMDL
MODEL 5
REMARK VINA RESULT:    -8.169      4.001      6.373
REMARK INTER + INTRA:          -8.408
REMARK INTER:                  -8.408
REMARK INTRA:                   0.000
REMARK UNBOUND:                 0.000
REMARK SMILES CC1=C[C@H]2Cc3nc4cc(Cl)ccc4c(N)c3[C@@H](C1)C2
REMARK SMILES IDX 1 1 2 2 3 3 4 4 5 5 6 6 7 7 8 8 9 9 10 10 11 11 12 12 13 13
REMARK SMILES IDX 14 14 15 15 17 16 18 17 19 18 20 19 16 20
REMARK H PARENT 16 21 16 22
ROOT
ATOM      1  C   UNL     1     -13.740 -45.798  26.478  1.00  0.00     0.039 C 
ATOM      2  C   UNL     1     -14.226 -44.465  25.988  1.00  0.00    -0.076 C 
ATOM      3  C   UNL     1     -14.219 -44.132  24.685  1.00  0.00    -0.024 C 
ATOM      4  C   UNL     1     -14.687 -42.784  24.176  1.00  0.00     0.018 C 
ATOM      5  C   UNL     1     -16.125 -42.871  23.645  1.00  0.00     0.064 C 
ATOM      6  C   UNL     1     -17.180 -42.886  24.730  1.00  0.00     0.047 A 
ATOM      7  N   UNL     1     -18.431 -43.185  24.310  1.00  0.00    -0.252 NA
ATOM      8  C   UNL     1     -19.428 -43.211  25.202  1.00  0.00     0.074 A 
ATOM      9  C   UNL     1     -20.688 -43.567  24.743  1.00  0.00     0.049 A 
ATOM     10  C   UNL     1     -21.777 -43.642  25.607  1.00  0.00     0.043 A 
ATOM     11  Cl  UNL     1     -23.323 -44.091  25.002  1.00  0.00    -0.084 Cl
ATOM     12  C   UNL     1     -21.620 -43.363  26.956  1.00  0.00     0.021 A 
ATOM     13  C   UNL     1     -20.362 -42.999  27.435  1.00  0.00     0.014 A 
ATOM     14  C   UNL     1     -19.244 -42.908  26.568  1.00  0.00     0.024 A 
ATOM     15  C   UNL     1     -17.939 -42.529  26.981  1.00  0.00     0.046 A 
ATOM     16  C   UNL     1     -16.879 -42.562  26.057  1.00  0.00     0.001 A 
ATOM     17  C   UNL     1     -15.445 -42.256  26.475  1.00  0.00     0.028 C 
ATOM     18  C   UNL     1     -14.744 -43.512  27.046  1.00  0.00     0.039 C 
ATOM     19  C   UNL     1     -14.635 -41.728  25.284  1.00  0.00     0.017 C 
ENDROOT
BRANCH  15  20
ATOM     20  N   UNL     1     -17.632 -42.323  28.353  1.00  0.00    -0.398 N 
ATOM     21  H   UNL     1     -18.440 -42.556  28.927  1.00  0.00     0.156 HD
ATOM     22  H   UNL     1     -17.345 -41.369  28.548  1.00  0.00     0.156 HD
ENDBRANCH  15  20
TORSDOF 1
ENDMDL
MODEL 6
REMARK VINA RESULT:    -7.902      5.573      9.812
REMARK INTER + INTRA:          -8.133
REMARK INTER:                  -8.133
REMARK INTRA:                   0.000
REMARK UNBOUND:                 0.000
REMARK SMILES CC1=C[C@H]2Cc3nc4cc(Cl)ccc4c(N)c3[C@@H](C1)C2
REMARK SMILES IDX 1 1 2 2 3 3 4 4 5 5 6 6 7 7 8 8 9 9 10 10 11 11 12 12 13 13
REMARK SMILES IDX 14 14 15 15 17 16 18 17 19 18 20 19 16 20
REMARK H PARENT 16 21 16 22
ROOT
ATOM      1  C   UNL     1     -23.033 -43.653  21.319  1.00  0.00     0.039 C 
ATOM      2  C   UNL     1     -22.564 -42.439  22.067  1.00  0.00    -0.076 C 
ATOM      3  C   UNL     1     -23.022 -42.128  23.292  1.00  0.00    -0.024 C 
ATOM      4  C   UNL     1     -22.575 -40.896  24.052  1.00  0.00     0.018 C 
ATOM      5  C   UNL     1     -21.491 -41.252  25.080  1.00  0.00     0.064 C 
ATOM      6  C   UNL     1     -20.116 -41.446  24.479  1.00  0.00     0.047 A 
ATOM      7  N   UNL     1     -19.194 -41.975  25.316  1.00  0.00    -0.252 NA
ATOM      8  C   UNL     1     -17.947 -42.171  24.871  1.00  0.00     0.074 A 
ATOM      9  C   UNL     1     -17.041 -42.758  25.741  1.00  0.00     0.049 A 
ATOM     10  C   UNL     1     -15.731 -43.020  25.353  1.00  0.00     0.043 A 
ATOM     11  Cl  UNL     1     -14.637 -43.752  26.460  1.00  0.00    -0.084 Cl
ATOM     12  C   UNL     1     -15.303 -42.698  24.074  1.00  0.00     0.021 A 
ATOM     13  C   UNL     1     -16.198 -42.103  23.185  1.00  0.00     0.014 A 
ATOM     14  C   UNL     1     -17.534 -41.821  23.567  1.00  0.00     0.024 A 
ATOM     15  C   UNL     1     -18.494 -41.203  22.723  1.00  0.00     0.046 A 
ATOM     16  C   UNL     1     -19.820 -41.054  23.169  1.00  0.00     0.001 A 
ATOM     17  C   UNL     1     -20.908 -40.484  22.265  1.00  0.00     0.028 C 
ATOM     18  C   UNL     1     -21.527 -41.582  21.368  1.00  0.00     0.039 C 
ATOM     19  C   UNL     1     -22.018 -39.833  23.099  1.00  0.00     0.017 C 
ENDROOT
BRANCH  15  20
ATOM     20  N   UNL     1     -18.206 -40.926  21.360  1.00  0.00    -0.398 N 
ATOM     21  H   UNL     1     -17.414 -41.487  21.053  1.00  0.00     0.156 HD
ATOM     22  H   UNL     1     -18.006 -39.944  21.197  1.00  0.00     0.156 HD
ENDBRANCH  15  20
TORSDOF 1
ENDMDL
MODEL 7
REMARK VINA RESULT:    -7.455      8.728     13.187
REMARK INTER + INTRA:          -7.673
REMARK INTER:                  -7.673
REMARK INTRA:                   0.000
REMARK UNBOUND:                 0.000
REMARK SMILES CC1=C[C@H]2Cc3nc4cc(Cl)ccc4c(N)c3[C@@H](C1)C2
REMARK SMILES IDX 1 1 2 2 3 3 4 4 5 5 6 6 7 7 8 8 9 9 10 10 11 11 12 12 13 13
REMARK SMILES IDX 14 14 15 15 17 16 18 17 19 18 20 19 16 20
REMARK H PARENT 16 21 16 22
ROOT
ATOM      1  C   UNL     1     -24.390 -40.468  17.580  1.00  0.00     0.039 C 
ATOM      2  C   UNL     1     -23.898 -39.389  18.500  1.00  0.00    -0.076 C 
ATOM      3  C   UNL     1     -24.638 -38.924  19.522  1.00  0.00    -0.024 C 
ATOM      4  C   UNL     1     -24.166 -37.821  20.447  1.00  0.00     0.018 C 
ATOM      5  C   UNL     1     -23.611 -38.406  21.754  1.00  0.00     0.064 C 
ATOM      6  C   UNL     1     -22.212 -38.971  21.628  1.00  0.00     0.047 A 
ATOM      7  N   UNL     1     -21.786 -39.689  22.693  1.00  0.00    -0.252 NA
ATOM      8  C   UNL     1     -20.556 -40.217  22.672  1.00  0.00     0.074 A 
ATOM      9  C   UNL     1     -20.170 -40.985  23.760  1.00  0.00     0.049 A 
ATOM     10  C   UNL     1     -18.919 -41.591  23.810  1.00  0.00     0.043 A 
ATOM     11  Cl  UNL     1     -18.477 -42.539  25.175  1.00  0.00    -0.084 Cl
ATOM     12  C   UNL     1     -18.026 -41.440  22.759  1.00  0.00     0.021 A 
ATOM     13  C   UNL     1     -18.394 -40.668  21.657  1.00  0.00     0.014 A 
ATOM     14  C   UNL     1     -19.662 -40.036  21.594  1.00  0.00     0.024 A 
ATOM     15  C   UNL     1     -20.098 -39.224  20.514  1.00  0.00     0.046 A 
ATOM     16  C   UNL     1     -21.412 -38.720  20.509  1.00  0.00     0.001 A 
ATOM     17  C   UNL     1     -21.957 -37.923  19.328  1.00  0.00     0.028 C 
ATOM     18  C   UNL     1     -22.506 -38.857  18.224  1.00  0.00     0.039 C 
ATOM     19  C   UNL     1     -23.074 -36.975  19.785  1.00  0.00     0.017 C 
ENDROOT
BRANCH  15  20
ATOM     20  N   UNL     1     -19.317 -39.083  19.337  1.00  0.00    -0.398 N 
ATOM     21  H   UNL     1     -19.761 -39.577  18.565  1.00  0.00     0.156 HD
ATOM     22  H   UNL     1     -18.369 -39.427  19.456  1.00  0.00     0.156 HD
ENDBRANCH  15  20
TORSDOF 1
ENDMDL
MODEL 8
REMARK VINA RESULT:    -6.777      7.145     10.489
REMARK INTER + INTRA:          -6.975
REMARK INTER:                  -6.975
REMARK INTRA:                   0.000
REMARK UNBOUND:                 0.000
REMARK SMILES CC1=C[C@H]2Cc3nc4cc(Cl)ccc4c(N)c3[C@@H](C1)C2
REMARK SMILES IDX 1 1 2 2 3 3 4 4 5 5 6 6 7 7 8 8 9 9 10 10 11 11 12 12 13 13
REMARK SMILES IDX 14 14 15 15 17 16 18 17 19 18 20 19 16 20
REMARK H PARENT 16 21 16 22
ROOT
ATOM      1  C   UNL     1     -23.558 -37.612  28.347  1.00  0.00     0.039 C 
ATOM      2  C   UNL     1     -23.891 -38.716  27.386  1.00  0.00    -0.076 C 
ATOM      3  C   UNL     1     -24.402 -38.477  26.166  1.00  0.00    -0.024 C 
ATOM      4  C   UNL     1     -24.763 -39.580  25.192  1.00  0.00     0.018 C 
ATOM      5  C   UNL     1     -23.650 -39.776  24.153  1.00  0.00     0.064 C 
ATOM      6  C   UNL     1     -22.456 -40.550  24.670  1.00  0.00     0.047 A 
ATOM      7  N   UNL     1     -21.374 -40.546  23.858  1.00  0.00    -0.252 NA
ATOM      8  C   UNL     1     -20.277 -41.215  24.232  1.00  0.00     0.074 A 
ATOM      9  C   UNL     1     -19.172 -41.150  23.397  1.00  0.00     0.049 A 
ATOM     10  C   UNL     1     -17.982 -41.796  23.721  1.00  0.00     0.043 A 
ATOM     11  Cl  UNL     1     -16.632 -41.689  22.662  1.00  0.00    -0.084 Cl
ATOM     12  C   UNL     1     -17.878 -42.521  24.899  1.00  0.00     0.021 A 
ATOM     13  C   UNL     1     -18.980 -42.602  25.749  1.00  0.00     0.014 A 
ATOM     14  C   UNL     1     -20.203 -41.957  25.431  1.00  0.00     0.024 A 
ATOM     15  C   UNL     1     -21.369 -42.009  26.239  1.00  0.00     0.046 A 
ATOM     16  C   UNL     1     -22.501 -41.256  25.877  1.00  0.00     0.001 A 
ATOM     17  C   UNL     1     -23.742 -41.204  26.761  1.00  0.00     0.028 C 
ATOM     18  C   UNL     1     -23.604 -40.126  27.863  1.00  0.00     0.039 C 
ATOM     19  C   UNL     1     -24.992 -40.907  25.923  1.00  0.00     0.017 C 
ENDROOT
BRANCH  15  20
ATOM     20  N   UNL     1     -21.352 -42.630  27.517  1.00  0.00    -0.398 N 
ATOM     21  H   UNL     1     -21.232 -43.635  27.411  1.00  0.00     0.156 HD
ATOM     22  H   UNL     1     -22.197 -42.446  28.049  1.00  0.00     0.156 HD
ENDBRANCH  15  20
TORSDOF 1
ENDMDL
