MODEL 1
REMARK VINA RESULT:    -8.306      0.000      0.000
REMARK INTER + INTRA:          -8.306
REMARK INTER:                  -8.306
REMARK INTRA:                   0.000
REMARK UNBOUND:                 0.000
REMARK SMILES Cc1cccc2c1C[C@@H](C)C2=O
REMARK SMILES IDX 1 1 2 2 3 3 4 4 5 5 6 6 7 7 8 8 9 9 10 10 11 11 12 12
REMARK H PARENT
ROOT
ATOM      1  C   UNL     1     -11.897 -45.811  31.290  1.00  0.00     0.044 C 
ATOM      2  C   UNL     1     -10.416 -45.640  31.452  1.00  0.00    -0.047 A 
ATOM      3  C   UNL     1      -9.521 -46.575  30.904  1.00  0.00     0.004 A 
ATOM      4  C   UNL     1      -8.129 -46.429  31.053  1.00  0.00     0.001 A 
ATOM      5  C   UNL     1      -7.605 -45.344  31.751  1.00  0.00     0.012 A 
ATOM      6  C   UNL     1      -8.501 -44.434  32.279  1.00  0.00     0.021 A 
ATOM      7  C   UNL     1      -9.881 -44.559  32.145  1.00  0.00    -0.034 A 
ATOM      8  C   UNL     1     -10.615 -43.446  32.831  1.00  0.00     0.048 C 
ATOM      9  C   UNL     1      -9.507 -42.505  33.352  1.00  0.00     0.062 C 
ATOM     10  C   UNL     1      -9.633 -42.217  34.838  1.00  0.00     0.017 C 
ATOM     11  C   UNL     1      -8.211 -43.227  33.040  1.00  0.00     0.166 C 
ATOM     12  O   UNL     1      -7.088 -42.873  33.352  1.00  0.00    -0.294 OA
ENDROOT
TORSDOF 0
ENDMDL
MODEL 2
REMARK VINA RESULT:    -8.226      8.851     10.757
REMARK INTER + INTRA:          -8.226
REMARK INTER:                  -8.226
REMARK INTRA:                   0.000
REMARK UNBOUND:                 0.000
REMARK SMILES Cc1cccc2c1C[C@@H](C)C2=O
REMARK SMILES IDX 1 1 2 2 3 3 4 4 5 5 6 6 7 7 8 8 9 9 10 10 11 11 12 12
REMARK H PARENT
ROOT
ATOM      1  C   UNL     1     -19.050 -42.008  27.232  1.00  0.00     0.044 C 
ATOM      2  C   UNL     1     -18.371 -42.253  25.918  1.00  0.00    -0.047 A 
ATOM      3  C   UNL     1     -19.079 -42.131  24.710  1.00  0.00     0.004 A 
ATOM      4  C   UNL     1     -18.454 -42.364  23.470  1.00  0.00     0.001 A 
ATOM      5  C   UNL     1     -17.110 -42.722  23.414  1.00  0.00     0.012 A 
ATOM      6  C   UNL     1     -16.430 -42.832  24.613  1.00  0.00     0.021 A 
ATOM      7  C   UNL     1     -17.027 -42.608  25.850  1.00  0.00    -0.034 A 
ATOM      8  C   UNL     1     -16.068 -42.818  26.983  1.00  0.00     0.048 C 
ATOM      9  C   UNL     1     -14.713 -43.114  26.303  1.00  0.00     0.062 C 
ATOM     10  C   UNL     1     -14.081 -44.405  26.793  1.00  0.00     0.017 C 
ATOM     11  C   UNL     1     -15.033 -43.185  24.824  1.00  0.00     0.166 C 
ATOM     12  O   UNL     1     -14.262 -43.477  23.926  1.00  0.00    -0.294 OA
ENDROOT
TORSDOF 0
ENDMDL
MODEL 3
REMARK VINA RESULT:    -7.910      9.349     11.201
REMARK INTER + INTRA:          -7.910
REMARK INTER:                  -7.910
REMARK INTRA:                   0.000
REMARK UNBOUND:                 0.000
REMARK SMILES Cc1cccc2c1C[C@@H](C)C2=O
REMARK SMILES IDX 1 1 2 2 3 3 4 4 5 5 6 6 7 7 8 8 9 9 10 10 11 11 12 12
REMARK H PARENT
ROOT
ATOM      1  C   UNL     1     -17.160 -42.599  28.868  1.00  0.00     0.044 C 
ATOM      2  C   UNL     1     -17.740 -42.412  27.499  1.00  0.00    -0.047 A 
ATOM      3  C   UNL     1     -19.083 -42.028  27.333  1.00  0.00     0.004 A 
ATOM      4  C   UNL     1     -19.641 -41.854  26.053  1.00  0.00     0.001 A 
ATOM      5  C   UNL     1     -18.868 -42.059  24.913  1.00  0.00     0.012 A 
ATOM      6  C   UNL     1     -17.549 -42.432  25.097  1.00  0.00     0.021 A 
ATOM      7  C   UNL     1     -16.977 -42.611  26.353  1.00  0.00    -0.034 A 
ATOM      8  C   UNL     1     -15.541 -43.035  26.261  1.00  0.00     0.048 C 
ATOM      9  C   UNL     1     -15.219 -43.010  24.751  1.00  0.00     0.062 C 
ATOM     10  C   UNL     1     -14.641 -44.323  24.252  1.00  0.00     0.017 C 
ATOM     11  C   UNL     1     -16.543 -42.701  24.080  1.00  0.00     0.166 C 
ATOM     12  O   UNL     1     -16.759 -42.664  22.881  1.00  0.00    -0.294 OA
ENDROOT
TORSDOF 0
ENDMDL
MODEL 4
REMARK VINA RESULT:    -7.848      8.367     10.068
REMARK INTER + INTRA:          -7.848
REMARK INTER:                  -7.848
REMARK INTRA:                   0.000
REMARK UNBOUND:                 0.000
REMARK SMILES Cc1cccc2c1C[C@@H](C)C2=O
REMARK SMILES IDX 1 1 2 2 3 3 4 4 5 5 6 6 7 7 8 8 9 9 10 10 11 11 12 12
REMARK H PARENT
ROOT
ATOM      1  C   UNL     1     -16.941 -42.957  22.967  1.00  0.00     0.044 C 
ATOM      2  C   UNL     1     -16.204 -42.999  24.272  1.00  0.00    -0.047 A 
ATOM      3  C   UNL     1     -14.831 -43.296  24.313  1.00  0.00     0.004 A 
ATOM      4  C   UNL     1     -14.130 -43.343  25.532  1.00  0.00     0.001 A 
ATOM      5  C   UNL     1     -14.788 -43.094  26.734  1.00  0.00     0.012 A 
ATOM      6  C   UNL     1     -16.137 -42.800  26.672  1.00  0.00     0.021 A 
ATOM      7  C   UNL     1     -16.851 -42.748  25.478  1.00  0.00    -0.034 A 
ATOM      8  C   UNL     1     -18.299 -42.430  25.702  1.00  0.00     0.048 C 
ATOM      9  C   UNL     1     -18.415 -42.174  27.221  1.00  0.00     0.062 C 
ATOM     10  C   UNL     1     -19.490 -43.023  27.878  1.00  0.00     0.017 C 
ATOM     11  C   UNL     1     -17.042 -42.501  27.773  1.00  0.00     0.166 C 
ATOM     12  O   UNL     1     -16.712 -42.510  28.946  1.00  0.00    -0.294 OA
ENDROOT
TORSDOF 0
ENDMDL
MODEL 5
REMARK VINA RESULT:    -7.816      9.303     11.242
REMARK INTER + INTRA:          -7.816
REMARK INTER:                  -7.816
REMARK INTRA:                   0.000
REMARK UNBOUND:                 0.000
REMARK SMILES Cc1cccc2c1C[C@@H](C)C2=O
REMARK SMILES IDX 1 1 2 2 3 3 4 4 5 5 6 6 7 7 8 8 9 9 10 10 11 11 12 12
REMARK H PARENT
ROOT
ATOM      1  C   UNL     1     -20.025 -41.760  26.532  1.00  0.00     0.044 C 
ATOM      2  C   UNL     1     -18.578 -42.146  26.590  1.00  0.00    -0.047 A 
ATOM      3  C   UNL     1     -17.949 -42.393  27.823  1.00  0.00     0.004 A 
ATOM      4  C   UNL     1     -16.590 -42.752  27.891  1.00  0.00     0.001 A 
ATOM      5  C   UNL     1     -15.833 -42.871  26.728  1.00  0.00     0.012 A 
ATOM      6  C   UNL     1     -16.470 -42.628  25.526  1.00  0.00     0.021 A 
ATOM      7  C   UNL     1     -17.813 -42.271  25.435  1.00  0.00    -0.034 A 
ATOM      8  C   UNL     1     -18.239 -42.046  24.015  1.00  0.00     0.048 C 
ATOM      9  C   UNL     1     -16.999 -42.411  23.169  1.00  0.00     0.062 C 
ATOM     10  C   UNL     1     -16.595 -41.301  22.214  1.00  0.00     0.017 C 
ATOM     11  C   UNL     1     -15.909 -42.688  24.184  1.00  0.00     0.166 C 
ATOM     12  O   UNL     1     -14.740 -42.937  23.946  1.00  0.00    -0.294 OA
ENDROOT
TORSDOF 0
ENDMDL
MODEL 6
REMARK VINA RESULT:    -7.731      1.785      3.814
REMARK INTER + INTRA:          -7.731
REMARK INTER:                  -7.731
REMARK INTRA:                   0.000
REMARK UNBOUND:                 0.000
REMARK SMILES Cc1cccc2c1C[C@@H](C)C2=O
REMARK SMILES IDX 1 1 2 2 3 3 4 4 5 5 6 6 7 7 8 8 9 9 10 10 11 11 12 12
REMARK H PARENT
ROOT
ATOM      1  C   UNL     1     -10.997 -42.365  33.603  1.00  0.00     0.044 C 
ATOM      2  C   UNL     1      -9.848 -43.165  33.067  1.00  0.00    -0.047 A 
ATOM      3  C   UNL     1      -8.522 -42.803  33.358  1.00  0.00     0.004 A 
ATOM      4  C   UNL     1      -7.435 -43.544  32.858  1.00  0.00     0.001 A 
ATOM      5  C   UNL     1      -7.653 -44.662  32.058  1.00  0.00     0.012 A 
ATOM      6  C   UNL     1      -8.964 -45.005  31.786  1.00  0.00     0.021 A 
ATOM      7  C   UNL     1     -10.054 -44.287  32.269  1.00  0.00    -0.034 A 
ATOM      8  C   UNL     1     -11.358 -44.864  31.805  1.00  0.00     0.048 C 
ATOM      9  C   UNL     1     -10.968 -46.138  31.024  1.00  0.00     0.062 C 
ATOM     10  C   UNL     1     -11.555 -46.170  29.623  1.00  0.00     0.017 C 
ATOM     11  C   UNL     1      -9.454 -46.119  30.987  1.00  0.00     0.166 C 
ATOM     12  O   UNL     1      -8.730 -46.904  30.399  1.00  0.00    -0.294 OA
ENDROOT
TORSDOF 0
ENDMDL
MODEL 7
REMARK VINA RESULT:    -7.607      9.099     11.131
REMARK INTER + INTRA:          -7.607
REMARK INTER:                  -7.607
REMARK INTRA:                   0.000
REMARK UNBOUND:                 0.000
REMARK SMILES Cc1cccc2c1C[C@@H](C)C2=O
REMARK SMILES IDX 1 1 2 2 3 3 4 4 5 5 6 6 7 7 8 8 9 9 10 10 11 11 12 12
REMARK H PARENT
ROOT
ATOM      1  C   UNL     1     -19.022 -41.956  23.285  1.00  0.00     0.044 C 
ATOM      2  C   UNL     1     -18.957 -41.986  24.782  1.00  0.00    -0.047 A 
ATOM      3  C   UNL     1     -20.069 -41.617  25.558  1.00  0.00     0.004 A 
ATOM      4  C   UNL     1     -20.019 -41.636  26.964  1.00  0.00     0.001 A 
ATOM      5  C   UNL     1     -18.856 -42.026  27.622  1.00  0.00     0.012 A 
ATOM      6  C   UNL     1     -17.774 -42.389  26.842  1.00  0.00     0.021 A 
ATOM      7  C   UNL     1     -17.800 -42.377  25.451  1.00  0.00    -0.034 A 
ATOM      8  C   UNL     1     -16.487 -42.795  24.859  1.00  0.00     0.048 C 
ATOM      9  C   UNL     1     -15.617 -43.188  26.073  1.00  0.00     0.062 C 
ATOM     10  C   UNL     1     -14.283 -42.461  26.097  1.00  0.00     0.017 C 
ATOM     11  C   UNL     1     -16.459 -42.833  27.282  1.00  0.00     0.166 C 
ATOM     12  O   UNL     1     -16.121 -42.908  28.451  1.00  0.00    -0.294 OA
ENDROOT
TORSDOF 0
ENDMDL
MODEL 8
REMARK VINA RESULT:    -7.321      2.873      3.888
REMARK INTER + INTRA:          -7.321
REMARK INTER:                  -7.321
REMARK INTRA:                   0.000
REMARK UNBOUND:                 0.000
REMARK SMILES Cc1cccc2c1C[C@@H](C)C2=O
REMARK SMILES IDX 1 1 2 2 3 3 4 4 5 5 6 6 7 7 8 8 9 9 10 10 11 11 12 12
REMARK H PARENT
ROOT
ATOM      1  C   UNL     1     -12.676 -45.763  28.498  1.00  0.00     0.044 C 
ATOM      2  C   UNL     1     -11.684 -44.643  28.590  1.00  0.00    -0.047 A 
ATOM      3  C   UNL     1     -11.771 -43.534  27.731  1.00  0.00     0.004 A 
ATOM      4  C   UNL     1     -10.843 -42.478  27.804  1.00  0.00     0.001 A 
ATOM      5  C   UNL     1      -9.811 -42.510  28.738  1.00  0.00     0.012 A 
ATOM      6  C   UNL     1      -9.745 -43.607  29.576  1.00  0.00     0.021 A 
ATOM      7  C   UNL     1     -10.651 -44.663  29.521  1.00  0.00    -0.034 A 
ATOM      8  C   UNL     1     -10.334 -45.729  30.527  1.00  0.00     0.048 C 
ATOM      9  C   UNL     1      -9.139 -45.169  31.330  1.00  0.00     0.062 C 
ATOM     10  C   UNL     1      -7.959 -46.126  31.369  1.00  0.00     0.017 C 
ATOM     11  C   UNL     1      -8.775 -43.876  30.628  1.00  0.00     0.166 C 
ATOM     12  O   UNL     1      -7.833 -43.147  30.888  1.00  0.00    -0.294 OA
ENDROOT
TORSDOF 0
ENDMDL
MODEL 9
REMARK VINA RESULT:    -7.317      3.406      4.530
REMARK INTER + INTRA:          -7.317
REMARK INTER:                  -7.317
REMARK INTRA:                   0.000
REMARK UNBOUND:                 0.000
REMARK SMILES Cc1cccc2c1C[C@@H](C)C2=O
REMARK SMILES IDX 1 1 2 2 3 3 4 4 5 5 6 6 7 7 8 8 9 9 10 10 11 11 12 12
REMARK H PARENT
ROOT
ATOM      1  C   UNL     1      -8.008 -45.409  31.741  1.00  0.00     0.044 C 
ATOM      2  C   UNL     1      -9.339 -45.277  31.064  1.00  0.00    -0.047 A 
ATOM      3  C   UNL     1     -10.400 -46.140  31.390  1.00  0.00     0.004 A 
ATOM      4  C   UNL     1     -11.652 -46.030  30.759  1.00  0.00     0.001 A 
ATOM      5  C   UNL     1     -11.871 -45.053  29.790  1.00  0.00     0.012 A 
ATOM      6  C   UNL     1     -10.817 -44.212  29.487  1.00  0.00     0.021 A 
ATOM      7  C   UNL     1      -9.569 -44.303  30.097  1.00  0.00    -0.034 A 
ATOM      8  C   UNL     1      -8.607 -43.283  29.565  1.00  0.00     0.048 C 
ATOM      9  C   UNL     1      -9.440 -42.432  28.581  1.00  0.00     0.062 C 
ATOM     10  C   UNL     1      -8.807 -42.342  27.203  1.00  0.00     0.017 C 
ATOM     11  C   UNL     1     -10.789 -43.120  28.524  1.00  0.00     0.166 C 
ATOM     12  O   UNL     1     -11.727 -42.822  27.805  1.00  0.00    -0.294 OA
ENDROOT
TORSDOF 0
ENDMDL
