MODEL 1
REMARK VINA RESULT:   -11.139      0.000      0.000
REMARK INTER + INTRA:         -18.149
REMARK INTER:                 -17.326
REMARK INTRA:                  -0.823
REMARK UNBOUND:                -0.823
REMARK SMILES COc1cc2c(cc1OC)SC(=C(O)CCc1cc[n+](Cc3coc([N+](=O)[O-])c3)cc1)C2
REMARK SMILES IDX 16 1 15 2 13 3 14 4 12 6 32 7 11 8 5 9 6 10 4 11 7 12 3 13
REMARK SMILES IDX 8 14 2 15 1 16 9 17 10 18 17 19 18 20 31 21 19 22 30 23
REMARK SMILES IDX 20 24 21 25 22 26 23 27 29 28 24 29 25 30 26 31 27 32 28 33
REMARK H PARENT 14 5
ROOT
ATOM      1  C   UNL     1     -13.892 -45.039  26.113  1.00  0.00     0.044 C 
ENDROOT
BRANCH   1   2
ATOM      2  C   UNL     1     -14.556 -43.660  26.027  1.00  0.00     0.080 C 
BRANCH   2   3
ATOM      3  C   UNL     1     -15.213 -43.449  24.683  1.00  0.00     0.103 C 
BRANCH   3   4
ATOM      4  O   UNL     1     -14.516 -43.935  23.586  1.00  0.00    -0.511 OA
ATOM      5  H   UNL     1     -14.206 -43.198  23.033  1.00  0.00     0.293 HD
ENDBRANCH   3   4
BRANCH   3   6
ATOM      6  C   UNL     1     -16.399 -42.846  24.480  1.00  0.00     0.032 C 
ATOM      7  C   UNL     1     -17.414 -42.617  25.585  1.00  0.00     0.083 C 
ATOM      8  S   UNL     1     -16.946 -42.268  22.913  1.00  0.00    -0.090 SA
ATOM      9  C   UNL     1     -18.609 -41.951  24.961  1.00  0.00    -0.025 A 
ATOM     10  C   UNL     1     -18.492 -41.714  23.591  1.00  0.00     0.020 A 
ATOM     11  C   UNL     1     -19.764 -41.580  25.646  1.00  0.00     0.055 A 
ATOM     12  C   UNL     1     -19.515 -41.103  22.879  1.00  0.00     0.066 A 
ATOM     13  C   UNL     1     -20.807 -40.964  24.944  1.00  0.00     0.161 A 
ATOM     14  C   UNL     1     -20.682 -40.724  23.553  1.00  0.00     0.161 A 
BRANCH  13  15
ATOM     15  O   UNL     1     -21.988 -40.558  25.516  1.00  0.00    -0.493 OA
ATOM     16  C   UNL     1     -22.127 -40.700  26.922  1.00  0.00     0.278 C 
ENDBRANCH  13  15
BRANCH  14  17
ATOM     17  O   UNL     1     -21.757 -40.115  22.953  1.00  0.00    -0.493 OA
ATOM     18  C   UNL     1     -21.498 -39.101  21.994  1.00  0.00     0.278 C 
ENDBRANCH  14  17
ENDBRANCH   3   6
ENDBRANCH   2   3
ENDBRANCH   1   2
BRANCH   1  19
ATOM     19  C   UNL     1     -13.333 -45.313  27.491  1.00  0.00    -0.036 A 
ATOM     20  C   UNL     1     -12.161 -46.048  27.663  1.00  0.00     0.074 A 
ATOM     21  C   UNL     1     -13.997 -44.842  28.624  1.00  0.00     0.074 A 
ATOM     22  C   UNL     1     -11.677 -46.282  28.946  1.00  0.00     0.308 A 
ATOM     23  C   UNL     1     -13.479 -45.100  29.888  1.00  0.00     0.308 A 
ATOM     24  N   UNL     1     -12.334 -45.807  30.031  1.00  0.00    -0.201 N 
BRANCH  24  25
ATOM     25  C   UNL     1     -11.796 -46.072  31.389  1.00  0.00     0.397 C 
BRANCH  25  26
ATOM     26  C   UNL     1     -10.854 -44.988  31.791  1.00  0.00     0.063 A 
ATOM     27  C   UNL     1     -11.191 -43.735  32.278  1.00  0.00     0.213 A 
ATOM     28  C   UNL     1      -9.424 -45.006  31.748  1.00  0.00     0.143 A 
ATOM     29  O   UNL     1     -10.079 -43.002  32.550  1.00  0.00    -0.409 OA
ATOM     30  C   UNL     1      -9.016 -43.780  32.221  1.00  0.00     0.433 A 
BRANCH  30  31
ATOM     31  N   UNL     1      -7.716 -43.219  32.420  1.00  0.00     0.102 N 
ATOM     32  O   UNL     1      -7.049 -43.039  31.392  1.00  0.00    -0.256 OA
ATOM     33  O   UNL     1      -7.363 -42.972  33.577  1.00  0.00    -0.256 OA
ENDBRANCH  30  31
ENDBRANCH  25  26
ENDBRANCH  24  25
ENDBRANCH   1  19
TORSDOF 10
ENDMDL
MODEL 2
REMARK VINA RESULT:   -10.793      0.979      1.884
REMARK INTER + INTRA:         -17.610
REMARK INTER:                 -16.756
REMARK INTRA:                  -0.854
REMARK UNBOUND:                -0.823
REMARK SMILES COc1cc2c(cc1OC)SC(=C(O)CCc1cc[n+](Cc3coc([N+](=O)[O-])c3)cc1)C2
REMARK SMILES IDX 16 1 15 2 13 3 14 4 12 6 32 7 11 8 5 9 6 10 4 11 7 12 3 13
REMARK SMILES IDX 8 14 2 15 1 16 9 17 10 18 17 19 18 20 31 21 19 22 30 23
REMARK SMILES IDX 20 24 21 25 22 26 23 27 29 28 24 29 25 30 26 31 27 32 28 33
REMARK H PARENT 14 5
ROOT
ATOM      1  C   UNL     1     -13.927 -45.032  26.197  1.00  0.00     0.044 C 
ENDROOT
BRANCH   1   2
ATOM      2  C   UNL     1     -14.152 -43.530  25.992  1.00  0.00     0.080 C 
BRANCH   2   3
ATOM      3  C   UNL     1     -15.140 -43.269  24.878  1.00  0.00     0.103 C 
BRANCH   3   4
ATOM      4  O   UNL     1     -14.686 -43.531  23.593  1.00  0.00    -0.511 OA
ATOM      5  H   UNL     1     -14.254 -44.402  23.562  1.00  0.00     0.293 HD
ENDBRANCH   3   4
BRANCH   3   6
ATOM      6  C   UNL     1     -16.398 -42.820  25.040  1.00  0.00     0.032 C 
ATOM      7  C   UNL     1     -17.284 -42.396  23.883  1.00  0.00     0.083 C 
ATOM      8  S   UNL     1     -17.176 -42.638  26.605  1.00  0.00    -0.090 SA
ATOM      9  C   UNL     1     -18.589 -41.932  24.468  1.00  0.00    -0.025 A 
ATOM     10  C   UNL     1     -18.662 -42.010  25.859  1.00  0.00     0.020 A 
ATOM     11  C   UNL     1     -19.670 -41.455  23.730  1.00  0.00     0.055 A 
ATOM     12  C   UNL     1     -19.806 -41.619  26.541  1.00  0.00     0.066 A 
ATOM     13  C   UNL     1     -20.832 -41.055  24.400  1.00  0.00     0.161 A 
ATOM     14  C   UNL     1     -20.901 -41.138  25.813  1.00  0.00     0.161 A 
BRANCH  13  15
ATOM     15  O   UNL     1     -21.955 -40.570  23.775  1.00  0.00    -0.493 OA
ATOM     16  C   UNL     1     -22.586 -41.396  22.808  1.00  0.00     0.278 C 
ENDBRANCH  13  15
BRANCH  14  17
ATOM     17  O   UNL     1     -22.081 -40.722  26.379  1.00  0.00    -0.493 OA
ATOM     18  C   UNL     1     -22.878 -41.691  27.044  1.00  0.00     0.278 C 
ENDBRANCH  14  17
ENDBRANCH   3   6
ENDBRANCH   2   3
ENDBRANCH   1   2
BRANCH   1  19
ATOM     19  C   UNL     1     -13.317 -45.334  27.547  1.00  0.00    -0.036 A 
ATOM     20  C   UNL     1     -12.110 -46.022  27.659  1.00  0.00     0.074 A 
ATOM     21  C   UNL     1     -13.968 -44.935  28.716  1.00  0.00     0.074 A 
ATOM     22  C   UNL     1     -11.581 -46.283  28.918  1.00  0.00     0.308 A 
ATOM     23  C   UNL     1     -13.403 -45.218  29.954  1.00  0.00     0.308 A 
ATOM     24  N   UNL     1     -12.225 -45.879  30.038  1.00  0.00    -0.201 N 
BRANCH  24  25
ATOM     25  C   UNL     1     -11.637 -46.171  31.369  1.00  0.00     0.397 C 
BRANCH  25  26
ATOM     26  C   UNL     1     -10.702 -45.082  31.771  1.00  0.00     0.063 A 
ATOM     27  C   UNL     1     -11.044 -43.849  32.302  1.00  0.00     0.213 A 
ATOM     28  C   UNL     1      -9.273 -45.073  31.681  1.00  0.00     0.143 A 
ATOM     29  O   UNL     1      -9.936 -43.104  32.559  1.00  0.00    -0.409 OA
ATOM     30  C   UNL     1      -8.872 -43.853  32.174  1.00  0.00     0.433 A 
BRANCH  30  31
ATOM     31  N   UNL     1      -7.575 -43.275  32.346  1.00  0.00     0.102 N 
ATOM     32  O   UNL     1      -7.004 -42.925  31.304  1.00  0.00    -0.256 OA
ATOM     33  O   UNL     1      -7.132 -43.178  33.494  1.00  0.00    -0.256 OA
ENDBRANCH  30  31
ENDBRANCH  25  26
ENDBRANCH  24  25
ENDBRANCH   1  19
TORSDOF 10
ENDMDL
MODEL 3
REMARK VINA RESULT:   -10.531      1.841      3.118
REMARK INTER + INTRA:         -17.204
REMARK INTER:                 -16.612
REMARK INTRA:                  -0.592
REMARK UNBOUND:                -0.823
REMARK SMILES COc1cc2c(cc1OC)SC(=C(O)CCc1cc[n+](Cc3coc([N+](=O)[O-])c3)cc1)C2
REMARK SMILES IDX 16 1 15 2 13 3 14 4 12 6 32 7 11 8 5 9 6 10 4 11 7 12 3 13
REMARK SMILES IDX 8 14 2 15 1 16 9 17 10 18 17 19 18 20 31 21 19 22 30 23
REMARK SMILES IDX 20 24 21 25 22 26 23 27 29 28 24 29 25 30 26 31 27 32 28 33
REMARK H PARENT 14 5
ROOT
ATOM      1  C   UNL     1     -13.504 -45.305  28.474  1.00  0.00     0.044 C 
ENDROOT
BRANCH   1   2
ATOM      2  C   UNL     1     -13.417 -44.981  26.978  1.00  0.00     0.080 C 
BRANCH   2   3
ATOM      3  C   UNL     1     -13.855 -43.562  26.697  1.00  0.00     0.103 C 
BRANCH   3   4
ATOM      4  O   UNL     1     -12.899 -42.579  26.914  1.00  0.00    -0.511 OA
ATOM      5  H   UNL     1     -13.133 -41.772  26.425  1.00  0.00     0.293 HD
ENDBRANCH   3   4
BRANCH   3   6
ATOM      6  C   UNL     1     -15.072 -43.194  26.255  1.00  0.00     0.032 C 
ATOM      7  C   UNL     1     -15.423 -43.090  24.782  1.00  0.00     0.083 C 
ATOM      8  S   UNL     1     -16.405 -42.759  27.313  1.00  0.00    -0.090 SA
ATOM      9  C   UNL     1     -16.850 -42.624  24.697  1.00  0.00    -0.025 A 
ATOM     10  C   UNL     1     -17.469 -42.421  25.931  1.00  0.00     0.020 A 
ATOM     11  C   UNL     1     -17.546 -42.399  23.512  1.00  0.00     0.055 A 
ATOM     12  C   UNL     1     -18.787 -41.993  26.010  1.00  0.00     0.066 A 
ATOM     13  C   UNL     1     -18.877 -41.967  23.572  1.00  0.00     0.161 A 
ATOM     14  C   UNL     1     -19.501 -41.763  24.828  1.00  0.00     0.161 A 
BRANCH  13  15
ATOM     15  O   UNL     1     -19.657 -41.713  22.470  1.00  0.00    -0.493 OA
ATOM     16  C   UNL     1     -19.300 -40.615  21.644  1.00  0.00     0.278 C 
ENDBRANCH  13  15
BRANCH  14  17
ATOM     17  O   UNL     1     -20.806 -41.338  24.784  1.00  0.00    -0.493 OA
ATOM     18  C   UNL     1     -21.412 -40.926  26.000  1.00  0.00     0.278 C 
ENDBRANCH  14  17
ENDBRANCH   3   6
ENDBRANCH   2   3
ENDBRANCH   1   2
BRANCH   1  19
ATOM     19  C   UNL     1     -12.142 -45.316  29.131  1.00  0.00    -0.036 A 
ATOM     20  C   UNL     1     -11.106 -44.510  28.661  1.00  0.00     0.074 A 
ATOM     21  C   UNL     1     -11.894 -46.154  30.219  1.00  0.00     0.074 A 
ATOM     22  C   UNL     1      -9.866 -44.547  29.289  1.00  0.00     0.308 A 
ATOM     23  C   UNL     1     -10.638 -46.160  30.816  1.00  0.00     0.308 A 
ATOM     24  N   UNL     1      -9.650 -45.361  30.350  1.00  0.00    -0.201 N 
BRANCH  24  25
ATOM     25  C   UNL     1      -8.316 -45.382  31.000  1.00  0.00     0.397 C 
BRANCH  25  26
ATOM     26  C   UNL     1      -8.240 -44.329  32.053  1.00  0.00     0.063 A 
ATOM     27  C   UNL     1      -7.088 -43.789  32.604  1.00  0.00     0.213 A 
ATOM     28  C   UNL     1      -9.322 -43.672  32.720  1.00  0.00     0.143 A 
ATOM     29  O   UNL     1      -7.388 -42.845  33.535  1.00  0.00    -0.409 OA
ATOM     30  C   UNL     1      -8.743 -42.787  33.600  1.00  0.00     0.433 A 
BRANCH  30  31
ATOM     31  N   UNL     1      -9.308 -41.854  34.524  1.00  0.00     0.102 N 
ATOM     32  O   UNL     1     -10.402 -41.373  34.196  1.00  0.00    -0.256 OA
ATOM     33  O   UNL     1      -8.672 -41.599  35.551  1.00  0.00    -0.256 OA
ENDBRANCH  30  31
ENDBRANCH  25  26
ENDBRANCH  24  25
ENDBRANCH   1  19
TORSDOF 10
ENDMDL
MODEL 4
REMARK VINA RESULT:   -10.305      1.841      2.327
REMARK INTER + INTRA:         -16.851
REMARK INTER:                 -16.011
REMARK INTRA:                  -0.841
REMARK UNBOUND:                -0.823
REMARK SMILES COc1cc2c(cc1OC)SC(=C(O)CCc1cc[n+](Cc3coc([N+](=O)[O-])c3)cc1)C2
REMARK SMILES IDX 16 1 15 2 13 3 14 4 12 6 32 7 11 8 5 9 6 10 4 11 7 12 3 13
REMARK SMILES IDX 8 14 2 15 1 16 9 17 10 18 17 19 18 20 31 21 19 22 30 23
REMARK SMILES IDX 20 24 21 25 22 26 23 27 29 28 24 29 25 30 26 31 27 32 28 33
REMARK H PARENT 14 5
ROOT
ATOM      1  C   UNL     1     -13.146 -43.161  26.573  1.00  0.00     0.044 C 
ENDROOT
BRANCH   1   2
ATOM      2  C   UNL     1     -14.421 -44.000  26.424  1.00  0.00     0.080 C 
BRANCH   2   3
ATOM      3  C   UNL     1     -15.654 -43.187  26.747  1.00  0.00     0.103 C 
BRANCH   3   4
ATOM      4  O   UNL     1     -15.838 -42.871  28.086  1.00  0.00    -0.511 OA
ATOM      5  H   UNL     1     -15.470 -43.574  28.648  1.00  0.00     0.293 HD
ENDBRANCH   3   4
BRANCH   3   6
ATOM      6  C   UNL     1     -16.558 -42.751  25.850  1.00  0.00     0.032 C 
ATOM      7  C   UNL     1     -17.980 -42.368  26.223  1.00  0.00     0.083 C 
ATOM      8  S   UNL     1     -16.231 -42.592  24.131  1.00  0.00    -0.090 SA
ATOM      9  C   UNL     1     -18.679 -41.967  24.954  1.00  0.00    -0.025 A 
ATOM     10  C   UNL     1     -17.887 -42.036  23.808  1.00  0.00     0.020 A 
ATOM     11  C   UNL     1     -20.007 -41.553  24.872  1.00  0.00     0.055 A 
ATOM     12  C   UNL     1     -18.397 -41.694  22.562  1.00  0.00     0.066 A 
ATOM     13  C   UNL     1     -20.538 -41.204  23.625  1.00  0.00     0.161 A 
ATOM     14  C   UNL     1     -19.729 -41.275  22.463  1.00  0.00     0.161 A 
BRANCH  13  15
ATOM     15  O   UNL     1     -21.831 -40.784  23.427  1.00  0.00    -0.493 OA
ATOM     16  C   UNL     1     -22.799 -41.131  24.406  1.00  0.00     0.278 C 
ENDBRANCH  13  15
BRANCH  14  17
ATOM     17  O   UNL     1     -20.340 -40.914  21.287  1.00  0.00    -0.493 OA
ATOM     18  C   UNL     1     -19.735 -39.891  20.511  1.00  0.00     0.278 C 
ENDBRANCH  14  17
ENDBRANCH   3   6
ENDBRANCH   2   3
ENDBRANCH   1   2
BRANCH   1  19
ATOM     19  C   UNL     1     -12.196 -43.753  27.590  1.00  0.00    -0.036 A 
ATOM     20  C   UNL     1     -12.413 -45.019  28.132  1.00  0.00     0.074 A 
ATOM     21  C   UNL     1     -11.084 -43.027  28.016  1.00  0.00     0.074 A 
ATOM     22  C   UNL     1     -11.520 -45.530  29.066  1.00  0.00     0.308 A 
ATOM     23  C   UNL     1     -10.217 -43.576  28.954  1.00  0.00     0.308 A 
ATOM     24  N   UNL     1     -10.441 -44.811  29.459  1.00  0.00    -0.201 N 
BRANCH  24  25
ATOM     25  C   UNL     1      -9.503 -45.381  30.458  1.00  0.00     0.397 C 
BRANCH  25  26
ATOM     26  C   UNL     1      -9.165 -44.359  31.490  1.00  0.00     0.063 A 
ATOM     27  C   UNL     1      -7.931 -43.763  31.693  1.00  0.00     0.213 A 
ATOM     28  C   UNL     1     -10.027 -43.794  32.483  1.00  0.00     0.143 A 
ATOM     29  O   UNL     1      -7.982 -42.871  32.717  1.00  0.00    -0.409 OA
ATOM     30  C   UNL     1      -9.254 -42.902  33.190  1.00  0.00     0.433 A 
BRANCH  30  31
ATOM     31  N   UNL     1      -9.560 -42.037  34.287  1.00  0.00     0.102 N 
ATOM     32  O   UNL     1      -8.747 -42.052  35.221  1.00  0.00    -0.256 OA
ATOM     33  O   UNL     1     -10.592 -41.363  34.222  1.00  0.00    -0.256 OA
ENDBRANCH  30  31
ENDBRANCH  25  26
ENDBRANCH  24  25
ENDBRANCH   1  19
TORSDOF 10
ENDMDL
MODEL 5
REMARK VINA RESULT:   -10.081      1.051      1.437
REMARK INTER + INTRA:         -16.503
REMARK INTER:                 -15.873
REMARK INTRA:                  -0.629
REMARK UNBOUND:                -0.823
REMARK SMILES COc1cc2c(cc1OC)SC(=C(O)CCc1cc[n+](Cc3coc([N+](=O)[O-])c3)cc1)C2
REMARK SMILES IDX 16 1 15 2 13 3 14 4 12 6 32 7 11 8 5 9 6 10 4 11 7 12 3 13
REMARK SMILES IDX 8 14 2 15 1 16 9 17 10 18 17 19 18 20 31 21 19 22 30 23
REMARK SMILES IDX 20 24 21 25 22 26 23 27 29 28 24 29 25 30 26 31 27 32 28 33
REMARK H PARENT 14 5
ROOT
ATOM      1  C   UNL     1     -13.742 -43.276  26.219  1.00  0.00     0.044 C 
ENDROOT
BRANCH   1   2
ATOM      2  C   UNL     1     -15.009 -43.986  25.728  1.00  0.00     0.080 C 
BRANCH   2   3
ATOM      3  C   UNL     1     -15.707 -43.183  24.654  1.00  0.00     0.103 C 
BRANCH   3   4
ATOM      4  O   UNL     1     -14.992 -42.992  23.480  1.00  0.00    -0.511 OA
ATOM      5  H   UNL     1     -14.616 -42.095  23.461  1.00  0.00     0.293 HD
ENDBRANCH   3   4
BRANCH   3   6
ATOM      6  C   UNL     1     -16.944 -42.662  24.749  1.00  0.00     0.032 C 
ATOM      7  C   UNL     1     -17.662 -42.463  26.072  1.00  0.00     0.083 C 
ATOM      8  S   UNL     1     -17.906 -42.169  23.364  1.00  0.00    -0.090 SA
ATOM      9  C   UNL     1     -19.018 -41.893  25.761  1.00  0.00    -0.025 A 
ATOM     10  C   UNL     1     -19.266 -41.692  24.403  1.00  0.00     0.020 A 
ATOM     11  C   UNL     1     -19.986 -41.574  26.710  1.00  0.00     0.055 A 
ATOM     12  C   UNL     1     -20.475 -41.169  23.964  1.00  0.00     0.066 A 
ATOM     13  C   UNL     1     -21.212 -41.046  26.287  1.00  0.00     0.161 A 
ATOM     14  C   UNL     1     -21.457 -40.843  24.906  1.00  0.00     0.161 A 
BRANCH  13  15
ATOM     15  O   UNL     1     -22.236 -40.698  27.133  1.00  0.00    -0.493 OA
ATOM     16  C   UNL     1     -23.189 -41.695  27.468  1.00  0.00     0.278 C 
ENDBRANCH  13  15
BRANCH  14  17
ATOM     17  O   UNL     1     -22.688 -40.322  24.589  1.00  0.00    -0.493 OA
ATOM     18  C   UNL     1     -22.863 -39.772  23.292  1.00  0.00     0.278 C 
ENDBRANCH  14  17
ENDBRANCH   3   6
ENDBRANCH   2   3
ENDBRANCH   1   2
BRANCH   1  19
ATOM     19  C   UNL     1     -13.189 -43.912  27.475  1.00  0.00    -0.036 A 
ATOM     20  C   UNL     1     -14.007 -44.640  28.338  1.00  0.00     0.074 A 
ATOM     21  C   UNL     1     -11.841 -43.765  27.801  1.00  0.00     0.074 A 
ATOM     22  C   UNL     1     -13.465 -45.208  29.485  1.00  0.00     0.308 A 
ATOM     23  C   UNL     1     -11.340 -44.349  28.958  1.00  0.00     0.308 A 
ATOM     24  N   UNL     1     -12.150 -45.061  29.776  1.00  0.00    -0.201 N 
BRANCH  24  25
ATOM     25  C   UNL     1     -11.597 -45.678  31.007  1.00  0.00     0.397 C 
BRANCH  25  26
ATOM     26  C   UNL     1     -10.645 -44.743  31.671  1.00  0.00     0.063 A 
ATOM     27  C   UNL     1     -10.968 -43.676  32.494  1.00  0.00     0.213 A 
ATOM     28  C   UNL     1      -9.216 -44.738  31.589  1.00  0.00     0.143 A 
ATOM     29  O   UNL     1      -9.849 -43.040  32.931  1.00  0.00    -0.409 OA
ATOM     30  C   UNL     1      -8.796 -43.689  32.373  1.00  0.00     0.433 A 
BRANCH  30  31
ATOM     31  N   UNL     1      -7.491 -43.196  32.687  1.00  0.00     0.102 N 
ATOM     32  O   UNL     1      -7.250 -43.053  33.893  1.00  0.00    -0.256 OA
ATOM     33  O   UNL     1      -6.725 -42.949  31.751  1.00  0.00    -0.256 OA
ENDBRANCH  30  31
ENDBRANCH  25  26
ENDBRANCH  24  25
ENDBRANCH   1  19
TORSDOF 10
ENDMDL
MODEL 6
REMARK VINA RESULT:    -9.931      1.698      2.487
REMARK INTER + INTRA:         -16.271
REMARK INTER:                 -15.462
REMARK INTRA:                  -0.809
REMARK UNBOUND:                -0.823
REMARK SMILES COc1cc2c(cc1OC)SC(=C(O)CCc1cc[n+](Cc3coc([N+](=O)[O-])c3)cc1)C2
REMARK SMILES IDX 16 1 15 2 13 3 14 4 12 6 32 7 11 8 5 9 6 10 4 11 7 12 3 13
REMARK SMILES IDX 8 14 2 15 1 16 9 17 10 18 17 19 18 20 31 21 19 22 30 23
REMARK SMILES IDX 20 24 21 25 22 26 23 27 29 28 24 29 25 30 26 31 27 32 28 33
REMARK H PARENT 14 5
ROOT
ATOM      1  C   UNL     1     -13.660 -43.116  26.119  1.00  0.00     0.044 C 
ENDROOT
BRANCH   1   2
ATOM      2  C   UNL     1     -15.013 -43.765  25.804  1.00  0.00     0.080 C 
BRANCH   2   3
ATOM      3  C   UNL     1     -16.158 -42.933  26.336  1.00  0.00     0.103 C 
BRANCH   3   4
ATOM      4  O   UNL     1     -16.069 -42.564  27.671  1.00  0.00    -0.511 OA
ATOM      5  H   UNL     1     -15.170 -42.725  28.003  1.00  0.00     0.293 HD
ENDBRANCH   3   4
BRANCH   3   6
ATOM      6  C   UNL     1     -17.225 -42.527  25.623  1.00  0.00     0.032 C 
ATOM      7  C   UNL     1     -17.170 -42.251  24.131  1.00  0.00     0.083 C 
ATOM      8  S   UNL     1     -18.811 -42.236  26.318  1.00  0.00    -0.090 SA
ATOM      9  C   UNL     1     -18.540 -41.793  23.713  1.00  0.00    -0.025 A 
ATOM     10  C   UNL     1     -19.476 -41.746  24.745  1.00  0.00     0.020 A 
ATOM     11  C   UNL     1     -18.899 -41.435  22.415  1.00  0.00     0.055 A 
ATOM     12  C   UNL     1     -20.784 -41.344  24.510  1.00  0.00     0.066 A 
ATOM     13  C   UNL     1     -20.214 -41.027  22.159  1.00  0.00     0.161 A 
ATOM     14  C   UNL     1     -21.161 -40.981  23.211  1.00  0.00     0.161 A 
BRANCH  13  15
ATOM     15  O   UNL     1     -20.677 -40.651  20.921  1.00  0.00    -0.493 OA
ATOM     16  C   UNL     1     -19.792 -39.941  20.068  1.00  0.00     0.278 C 
ENDBRANCH  13  15
BRANCH  14  17
ATOM     17  O   UNL     1     -22.423 -40.568  22.861  1.00  0.00    -0.493 OA
ATOM     18  C   UNL     1     -23.478 -41.516  22.933  1.00  0.00     0.278 C 
ENDBRANCH  14  17
ENDBRANCH   3   6
ENDBRANCH   2   3
ENDBRANCH   1   2
BRANCH   1  19
ATOM     19  C   UNL     1     -12.918 -43.858  27.209  1.00  0.00    -0.036 A 
ATOM     20  C   UNL     1     -13.395 -45.066  27.715  1.00  0.00     0.074 A 
ATOM     21  C   UNL     1     -11.741 -43.330  27.741  1.00  0.00     0.074 A 
ATOM     22  C   UNL     1     -12.687 -45.719  28.719  1.00  0.00     0.308 A 
ATOM     23  C   UNL     1     -11.066 -44.015  28.745  1.00  0.00     0.308 A 
ATOM     24  N   UNL     1     -11.542 -45.192  29.214  1.00  0.00    -0.201 N 
BRANCH  24  25
ATOM     25  C   UNL     1     -10.807 -45.910  30.285  1.00  0.00     0.397 C 
BRANCH  25  26
ATOM     26  C   UNL     1     -10.347 -44.949  31.328  1.00  0.00     0.063 A 
ATOM     27  C   UNL     1     -11.146 -44.217  32.192  1.00  0.00     0.213 A 
ATOM     28  C   UNL     1      -9.003 -44.572  31.645  1.00  0.00     0.143 A 
ATOM     29  O   UNL     1     -10.392 -43.444  33.018  1.00  0.00    -0.409 OA
ATOM     30  C   UNL     1      -9.098 -43.664  32.674  1.00  0.00     0.433 A 
BRANCH  30  31
ATOM     31  N   UNL     1      -8.101 -42.951  33.410  1.00  0.00     0.102 N 
ATOM     32  O   UNL     1      -6.948 -43.028  32.963  1.00  0.00    -0.256 OA
ATOM     33  O   UNL     1      -8.457 -42.334  34.419  1.00  0.00    -0.256 OA
ENDBRANCH  30  31
ENDBRANCH  25  26
ENDBRANCH  24  25
ENDBRANCH   1  19
TORSDOF 10
ENDMDL
MODEL 7
REMARK VINA RESULT:    -9.929      4.015     10.433
REMARK INTER + INTRA:         -16.268
REMARK INTER:                 -15.234
REMARK INTRA:                  -1.033
REMARK UNBOUND:                -0.823
REMARK SMILES COc1cc2c(cc1OC)SC(=C(O)CCc1cc[n+](Cc3coc([N+](=O)[O-])c3)cc1)C2
REMARK SMILES IDX 16 1 15 2 13 3 14 4 12 6 32 7 11 8 5 9 6 10 4 11 7 12 3 13
REMARK SMILES IDX 8 14 2 15 1 16 9 17 10 18 17 19 18 20 31 21 19 22 30 23
REMARK SMILES IDX 20 24 21 25 22 26 23 27 29 28 24 29 25 30 26 31 27 32 28 33
REMARK H PARENT 14 5
ROOT
ATOM      1  C   UNL     1     -13.631 -43.751  26.595  1.00  0.00     0.044 C 
ENDROOT
BRANCH   1   2
ATOM      2  C   UNL     1     -13.554 -45.277  26.726  1.00  0.00     0.080 C 
BRANCH   2   3
ATOM      3  C   UNL     1     -12.705 -45.685  27.908  1.00  0.00     0.103 C 
BRANCH   3   4
ATOM      4  O   UNL     1     -11.958 -46.843  27.746  1.00  0.00    -0.511 OA
ATOM      5  H   UNL     1     -11.840 -47.035  26.800  1.00  0.00     0.293 HD
ENDBRANCH   3   4
BRANCH   3   6
ATOM      6  C   UNL     1     -12.618 -45.017  29.074  1.00  0.00     0.032 C 
ATOM      7  C   UNL     1     -13.813 -44.761  29.975  1.00  0.00     0.083 C 
ATOM      8  S   UNL     1     -11.126 -44.330  29.697  1.00  0.00    -0.090 SA
ATOM      9  C   UNL     1     -13.320 -43.966  31.152  1.00  0.00    -0.025 A 
ATOM     10  C   UNL     1     -11.954 -43.682  31.129  1.00  0.00     0.020 A 
ATOM     11  C   UNL     1     -14.116 -43.524  32.206  1.00  0.00     0.055 A 
ATOM     12  C   UNL     1     -11.355 -42.958  32.151  1.00  0.00     0.066 A 
ATOM     13  C   UNL     1     -13.530 -42.792  33.245  1.00  0.00     0.161 A 
ATOM     14  C   UNL     1     -12.142 -42.507  33.218  1.00  0.00     0.161 A 
BRANCH  13  15
ATOM     15  O   UNL     1     -14.217 -42.306  34.331  1.00  0.00    -0.493 OA
ATOM     16  C   UNL     1     -15.217 -41.326  34.099  1.00  0.00     0.278 C 
ENDBRANCH  13  15
BRANCH  14  17
ATOM     17  O   UNL     1     -11.660 -41.783  34.281  1.00  0.00    -0.493 OA
ATOM     18  C   UNL     1     -10.266 -41.834  34.543  1.00  0.00     0.278 C 
ENDBRANCH  14  17
ENDBRANCH   3   6
ENDBRANCH   2   3
ENDBRANCH   1   2
BRANCH   1  19
ATOM     19  C   UNL     1     -15.039 -43.279  26.311  1.00  0.00    -0.036 A 
ATOM     20  C   UNL     1     -15.886 -42.870  27.340  1.00  0.00     0.074 A 
ATOM     21  C   UNL     1     -15.522 -43.258  25.002  1.00  0.00     0.074 A 
ATOM     22  C   UNL     1     -17.176 -42.443  27.042  1.00  0.00     0.308 A 
ATOM     23  C   UNL     1     -16.819 -42.825  24.749  1.00  0.00     0.308 A 
ATOM     24  N   UNL     1     -17.620 -42.423  25.762  1.00  0.00    -0.201 N 
BRANCH  24  25
ATOM     25  C   UNL     1     -19.001 -41.964  25.472  1.00  0.00     0.397 C 
BRANCH  25  26
ATOM     26  C   UNL     1     -19.992 -42.950  25.989  1.00  0.00     0.063 A 
ATOM     27  C   UNL     1     -20.681 -43.898  25.249  1.00  0.00     0.213 A 
ATOM     28  C   UNL     1     -20.447 -43.117  27.336  1.00  0.00     0.143 A 
ATOM     29  O   UNL     1     -21.501 -44.636  26.044  1.00  0.00    -0.409 OA
ATOM     30  C   UNL     1     -21.354 -44.151  27.303  1.00  0.00     0.433 A 
BRANCH  30  31
ATOM     31  N   UNL     1     -22.126 -44.774  28.333  1.00  0.00     0.102 N 
ATOM     32  O   UNL     1     -21.771 -44.523  29.493  1.00  0.00    -0.256 OA
ATOM     33  O   UNL     1     -23.061 -45.505  27.993  1.00  0.00    -0.256 OA
ENDBRANCH  30  31
ENDBRANCH  25  26
ENDBRANCH  24  25
ENDBRANCH   1  19
TORSDOF 10
ENDMDL
MODEL 8
REMARK VINA RESULT:    -9.905      2.251      3.459
REMARK INTER + INTRA:         -16.230
REMARK INTER:                 -15.524
REMARK INTRA:                  -0.706
REMARK UNBOUND:                -0.823
REMARK SMILES COc1cc2c(cc1OC)SC(=C(O)CCc1cc[n+](Cc3coc([N+](=O)[O-])c3)cc1)C2
REMARK SMILES IDX 16 1 15 2 13 3 14 4 12 6 32 7 11 8 5 9 6 10 4 11 7 12 3 13
REMARK SMILES IDX 8 14 2 15 1 16 9 17 10 18 17 19 18 20 31 21 19 22 30 23
REMARK SMILES IDX 20 24 21 25 22 26 23 27 29 28 24 29 25 30 26 31 27 32 28 33
REMARK H PARENT 14 5
ROOT
ATOM      1  C   UNL     1     -13.982 -44.743  26.248  1.00  0.00     0.044 C 
ENDROOT
BRANCH   1   2
ATOM      2  C   UNL     1     -14.581 -43.383  25.874  1.00  0.00     0.080 C 
BRANCH   2   3
ATOM      3  C   UNL     1     -15.237 -43.426  24.513  1.00  0.00     0.103 C 
BRANCH   3   4
ATOM      4  O   UNL     1     -14.594 -44.198  23.555  1.00  0.00    -0.511 OA
ATOM      5  H   UNL     1     -14.032 -43.637  22.996  1.00  0.00     0.293 HD
ENDBRANCH   3   4
BRANCH   3   6
ATOM      6  C   UNL     1     -16.376 -42.793  24.175  1.00  0.00     0.032 C 
ATOM      7  C   UNL     1     -16.527 -41.980  22.902  1.00  0.00     0.083 C 
ATOM      8  S   UNL     1     -17.826 -42.796  25.166  1.00  0.00    -0.090 SA
ATOM      9  C   UNL     1     -17.919 -41.411  22.900  1.00  0.00    -0.025 A 
ATOM     10  C   UNL     1     -18.690 -41.760  24.009  1.00  0.00     0.020 A 
ATOM     11  C   UNL     1     -18.446 -40.598  21.900  1.00  0.00     0.055 A 
ATOM     12  C   UNL     1     -19.996 -41.311  24.145  1.00  0.00     0.066 A 
ATOM     13  C   UNL     1     -19.763 -40.134  22.020  1.00  0.00     0.161 A 
ATOM     14  C   UNL     1     -20.542 -40.493  23.148  1.00  0.00     0.161 A 
BRANCH  13  15
ATOM     15  O   UNL     1     -20.384 -39.328  21.097  1.00  0.00    -0.493 OA
ATOM     16  C   UNL     1     -19.899 -39.351  19.763  1.00  0.00     0.278 C 
ENDBRANCH  13  15
BRANCH  14  17
ATOM     17  O   UNL     1     -21.819 -39.990  23.176  1.00  0.00    -0.493 OA
ATOM     18  C   UNL     1     -22.879 -40.840  22.764  1.00  0.00     0.278 C 
ENDBRANCH  14  17
ENDBRANCH   3   6
ENDBRANCH   2   3
ENDBRANCH   1   2
BRANCH   1  19
ATOM     19  C   UNL     1     -13.212 -44.684  27.548  1.00  0.00    -0.036 A 
ATOM     20  C   UNL     1     -13.422 -45.624  28.556  1.00  0.00     0.074 A 
ATOM     21  C   UNL     1     -12.281 -43.668  27.767  1.00  0.00     0.074 A 
ATOM     22  C   UNL     1     -12.697 -45.537  29.740  1.00  0.00     0.308 A 
ATOM     23  C   UNL     1     -11.579 -43.618  28.966  1.00  0.00     0.308 A 
ATOM     24  N   UNL     1     -11.791 -44.547  29.927  1.00  0.00    -0.201 N 
BRANCH  24  25
ATOM     25  C   UNL     1     -11.032 -44.478  31.200  1.00  0.00     0.397 C 
BRANCH  25  26
ATOM     26  C   UNL     1     -11.707 -43.551  32.153  1.00  0.00     0.063 A 
ATOM     27  C   UNL     1     -11.093 -42.721  33.078  1.00  0.00     0.213 A 
ATOM     28  C   UNL     1     -13.111 -43.333  32.322  1.00  0.00     0.143 A 
ATOM     29  O   UNL     1     -12.013 -42.006  33.779  1.00  0.00    -0.409 OA
ATOM     30  C   UNL     1     -13.230 -42.389  33.316  1.00  0.00     0.433 A 
BRANCH  30  31
ATOM     31  N   UNL     1     -14.373 -41.768  33.909  1.00  0.00     0.102 N 
ATOM     32  O   UNL     1     -15.408 -41.791  33.228  1.00  0.00    -0.256 OA
ATOM     33  O   UNL     1     -14.242 -41.261  35.027  1.00  0.00    -0.256 OA
ENDBRANCH  30  31
ENDBRANCH  25  26
ENDBRANCH  24  25
ENDBRANCH   1  19
TORSDOF 10
ENDMDL
MODEL 9
REMARK VINA RESULT:    -9.759      2.332      3.086
REMARK INTER + INTRA:         -16.002
REMARK INTER:                 -15.129
REMARK INTRA:                  -0.873
REMARK UNBOUND:                -0.823
REMARK SMILES COc1cc2c(cc1OC)SC(=C(O)CCc1cc[n+](Cc3coc([N+](=O)[O-])c3)cc1)C2
REMARK SMILES IDX 16 1 15 2 13 3 14 4 12 6 32 7 11 8 5 9 6 10 4 11 7 12 3 13
REMARK SMILES IDX 8 14 2 15 1 16 9 17 10 18 17 19 18 20 31 21 19 22 30 23
REMARK SMILES IDX 20 24 21 25 22 26 23 27 29 28 24 29 25 30 26 31 27 32 28 33
REMARK H PARENT 14 5
ROOT
ATOM      1  C   UNL     1     -13.446 -43.795  25.866  1.00  0.00     0.044 C 
ENDROOT
BRANCH   1   2
ATOM      2  C   UNL     1     -14.946 -43.992  25.617  1.00  0.00     0.080 C 
BRANCH   2   3
ATOM      3  C   UNL     1     -15.493 -42.932  24.689  1.00  0.00     0.103 C 
BRANCH   3   4
ATOM      4  O   UNL     1     -14.587 -42.391  23.787  1.00  0.00    -0.511 OA
ATOM      5  H   UNL     1     -13.989 -41.775  24.243  1.00  0.00     0.293 HD
ENDBRANCH   3   4
BRANCH   3   6
ATOM      6  C   UNL     1     -16.765 -42.492  24.671  1.00  0.00     0.032 C 
ATOM      7  C   UNL     1     -17.610 -42.343  25.923  1.00  0.00     0.083 C 
ATOM      8  S   UNL     1     -17.627 -42.059  23.203  1.00  0.00    -0.090 SA
ATOM      9  C   UNL     1     -18.967 -41.861  25.489  1.00  0.00    -0.025 A 
ATOM     10  C   UNL     1     -19.103 -41.673  24.113  1.00  0.00     0.020 A 
ATOM     11  C   UNL     1     -20.035 -41.607  26.346  1.00  0.00     0.055 A 
ATOM     12  C   UNL     1     -20.299 -41.228  23.565  1.00  0.00     0.066 A 
ATOM     13  C   UNL     1     -21.249 -41.159  25.812  1.00  0.00     0.161 A 
ATOM     14  C   UNL     1     -21.381 -40.968  24.414  1.00  0.00     0.161 A 
BRANCH  13  15
ATOM     15  O   UNL     1     -22.366 -40.879  26.561  1.00  0.00    -0.493 OA
ATOM     16  C   UNL     1     -23.071 -41.970  27.133  1.00  0.00     0.278 C 
ENDBRANCH  13  15
BRANCH  14  17
ATOM     17  O   UNL     1     -22.609 -40.527  23.985  1.00  0.00    -0.493 OA
ATOM     18  C   UNL     1     -22.644 -39.569  22.938  1.00  0.00     0.278 C 
ENDBRANCH  14  17
ENDBRANCH   3   6
ENDBRANCH   2   3
ENDBRANCH   1   2
BRANCH   1  19
ATOM     19  C   UNL     1     -13.074 -44.053  27.309  1.00  0.00    -0.036 A 
ATOM     20  C   UNL     1     -11.924 -43.499  27.870  1.00  0.00     0.074 A 
ATOM     21  C   UNL     1     -13.876 -44.871  28.105  1.00  0.00     0.074 A 
ATOM     22  C   UNL     1     -11.612 -43.760  29.199  1.00  0.00     0.308 A 
ATOM     23  C   UNL     1     -13.526 -45.107  29.430  1.00  0.00     0.308 A 
ATOM     24  N   UNL     1     -12.411 -44.549  29.957  1.00  0.00    -0.201 N 
BRANCH  24  25
ATOM     25  C   UNL     1     -12.054 -44.812  31.373  1.00  0.00     0.397 C 
BRANCH  25  26
ATOM     26  C   UNL     1     -12.555 -43.710  32.244  1.00  0.00     0.063 A 
ATOM     27  C   UNL     1     -11.789 -42.782  32.931  1.00  0.00     0.213 A 
ATOM     28  C   UNL     1     -13.913 -43.389  32.561  1.00  0.00     0.143 A 
ATOM     29  O   UNL     1     -12.575 -41.916  33.623  1.00  0.00    -0.409 OA
ATOM     30  C   UNL     1     -13.858 -42.296  33.395  1.00  0.00     0.433 A 
BRANCH  30  31
ATOM     31  N   UNL     1     -14.884 -41.526  34.027  1.00  0.00     0.102 N 
ATOM     32  O   UNL     1     -15.915 -41.360  33.360  1.00  0.00    -0.256 OA
ATOM     33  O   UNL     1     -14.664 -41.088  35.160  1.00  0.00    -0.256 OA
ENDBRANCH  30  31
ENDBRANCH  25  26
ENDBRANCH  24  25
ENDBRANCH   1  19
TORSDOF 10
ENDMDL
