MODEL 1
REMARK VINA RESULT:   -12.839      0.000      0.000
REMARK INTER + INTRA:         -17.537
REMARK INTER:                 -16.968
REMARK INTRA:                  -0.569
REMARK UNBOUND:                -0.569
REMARK SMILES OC1=Cc2cc3c(CC[C@H]4CC[N@H+](Cc5ccccc5)CC4)noc3cc2NC1
REMARK SMILES IDX 8 1 7 2 2 3 3 4 29 5 4 6 28 7 5 8 27 9 6 10 26 11 25 12
REMARK SMILES IDX 23 13 24 14 1 16 9 18 10 19 22 20 11 21 21 22 12 23 13 24
REMARK SMILES IDX 14 26 15 27 16 28 20 29 17 30 19 31 18 32
REMARK H PARENT 28 15 1 17 13 25
ROOT
ATOM      1  C   UNL     1     -14.232 -43.655  26.397  1.00  0.00     0.061 C 
ENDROOT
BRANCH   1   2
ATOM      2  C   UNL     1     -15.096 -43.279  25.242  1.00  0.00     0.091 A 
ATOM      3  C   UNL     1     -20.849 -41.190  26.341  1.00  0.00     0.112 C 
ATOM      4  C   UNL     1     -19.721 -41.781  26.751  1.00  0.00     0.053 C 
ATOM      5  C   UNL     1     -21.074 -40.773  24.906  1.00  0.00     0.187 C 
ATOM      6  C   UNL     1     -18.664 -42.047  25.773  1.00  0.00     0.002 A 
ATOM      7  N   UNL     1     -20.224 -41.497  23.960  1.00  0.00    -0.377 N 
ATOM      8  C   UNL     1     -17.411 -42.506  26.217  1.00  0.00     0.024 A 
ATOM      9  C   UNL     1     -18.937 -41.860  24.398  1.00  0.00     0.046 A 
ATOM     10  C   UNL     1     -16.430 -42.802  25.257  1.00  0.00     0.046 A 
ATOM     11  C   UNL     1     -17.966 -42.193  23.440  1.00  0.00     0.077 A 
ATOM     12  C   UNL     1     -16.739 -42.642  23.920  1.00  0.00     0.169 A 
ATOM     13  N   UNL     1     -14.630 -43.408  23.991  1.00  0.00    -0.084 NA
ATOM     14  O   UNL     1     -15.668 -43.004  23.164  1.00  0.00    -0.356 OA
ATOM     15  H   UNL     1     -20.220 -41.072  23.037  1.00  0.00     0.161 HD
BRANCH   3  16
ATOM     16  O   UNL     1     -21.849 -40.933  27.265  1.00  0.00    -0.510 OA
ATOM     17  H   UNL     1     -21.778 -41.570  27.998  1.00  0.00     0.293 HD
ENDBRANCH   3  16
ENDBRANCH   1   2
BRANCH   1  18
ATOM     18  C   UNL     1     -13.799 -45.130  26.380  1.00  0.00     0.010 C 
BRANCH  18  19
ATOM     19  C   UNL     1     -13.260 -45.679  27.719  1.00  0.00     0.000 C 
ATOM     20  C   UNL     1     -11.752 -45.958  27.686  1.00  0.00     0.065 C 
ATOM     21  C   UNL     1     -13.573 -44.702  28.862  1.00  0.00     0.065 C 
ATOM     22  C   UNL     1     -11.252 -46.489  29.023  1.00  0.00     0.262 C 
ATOM     23  C   UNL     1     -13.070 -45.230  30.200  1.00  0.00     0.262 C 
ATOM     24  N   UNL     1     -11.590 -45.503  30.117  1.00  0.00    -0.331 N 
ATOM     25  H   UNL     1     -11.118 -44.621  29.883  1.00  0.00     0.348 HD
BRANCH  24  26
ATOM     26  C   UNL     1     -11.036 -45.924  31.464  1.00  0.00     0.299 C 
BRANCH  26  27
ATOM     27  C   UNL     1      -9.787 -45.177  31.847  1.00  0.00     0.006 A 
ATOM     28  C   UNL     1      -9.873 -43.913  32.452  1.00  0.00     0.009 A 
ATOM     29  C   UNL     1      -8.521 -45.723  31.588  1.00  0.00     0.009 A 
ATOM     30  C   UNL     1      -8.714 -43.209  32.783  1.00  0.00     0.001 A 
ATOM     31  C   UNL     1      -7.365 -45.014  31.919  1.00  0.00     0.001 A 
ATOM     32  C   UNL     1      -7.462 -43.759  32.514  1.00  0.00     0.000 A 
ENDBRANCH  26  27
ENDBRANCH  24  26
ENDBRANCH  18  19
ENDBRANCH   1  18
TORSDOF 6
ENDMDL
MODEL 2
REMARK VINA RESULT:   -12.237      1.736      2.620
REMARK INTER + INTRA:         -16.741
REMARK INTER:                 -16.274
REMARK INTRA:                  -0.467
REMARK UNBOUND:                -0.569
REMARK SMILES OC1=Cc2cc3c(CC[C@H]4CC[N@H+](Cc5ccccc5)CC4)noc3cc2NC1
REMARK SMILES IDX 8 1 7 2 2 3 3 4 29 5 4 6 28 7 5 8 27 9 6 10 26 11 25 12
REMARK SMILES IDX 23 13 24 14 1 16 9 18 10 19 22 20 11 21 21 22 12 23 13 24
REMARK SMILES IDX 14 26 15 27 16 28 20 29 17 30 19 31 18 32
REMARK H PARENT 28 15 1 17 13 25
ROOT
ATOM      1  C   UNL     1     -14.469 -43.208  26.911  1.00  0.00     0.061 C 
ENDROOT
BRANCH   1   2
ATOM      2  C   UNL     1     -15.896 -42.861  27.167  1.00  0.00     0.091 A 
ATOM      3  C   UNL     1     -19.690 -41.959  22.323  1.00  0.00     0.112 C 
ATOM      4  C   UNL     1     -18.463 -42.109  22.836  1.00  0.00     0.053 C 
ATOM      5  C   UNL     1     -20.931 -41.911  23.182  1.00  0.00     0.187 C 
ATOM      6  C   UNL     1     -18.311 -42.218  24.288  1.00  0.00     0.002 A 
ATOM      7  N   UNL     1     -20.653 -41.538  24.569  1.00  0.00    -0.377 N 
ATOM      8  C   UNL     1     -17.055 -42.548  24.829  1.00  0.00     0.024 A 
ATOM      9  C   UNL     1     -19.428 -41.964  25.118  1.00  0.00     0.046 A 
ATOM     10  C   UNL     1     -16.922 -42.598  26.225  1.00  0.00     0.046 A 
ATOM     11  C   UNL     1     -19.281 -41.979  26.513  1.00  0.00     0.077 A 
ATOM     12  C   UNL     1     -18.023 -42.311  27.009  1.00  0.00     0.169 A 
ATOM     13  N   UNL     1     -16.336 -42.735  28.427  1.00  0.00    -0.084 NA
ATOM     14  O   UNL     1     -17.676 -42.391  28.321  1.00  0.00    -0.356 OA
ATOM     15  H   UNL     1     -21.441 -41.713  25.185  1.00  0.00     0.161 HD
BRANCH   3  16
ATOM     16  O   UNL     1     -19.837 -41.860  20.949  1.00  0.00    -0.510 OA
ATOM     17  H   UNL     1     -20.477 -42.529  20.647  1.00  0.00     0.293 HD
ENDBRANCH   3  16
ENDBRANCH   1   2
BRANCH   1  18
ATOM     18  C   UNL     1     -14.240 -44.709  26.671  1.00  0.00     0.010 C 
BRANCH  18  19
ATOM     19  C   UNL     1     -13.513 -45.460  27.808  1.00  0.00     0.000 C 
ATOM     20  C   UNL     1     -11.994 -45.523  27.606  1.00  0.00     0.065 C 
ATOM     21  C   UNL     1     -13.821 -44.806  29.163  1.00  0.00     0.065 C 
ATOM     22  C   UNL     1     -11.308 -46.261  28.749  1.00  0.00     0.262 C 
ATOM     23  C   UNL     1     -13.133 -45.541  30.306  1.00  0.00     0.262 C 
ATOM     24  N   UNL     1     -11.647 -45.591  30.060  1.00  0.00    -0.331 N 
ATOM     25  H   UNL     1     -11.304 -44.625  30.000  1.00  0.00     0.348 HD
BRANCH  24  26
ATOM     26  C   UNL     1     -10.919 -46.218  31.233  1.00  0.00     0.299 C 
BRANCH  26  27
ATOM     27  C   UNL     1      -9.635 -45.512  31.575  1.00  0.00     0.006 A 
ATOM     28  C   UNL     1      -8.399 -46.143  31.361  1.00  0.00     0.009 A 
ATOM     29  C   UNL     1      -9.654 -44.225  32.131  1.00  0.00     0.009 A 
ATOM     30  C   UNL     1      -7.209 -45.498  31.703  1.00  0.00     0.001 A 
ATOM     31  C   UNL     1      -8.462 -43.585  32.472  1.00  0.00     0.001 A 
ATOM     32  C   UNL     1      -7.242 -44.222  32.260  1.00  0.00     0.000 A 
ENDBRANCH  26  27
ENDBRANCH  24  26
ENDBRANCH  18  19
ENDBRANCH   1  18
TORSDOF 6
ENDMDL
MODEL 3
REMARK VINA RESULT:   -12.108      1.617      2.278
REMARK INTER + INTRA:         -16.571
REMARK INTER:                 -16.338
REMARK INTRA:                  -0.232
REMARK UNBOUND:                -0.569
REMARK SMILES OC1=Cc2cc3c(CC[C@H]4CC[N@H+](Cc5ccccc5)CC4)noc3cc2NC1
REMARK SMILES IDX 8 1 7 2 2 3 3 4 29 5 4 6 28 7 5 8 27 9 6 10 26 11 25 12
REMARK SMILES IDX 23 13 24 14 1 16 9 18 10 19 22 20 11 21 21 22 12 23 13 24
REMARK SMILES IDX 14 26 15 27 16 28 20 29 17 30 19 31 18 32
REMARK H PARENT 28 15 1 17 13 25
ROOT
ATOM      1  C   UNL     1     -15.225 -43.526  26.372  1.00  0.00     0.061 C 
ENDROOT
BRANCH   1   2
ATOM      2  C   UNL     1     -15.315 -42.762  25.096  1.00  0.00     0.091 A 
ATOM      3  C   UNL     1     -20.927 -41.473  22.749  1.00  0.00     0.112 C 
ATOM      4  C   UNL     1     -20.142 -42.135  23.606  1.00  0.00     0.053 C 
ATOM      5  C   UNL     1     -20.378 -40.539  21.696  1.00  0.00     0.187 C 
ATOM      6  C   UNL     1     -18.691 -41.963  23.516  1.00  0.00     0.002 A 
ATOM      7  N   UNL     1     -18.977 -40.807  21.369  1.00  0.00    -0.377 N 
ATOM      8  C   UNL     1     -17.866 -42.513  24.513  1.00  0.00     0.024 A 
ATOM      9  C   UNL     1     -18.148 -41.266  22.411  1.00  0.00     0.046 A 
ATOM     10  C   UNL     1     -16.475 -42.377  24.379  1.00  0.00     0.046 A 
ATOM     11  C   UNL     1     -16.757 -41.165  22.261  1.00  0.00     0.077 A 
ATOM     12  C   UNL     1     -15.975 -41.721  23.270  1.00  0.00     0.169 A 
ATOM     13  N   UNL     1     -14.194 -42.378  24.468  1.00  0.00    -0.084 NA
ATOM     14  O   UNL     1     -14.616 -41.722  23.321  1.00  0.00    -0.356 OA
ATOM     15  H   UNL     1     -18.553 -40.058  20.831  1.00  0.00     0.161 HD
BRANCH   3  16
ATOM     16  O   UNL     1     -22.301 -41.631  22.835  1.00  0.00    -0.510 OA
ATOM     17  H   UNL     1     -22.727 -41.119  22.125  1.00  0.00     0.293 HD
ENDBRANCH   3  16
ENDBRANCH   1   2
BRANCH   1  18
ATOM     18  C   UNL     1     -14.117 -44.592  26.369  1.00  0.00     0.010 C 
BRANCH  18  19
ATOM     19  C   UNL     1     -13.326 -44.731  27.688  1.00  0.00     0.000 C 
ATOM     20  C   UNL     1     -14.225 -44.695  28.930  1.00  0.00     0.065 C 
ATOM     21  C   UNL     1     -12.508 -46.030  27.687  1.00  0.00     0.065 C 
ATOM     22  C   UNL     1     -13.416 -44.844  30.212  1.00  0.00     0.262 C 
ATOM     23  C   UNL     1     -11.700 -46.182  28.969  1.00  0.00     0.262 C 
ATOM     24  N   UNL     1     -12.620 -46.128  30.162  1.00  0.00    -0.331 N 
ATOM     25  H   UNL     1     -13.297 -46.896  30.075  1.00  0.00     0.348 HD
BRANCH  24  26
ATOM     26  C   UNL     1     -11.863 -46.386  31.449  1.00  0.00     0.299 C 
BRANCH  26  27
ATOM     27  C   UNL     1     -10.487 -45.776  31.457  1.00  0.00     0.006 A 
ATOM     28  C   UNL     1      -9.359 -46.565  31.182  1.00  0.00     0.009 A 
ATOM     29  C   UNL     1     -10.311 -44.418  31.759  1.00  0.00     0.009 A 
ATOM     30  C   UNL     1      -8.081 -46.004  31.215  1.00  0.00     0.001 A 
ATOM     31  C   UNL     1      -9.031 -43.862  31.792  1.00  0.00     0.001 A 
ATOM     32  C   UNL     1      -7.918 -44.654  31.523  1.00  0.00     0.000 A 
ENDBRANCH  26  27
ENDBRANCH  24  26
ENDBRANCH  18  19
ENDBRANCH   1  18
TORSDOF 6
ENDMDL
MODEL 4
REMARK VINA RESULT:   -11.152      3.172     11.032
REMARK INTER + INTRA:         -15.307
REMARK INTER:                 -15.005
REMARK INTRA:                  -0.302
REMARK UNBOUND:                -0.569
REMARK SMILES OC1=Cc2cc3c(CC[C@H]4CC[N@H+](Cc5ccccc5)CC4)noc3cc2NC1
REMARK SMILES IDX 8 1 7 2 2 3 3 4 29 5 4 6 28 7 5 8 27 9 6 10 26 11 25 12
REMARK SMILES IDX 23 13 24 14 1 16 9 18 10 19 22 20 11 21 21 22 12 23 13 24
REMARK SMILES IDX 14 26 15 27 16 28 20 29 17 30 19 31 18 32
REMARK H PARENT 28 15 1 17 13 25
ROOT
ATOM      1  C   UNL     1     -13.564 -42.984  26.588  1.00  0.00     0.061 C 
ENDROOT
BRANCH   1   2
ATOM      2  C   UNL     1     -13.017 -44.235  27.185  1.00  0.00     0.091 A 
ATOM      3  C   UNL     1      -8.010 -43.880  30.856  1.00  0.00     0.112 C 
ATOM      4  C   UNL     1      -8.851 -43.336  29.970  1.00  0.00     0.053 C 
ATOM      5  C   UNL     1      -8.120 -45.318  31.306  1.00  0.00     0.187 C 
ATOM      6  C   UNL     1      -9.915 -44.165  29.400  1.00  0.00     0.002 A 
ATOM      7  N   UNL     1      -8.852 -46.159  30.359  1.00  0.00    -0.377 N 
ATOM      8  C   UNL     1     -10.908 -43.566  28.603  1.00  0.00     0.024 A 
ATOM      9  C   UNL     1      -9.906 -45.559  29.643  1.00  0.00     0.046 A 
ATOM     10  C   UNL     1     -11.888 -44.390  28.028  1.00  0.00     0.046 A 
ATOM     11  C   UNL     1     -10.865 -46.382  29.036  1.00  0.00     0.077 A 
ATOM     12  C   UNL     1     -11.831 -45.752  28.256  1.00  0.00     0.169 A 
ATOM     13  N   UNL     1     -13.599 -45.413  26.915  1.00  0.00    -0.084 NA
ATOM     14  O   UNL     1     -12.849 -46.362  27.593  1.00  0.00    -0.356 OA
ATOM     15  H   UNL     1      -9.109 -47.059  30.754  1.00  0.00     0.161 HD
BRANCH   3  16
ATOM     16  O   UNL     1      -7.005 -43.096  31.400  1.00  0.00    -0.510 OA
ATOM     17  H   UNL     1      -6.233 -43.110  30.807  1.00  0.00     0.293 HD
ENDBRANCH   3  16
ENDBRANCH   1   2
BRANCH   1  18
ATOM     18  C   UNL     1     -14.083 -43.169  25.153  1.00  0.00     0.010 C 
BRANCH  18  19
ATOM     19  C   UNL     1     -15.616 -43.286  25.012  1.00  0.00     0.000 C 
ATOM     20  C   UNL     1     -16.377 -42.485  26.076  1.00  0.00     0.065 C 
ATOM     21  C   UNL     1     -16.061 -42.831  23.614  1.00  0.00     0.065 C 
ATOM     22  C   UNL     1     -17.885 -42.615  25.902  1.00  0.00     0.262 C 
ATOM     23  C   UNL     1     -17.569 -42.957  23.441  1.00  0.00     0.262 C 
ATOM     24  N   UNL     1     -18.275 -42.167  24.513  1.00  0.00    -0.331 N 
ATOM     25  H   UNL     1     -17.988 -41.185  24.423  1.00  0.00     0.348 HD
BRANCH  24  26
ATOM     26  C   UNL     1     -19.776 -42.180  24.304  1.00  0.00     0.299 C 
BRANCH  26  27
ATOM     27  C   UNL     1     -20.260 -41.053  23.433  1.00  0.00     0.006 A 
ATOM     28  C   UNL     1     -21.590 -40.612  23.515  1.00  0.00     0.009 A 
ATOM     29  C   UNL     1     -19.396 -40.441  22.513  1.00  0.00     0.009 A 
ATOM     30  C   UNL     1     -22.045 -39.584  22.688  1.00  0.00     0.001 A 
ATOM     31  C   UNL     1     -19.856 -39.414  21.687  1.00  0.00     0.001 A 
ATOM     32  C   UNL     1     -21.179 -38.988  21.773  1.00  0.00     0.000 A 
ENDBRANCH  26  27
ENDBRANCH  24  26
ENDBRANCH  18  19
ENDBRANCH   1  18
TORSDOF 6
ENDMDL
MODEL 5
REMARK VINA RESULT:   -11.098      3.238     10.490
REMARK INTER + INTRA:         -15.236
REMARK INTER:                 -14.582
REMARK INTRA:                  -0.654
REMARK UNBOUND:                -0.569
REMARK SMILES OC1=Cc2cc3c(CC[C@H]4CC[N@H+](Cc5ccccc5)CC4)noc3cc2NC1
REMARK SMILES IDX 8 1 7 2 2 3 3 4 29 5 4 6 28 7 5 8 27 9 6 10 26 11 25 12
REMARK SMILES IDX 23 13 24 14 1 16 9 18 10 19 22 20 11 21 21 22 12 23 13 24
REMARK SMILES IDX 14 26 15 27 16 28 20 29 17 30 19 31 18 32
REMARK H PARENT 28 15 1 17 13 25
ROOT
ATOM      1  C   UNL     1     -13.615 -42.791  26.522  1.00  0.00     0.061 C 
ENDROOT
BRANCH   1   2
ATOM      2  C   UNL     1     -13.103 -44.055  27.123  1.00  0.00     0.091 A 
ATOM      3  C   UNL     1      -8.081 -43.830  30.782  1.00  0.00     0.112 C 
ATOM      4  C   UNL     1      -8.908 -43.265  29.895  1.00  0.00     0.053 C 
ATOM      5  C   UNL     1      -8.231 -45.262  31.238  1.00  0.00     0.187 C 
ATOM      6  C   UNL     1      -9.995 -44.066  29.330  1.00  0.00     0.002 A 
ATOM      7  N   UNL     1      -8.988 -46.086  30.295  1.00  0.00    -0.377 N 
ATOM      8  C   UNL     1     -10.973 -43.442  28.534  1.00  0.00     0.024 A 
ATOM      9  C   UNL     1     -10.026 -45.458  29.580  1.00  0.00     0.046 A 
ATOM     10  C   UNL     1     -11.977 -44.239  27.963  1.00  0.00     0.046 A 
ATOM     11  C   UNL     1     -11.010 -46.256  28.977  1.00  0.00     0.077 A 
ATOM     12  C   UNL     1     -11.959 -45.601  28.197  1.00  0.00     0.169 A 
ATOM     13  N   UNL     1     -13.719 -45.217  26.858  1.00  0.00    -0.084 NA
ATOM     14  O   UNL     1     -12.995 -46.185  27.539  1.00  0.00    -0.356 OA
ATOM     15  H   UNL     1      -9.270 -46.976  30.695  1.00  0.00     0.161 HD
BRANCH   3  16
ATOM     16  O   UNL     1      -7.052 -43.073  31.321  1.00  0.00    -0.510 OA
ATOM     17  H   UNL     1      -7.048 -42.195  30.900  1.00  0.00     0.293 HD
ENDBRANCH   3  16
ENDBRANCH   1   2
BRANCH   1  18
ATOM     18  C   UNL     1     -14.061 -42.948  25.059  1.00  0.00     0.010 C 
BRANCH  18  19
ATOM     19  C   UNL     1     -15.515 -42.523  24.759  1.00  0.00     0.000 C 
ATOM     20  C   UNL     1     -16.080 -43.180  23.493  1.00  0.00     0.065 C 
ATOM     21  C   UNL     1     -16.425 -42.848  25.952  1.00  0.00     0.065 C 
ATOM     22  C   UNL     1     -17.517 -42.747  23.232  1.00  0.00     0.262 C 
ATOM     23  C   UNL     1     -17.862 -42.418  25.691  1.00  0.00     0.262 C 
ATOM     24  N   UNL     1     -18.371 -43.075  24.434  1.00  0.00    -0.331 N 
ATOM     25  H   UNL     1     -18.323 -44.093  24.567  1.00  0.00     0.348 HD
BRANCH  24  26
ATOM     26  C   UNL     1     -19.836 -42.757  24.204  1.00  0.00     0.299 C 
BRANCH  26  27
ATOM     27  C   UNL     1     -20.743 -43.382  25.230  1.00  0.00     0.006 A 
ATOM     28  C   UNL     1     -20.822 -44.778  25.350  1.00  0.00     0.009 A 
ATOM     29  C   UNL     1     -21.535 -42.580  26.065  1.00  0.00     0.009 A 
ATOM     30  C   UNL     1     -21.684 -45.357  26.284  1.00  0.00     0.001 A 
ATOM     31  C   UNL     1     -22.396 -43.164  26.995  1.00  0.00     0.001 A 
ATOM     32  C   UNL     1     -22.471 -44.550  27.103  1.00  0.00     0.000 A 
ENDBRANCH  26  27
ENDBRANCH  24  26
ENDBRANCH  18  19
ENDBRANCH   1  18
TORSDOF 6
ENDMDL
MODEL 6
REMARK VINA RESULT:   -10.840      3.343      6.680
REMARK INTER + INTRA:         -14.894
REMARK INTER:                 -13.931
REMARK INTRA:                  -0.963
REMARK UNBOUND:                -0.569
REMARK SMILES OC1=Cc2cc3c(CC[C@H]4CC[N@H+](Cc5ccccc5)CC4)noc3cc2NC1
REMARK SMILES IDX 8 1 7 2 2 3 3 4 29 5 4 6 28 7 5 8 27 9 6 10 26 11 25 12
REMARK SMILES IDX 23 13 24 14 1 16 9 18 10 19 22 20 11 21 21 22 12 23 13 24
REMARK SMILES IDX 14 26 15 27 16 28 20 29 17 30 19 31 18 32
REMARK H PARENT 28 15 1 17 13 25
ROOT
ATOM      1  C   UNL     1     -20.990 -40.927  26.899  1.00  0.00     0.061 C 
ENDROOT
BRANCH   1   2
ATOM      2  C   UNL     1     -22.024 -40.851  25.829  1.00  0.00     0.091 A 
ATOM      3  C   UNL     1     -20.231 -39.676  19.991  1.00  0.00     0.112 C 
ATOM      4  C   UNL     1     -19.979 -39.728  21.304  1.00  0.00     0.053 C 
ATOM      5  C   UNL     1     -21.594 -39.972  19.412  1.00  0.00     0.187 C 
ATOM      6  C   UNL     1     -21.067 -40.073  22.221  1.00  0.00     0.002 A 
ATOM      7  N   UNL     1     -22.676 -39.817  20.385  1.00  0.00    -0.377 N 
ATOM      8  C   UNL     1     -20.780 -40.301  23.580  1.00  0.00     0.024 A 
ATOM      9  C   UNL     1     -22.389 -40.145  21.724  1.00  0.00     0.046 A 
ATOM     10  C   UNL     1     -21.846 -40.581  24.448  1.00  0.00     0.046 A 
ATOM     11  C   UNL     1     -23.455 -40.388  22.603  1.00  0.00     0.077 A 
ATOM     12  C   UNL     1     -23.131 -40.610  23.938  1.00  0.00     0.169 A 
ATOM     13  N   UNL     1     -23.318 -41.023  26.137  1.00  0.00    -0.084 NA
ATOM     14  O   UNL     1     -24.008 -40.872  24.943  1.00  0.00    -0.356 OA
ATOM     15  H   UNL     1     -23.551 -40.218  20.062  1.00  0.00     0.161 HD
BRANCH   3  16
ATOM     16  O   UNL     1     -19.202 -39.353  19.121  1.00  0.00    -0.510 OA
ATOM     17  H   UNL     1     -18.351 -39.578  19.535  1.00  0.00     0.293 HD
ENDBRANCH   3  16
ENDBRANCH   1   2
BRANCH   1  18
ATOM     18  C   UNL     1     -20.165 -42.223  26.861  1.00  0.00     0.010 C 
BRANCH  18  19
ATOM     19  C   UNL     1     -18.670 -42.048  26.517  1.00  0.00     0.000 C 
ATOM     20  C   UNL     1     -17.739 -42.590  27.609  1.00  0.00     0.065 C 
ATOM     21  C   UNL     1     -18.344 -42.732  25.182  1.00  0.00     0.065 C 
ATOM     22  C   UNL     1     -16.273 -42.410  27.235  1.00  0.00     0.262 C 
ATOM     23  C   UNL     1     -16.878 -42.556  24.808  1.00  0.00     0.262 C 
ATOM     24  N   UNL     1     -16.001 -43.088  25.913  1.00  0.00    -0.331 N 
ATOM     25  H   UNL     1     -16.219 -44.084  26.037  1.00  0.00     0.348 HD
BRANCH  24  26
ATOM     26  C   UNL     1     -14.537 -43.030  25.526  1.00  0.00     0.299 C 
BRANCH  26  27
ATOM     27  C   UNL     1     -13.650 -43.816  26.453  1.00  0.00     0.006 A 
ATOM     28  C   UNL     1     -12.662 -43.168  27.210  1.00  0.00     0.009 A 
ATOM     29  C   UNL     1     -13.783 -45.208  26.557  1.00  0.00     0.009 A 
ATOM     30  C   UNL     1     -11.822 -43.902  28.050  1.00  0.00     0.001 A 
ATOM     31  C   UNL     1     -12.940 -45.938  27.397  1.00  0.00     0.001 A 
ATOM     32  C   UNL     1     -11.960 -45.285  28.140  1.00  0.00     0.000 A 
ENDBRANCH  26  27
ENDBRANCH  24  26
ENDBRANCH  18  19
ENDBRANCH   1  18
TORSDOF 6
ENDMDL
MODEL 7
REMARK VINA RESULT:   -10.785      1.470      2.157
REMARK INTER + INTRA:         -14.822
REMARK INTER:                 -14.150
REMARK INTRA:                  -0.672
REMARK UNBOUND:                -0.569
REMARK SMILES OC1=Cc2cc3c(CC[C@H]4CC[N@H+](Cc5ccccc5)CC4)noc3cc2NC1
REMARK SMILES IDX 8 1 7 2 2 3 3 4 29 5 4 6 28 7 5 8 27 9 6 10 26 11 25 12
REMARK SMILES IDX 23 13 24 14 1 16 9 18 10 19 22 20 11 21 21 22 12 23 13 24
REMARK SMILES IDX 14 26 15 27 16 28 20 29 17 30 19 31 18 32
REMARK H PARENT 28 15 1 17 13 25
ROOT
ATOM      1  C   UNL     1     -14.772 -42.953  24.284  1.00  0.00     0.061 C 
ENDROOT
BRANCH   1   2
ATOM      2  C   UNL     1     -15.961 -42.296  23.672  1.00  0.00     0.091 A 
ATOM      3  C   UNL     1     -21.435 -42.647  26.602  1.00  0.00     0.112 C 
ATOM      4  C   UNL     1     -20.167 -43.040  26.443  1.00  0.00     0.053 C 
ATOM      5  C   UNL     1     -22.099 -41.647  25.684  1.00  0.00     0.187 C 
ATOM      6  C   UNL     1     -19.388 -42.492  25.331  1.00  0.00     0.002 A 
ATOM      7  N   UNL     1     -21.444 -41.546  24.379  1.00  0.00    -0.377 N 
ATOM      8  C   UNL     1     -18.010 -42.759  25.253  1.00  0.00     0.024 A 
ATOM      9  C   UNL     1     -20.048 -41.723  24.343  1.00  0.00     0.046 A 
ATOM     10  C   UNL     1     -17.295 -42.264  24.151  1.00  0.00     0.046 A 
ATOM     11  C   UNL     1     -19.337 -41.261  23.225  1.00  0.00     0.077 A 
ATOM     12  C   UNL     1     -17.975 -41.546  23.185  1.00  0.00     0.169 A 
ATOM     13  N   UNL     1     -15.840 -41.655  22.501  1.00  0.00    -0.084 NA
ATOM     14  O   UNL     1     -17.110 -41.183  22.201  1.00  0.00    -0.356 OA
ATOM     15  H   UNL     1     -21.751 -40.734  23.852  1.00  0.00     0.161 HD
BRANCH   3  16
ATOM     16  O   UNL     1     -22.173 -43.162  27.656  1.00  0.00    -0.510 OA
ATOM     17  H   UNL     1     -23.031 -42.704  27.698  1.00  0.00     0.293 HD
ENDBRANCH   3  16
ENDBRANCH   1   2
BRANCH   1  18
ATOM     18  C   UNL     1     -14.486 -42.482  25.719  1.00  0.00     0.010 C 
BRANCH  18  19
ATOM     19  C   UNL     1     -13.682 -43.469  26.594  1.00  0.00     0.000 C 
ATOM     20  C   UNL     1     -12.437 -42.831  27.222  1.00  0.00     0.065 C 
ATOM     21  C   UNL     1     -14.573 -44.050  27.702  1.00  0.00     0.065 C 
ATOM     22  C   UNL     1     -11.673 -43.828  28.085  1.00  0.00     0.262 C 
ATOM     23  C   UNL     1     -13.809 -45.044  28.566  1.00  0.00     0.262 C 
ATOM     24  N   UNL     1     -12.589 -44.381  29.152  1.00  0.00    -0.331 N 
ATOM     25  H   UNL     1     -12.903 -43.584  29.719  1.00  0.00     0.348 HD
BRANCH  24  26
ATOM     26  C   UNL     1     -11.866 -45.310  30.107  1.00  0.00     0.299 C 
BRANCH  26  27
ATOM     27  C   UNL     1     -11.020 -44.579  31.114  1.00  0.00     0.006 A 
ATOM     28  C   UNL     1      -9.673 -44.928  31.297  1.00  0.00     0.009 A 
ATOM     29  C   UNL     1     -11.570 -43.553  31.897  1.00  0.00     0.009 A 
ATOM     30  C   UNL     1      -8.896 -44.267  32.250  1.00  0.00     0.001 A 
ATOM     31  C   UNL     1     -10.789 -42.896  32.849  1.00  0.00     0.001 A 
ATOM     32  C   UNL     1      -9.455 -43.254  33.026  1.00  0.00     0.000 A 
ENDBRANCH  26  27
ENDBRANCH  24  26
ENDBRANCH  18  19
ENDBRANCH   1  18
TORSDOF 6
ENDMDL
MODEL 8
REMARK VINA RESULT:   -10.622      3.171     10.384
REMARK INTER + INTRA:         -14.606
REMARK INTER:                 -14.218
REMARK INTRA:                  -0.388
REMARK UNBOUND:                -0.569
REMARK SMILES OC1=Cc2cc3c(CC[C@H]4CC[N@H+](Cc5ccccc5)CC4)noc3cc2NC1
REMARK SMILES IDX 8 1 7 2 2 3 3 4 29 5 4 6 28 7 5 8 27 9 6 10 26 11 25 12
REMARK SMILES IDX 23 13 24 14 1 16 9 18 10 19 22 20 11 21 21 22 12 23 13 24
REMARK SMILES IDX 14 26 15 27 16 28 20 29 17 30 19 31 18 32
REMARK H PARENT 28 15 1 17 13 25
ROOT
ATOM      1  C   UNL     1     -13.469 -44.779  27.175  1.00  0.00     0.061 C 
ENDROOT
BRANCH   1   2
ATOM      2  C   UNL     1     -13.445 -44.586  28.652  1.00  0.00     0.091 A 
ATOM      3  C   UNL     1      -8.003 -43.492  31.456  1.00  0.00     0.112 C 
ATOM      4  C   UNL     1      -8.713 -43.869  30.387  1.00  0.00     0.053 C 
ATOM      5  C   UNL     1      -8.645 -43.155  32.782  1.00  0.00     0.187 C 
ATOM      6  C   UNL     1     -10.169 -43.974  30.503  1.00  0.00     0.002 A 
ATOM      7  N   UNL     1      -9.975 -43.744  32.939  1.00  0.00    -0.377 N 
ATOM      8  C   UNL     1     -10.940 -44.199  29.348  1.00  0.00     0.024 A 
ATOM      9  C   UNL     1     -10.766 -43.870  31.781  1.00  0.00     0.046 A 
ATOM     10  C   UNL     1     -12.329 -44.345  29.492  1.00  0.00     0.046 A 
ATOM     11  C   UNL     1     -12.150 -44.054  31.924  1.00  0.00     0.077 A 
ATOM     12  C   UNL     1     -12.878 -44.273  30.758  1.00  0.00     0.169 A 
ATOM     13  N   UNL     1     -14.585 -44.663  29.354  1.00  0.00    -0.084 NA
ATOM     14  O   UNL     1     -14.222 -44.464  30.678  1.00  0.00    -0.356 OA
ATOM     15  H   UNL     1     -10.486 -43.348  33.722  1.00  0.00     0.161 HD
BRANCH   3  16
ATOM     16  O   UNL     1      -6.626 -43.389  31.348  1.00  0.00    -0.510 OA
ATOM     17  H   UNL     1      -6.216 -43.718  32.167  1.00  0.00     0.293 HD
ENDBRANCH   3  16
ENDBRANCH   1   2
BRANCH   1  18
ATOM     18  C   UNL     1     -13.250 -43.478  26.386  1.00  0.00     0.010 C 
BRANCH  18  19
ATOM     19  C   UNL     1     -14.506 -42.896  25.702  1.00  0.00     0.000 C 
ATOM     20  C   UNL     1     -14.828 -43.578  24.366  1.00  0.00     0.065 C 
ATOM     21  C   UNL     1     -15.721 -43.002  26.636  1.00  0.00     0.065 C 
ATOM     22  C   UNL     1     -16.077 -42.987  23.724  1.00  0.00     0.262 C 
ATOM     23  C   UNL     1     -16.970 -42.414  25.993  1.00  0.00     0.262 C 
ATOM     24  N   UNL     1     -17.241 -43.102  24.680  1.00  0.00    -0.331 N 
ATOM     25  H   UNL     1     -17.375 -44.103  24.869  1.00  0.00     0.348 HD
BRANCH  24  26
ATOM     26  C   UNL     1     -18.541 -42.619  24.067  1.00  0.00     0.299 C 
BRANCH  26  27
ATOM     27  C   UNL     1     -19.681 -42.591  25.048  1.00  0.00     0.006 A 
ATOM     28  C   UNL     1     -20.312 -43.784  25.437  1.00  0.00     0.009 A 
ATOM     29  C   UNL     1     -20.143 -41.375  25.572  1.00  0.00     0.009 A 
ATOM     30  C   UNL     1     -21.387 -43.755  26.327  1.00  0.00     0.001 A 
ATOM     31  C   UNL     1     -21.219 -41.352  26.460  1.00  0.00     0.001 A 
ATOM     32  C   UNL     1     -21.841 -42.539  26.835  1.00  0.00     0.000 A 
ENDBRANCH  26  27
ENDBRANCH  24  26
ENDBRANCH  18  19
ENDBRANCH   1  18
TORSDOF 6
ENDMDL
MODEL 9
REMARK VINA RESULT:   -10.409      3.576      5.948
REMARK INTER + INTRA:         -14.325
REMARK INTER:                 -13.757
REMARK INTRA:                  -0.568
REMARK UNBOUND:                -0.569
REMARK SMILES OC1=Cc2cc3c(CC[C@H]4CC[N@H+](Cc5ccccc5)CC4)noc3cc2NC1
REMARK SMILES IDX 8 1 7 2 2 3 3 4 29 5 4 6 28 7 5 8 27 9 6 10 26 11 25 12
REMARK SMILES IDX 23 13 24 14 1 16 9 18 10 19 22 20 11 21 21 22 12 23 13 24
REMARK SMILES IDX 14 26 15 27 16 28 20 29 17 30 19 31 18 32
REMARK H PARENT 28 15 1 17 13 25
ROOT
ATOM      1  C   UNL     1     -17.990 -42.152  22.757  1.00  0.00     0.061 C 
ENDROOT
BRANCH   1   2
ATOM      2  C   UNL     1     -19.251 -41.438  23.106  1.00  0.00     0.091 A 
ATOM      3  C   UNL     1     -21.833 -37.653  18.903  1.00  0.00     0.112 C 
ATOM      4  C   UNL     1     -20.805 -38.389  19.337  1.00  0.00     0.053 C 
ATOM      5  C   UNL     1     -23.102 -37.472  19.704  1.00  0.00     0.187 C 
ATOM      6  C   UNL     1     -20.901 -39.039  20.646  1.00  0.00     0.002 A 
ATOM      7  N   UNL     1     -22.916 -37.724  21.133  1.00  0.00    -0.377 N 
ATOM      8  C   UNL     1     -19.907 -39.953  21.040  1.00  0.00     0.024 A 
ATOM      9  C   UNL     1     -21.983 -38.713  21.498  1.00  0.00     0.046 A 
ATOM     10  C   UNL     1     -19.995 -40.525  22.318  1.00  0.00     0.046 A 
ATOM     11  C   UNL     1     -22.047 -39.259  22.789  1.00  0.00     0.077 A 
ATOM     12  C   UNL     1     -21.045 -40.159  23.140  1.00  0.00     0.169 A 
ATOM     13  N   UNL     1     -19.800 -41.609  24.318  1.00  0.00    -0.084 NA
ATOM     14  O   UNL     1     -20.930 -40.804  24.332  1.00  0.00    -0.356 OA
ATOM     15  H   UNL     1     -23.797 -37.813  21.630  1.00  0.00     0.161 HD
BRANCH   3  16
ATOM     16  O   UNL     1     -21.746 -37.040  17.663  1.00  0.00    -0.510 OA
ATOM     17  H   UNL     1     -22.065 -37.655  16.979  1.00  0.00     0.293 HD
ENDBRANCH   3  16
ENDBRANCH   1   2
BRANCH   1  18
ATOM     18  C   UNL     1     -17.521 -43.130  23.845  1.00  0.00     0.010 C 
BRANCH  18  19
ATOM     19  C   UNL     1     -16.260 -42.699  24.626  1.00  0.00     0.000 C 
ATOM     20  C   UNL     1     -16.445 -42.775  26.147  1.00  0.00     0.065 C 
ATOM     21  C   UNL     1     -15.056 -43.559  24.215  1.00  0.00     0.065 C 
ATOM     22  C   UNL     1     -15.182 -42.352  26.886  1.00  0.00     0.262 C 
ATOM     23  C   UNL     1     -13.793 -43.139  24.955  1.00  0.00     0.262 C 
ATOM     24  N   UNL     1     -14.023 -43.216  26.442  1.00  0.00    -0.331 N 
ATOM     25  H   UNL     1     -14.267 -44.186  26.675  1.00  0.00     0.348 HD
BRANCH  24  26
ATOM     26  C   UNL     1     -12.751 -42.912  27.209  1.00  0.00     0.299 C 
BRANCH  26  27
ATOM     27  C   UNL     1     -12.047 -44.149  27.697  1.00  0.00     0.006 A 
ATOM     28  C   UNL     1     -12.640 -45.412  27.540  1.00  0.00     0.009 A 
ATOM     29  C   UNL     1     -10.800 -44.057  28.333  1.00  0.00     0.009 A 
ATOM     30  C   UNL     1     -11.999 -46.557  28.017  1.00  0.00     0.001 A 
ATOM     31  C   UNL     1     -10.164 -45.204  28.809  1.00  0.00     0.001 A 
ATOM     32  C   UNL     1     -10.763 -46.451  28.653  1.00  0.00     0.000 A 
ENDBRANCH  26  27
ENDBRANCH  24  26
ENDBRANCH  18  19
ENDBRANCH   1  18
TORSDOF 6
ENDMDL
