MODEL 1
REMARK VINA RESULT:    -8.826      0.000      0.000
REMARK INTER + INTRA:          -9.784
REMARK INTER:                  -9.600
REMARK INTRA:                  -0.184
REMARK UNBOUND:                -0.184
REMARK SMILES CN(C)C(=O)N[C@@H]1CCc2cc(O)ccc2C1
REMARK SMILES IDX 7 1 8 2 9 3 10 4 11 5 12 6 14 7 15 8 16 9 17 10 6 11 2 12
REMARK SMILES IDX 4 13 1 14 3 15 5 16 13 18
REMARK H PARENT 6 17 13 19
ROOT
ATOM      1  C   UNL     1     -14.493 -43.867  26.571  1.00  0.00     0.088 C 
ATOM      2  C   UNL     1     -14.116 -43.184  25.257  1.00  0.00     0.030 C 
ATOM      3  C   UNL     1     -15.290 -43.217  24.282  1.00  0.00     0.038 C 
ATOM      4  C   UNL     1     -16.583 -42.751  24.901  1.00  0.00    -0.041 A 
ATOM      5  C   UNL     1     -17.644 -42.377  24.062  1.00  0.00     0.050 A 
ATOM      6  C   UNL     1     -18.859 -41.977  24.605  1.00  0.00     0.115 A 
ATOM      7  C   UNL     1     -19.048 -41.945  25.981  1.00  0.00     0.046 A 
ATOM      8  C   UNL     1     -18.003 -42.325  26.823  1.00  0.00     0.008 A 
ATOM      9  C   UNL     1     -16.769 -42.741  26.295  1.00  0.00    -0.043 A 
ATOM     10  C   UNL     1     -15.656 -43.115  27.244  1.00  0.00     0.060 C 
ENDROOT
BRANCH   1  11
ATOM     11  N   UNL     1     -13.322 -43.941  27.443  1.00  0.00    -0.335 N 
ATOM     12  N   UNL     1     -11.603 -45.062  28.532  1.00  0.00    -0.331 N 
ATOM     13  C   UNL     1     -12.677 -45.134  27.655  1.00  0.00     0.317 C 
ATOM     14  C   UNL     1     -10.900 -46.304  28.807  1.00  0.00     0.148 C 
ATOM     15  C   UNL     1     -10.834 -43.846  28.762  1.00  0.00     0.148 C 
ATOM     16  O   UNL     1     -13.036 -46.176  27.114  1.00  0.00    -0.249 OA
ATOM     17  H   UNL     1     -13.353 -43.354  28.263  1.00  0.00     0.165 HD
ENDBRANCH   1  11
BRANCH   6  18
ATOM     18  O   UNL     1     -19.853 -41.620  23.743  1.00  0.00    -0.508 OA
ATOM     19  H   UNL     1     -20.479 -42.360  23.671  1.00  0.00     0.293 HD
ENDBRANCH   6  18
TORSDOF 2
ENDMDL
MODEL 2
REMARK VINA RESULT:    -8.621      1.319      2.321
REMARK INTER + INTRA:          -9.561
REMARK INTER:                  -9.381
REMARK INTRA:                  -0.180
REMARK UNBOUND:                -0.184
REMARK SMILES CN(C)C(=O)N[C@@H]1CCc2cc(O)ccc2C1
REMARK SMILES IDX 7 1 8 2 9 3 10 4 11 5 12 6 14 7 15 8 16 9 17 10 6 11 2 12
REMARK SMILES IDX 4 13 1 14 3 15 5 16 13 18
REMARK H PARENT 6 17 13 19
ROOT
ATOM      1  C   UNL     1     -13.895 -43.635  26.832  1.00  0.00     0.088 C 
ATOM      2  C   UNL     1     -15.110 -43.774  27.749  1.00  0.00     0.030 C 
ATOM      3  C   UNL     1     -16.210 -42.803  27.329  1.00  0.00     0.038 C 
ATOM      4  C   UNL     1     -16.510 -42.854  25.853  1.00  0.00    -0.041 A 
ATOM      5  C   UNL     1     -17.715 -42.310  25.383  1.00  0.00     0.050 A 
ATOM      6  C   UNL     1     -18.001 -42.312  24.023  1.00  0.00     0.115 A 
ATOM      7  C   UNL     1     -17.103 -42.845  23.108  1.00  0.00     0.046 A 
ATOM      8  C   UNL     1     -15.898 -43.378  23.563  1.00  0.00     0.008 A 
ATOM      9  C   UNL     1     -15.584 -43.378  24.933  1.00  0.00    -0.043 A 
ATOM     10  C   UNL     1     -14.281 -43.993  25.385  1.00  0.00     0.060 C 
ENDROOT
BRANCH   1  11
ATOM     11  N   UNL     1     -12.807 -44.478  27.324  1.00  0.00    -0.335 N 
ATOM     12  N   UNL     1     -10.807 -44.853  28.447  1.00  0.00    -0.331 N 
ATOM     13  C   UNL     1     -11.791 -43.945  28.077  1.00  0.00     0.317 C 
ATOM     14  C   UNL     1      -9.698 -44.333  29.227  1.00  0.00     0.148 C 
ATOM     15  C   UNL     1     -11.045 -46.286  28.577  1.00  0.00     0.148 C 
ATOM     16  O   UNL     1     -11.760 -42.757  28.387  1.00  0.00    -0.249 OA
ATOM     17  H   UNL     1     -12.497 -45.200  26.692  1.00  0.00     0.165 HD
ENDBRANCH   1  11
BRANCH   6  18
ATOM     18  O   UNL     1     -19.189 -41.776  23.624  1.00  0.00    -0.508 OA
ATOM     19  H   UNL     1     -19.330 -40.946  24.109  1.00  0.00     0.293 HD
ENDBRANCH   6  18
TORSDOF 2
ENDMDL
MODEL 3
REMARK VINA RESULT:    -8.339      4.346      8.842
REMARK INTER + INTRA:          -9.254
REMARK INTER:                  -9.100
REMARK INTRA:                  -0.155
REMARK UNBOUND:                -0.184
REMARK SMILES CN(C)C(=O)N[C@@H]1CCc2cc(O)ccc2C1
REMARK SMILES IDX 7 1 8 2 9 3 10 4 11 5 12 6 14 7 15 8 16 9 17 10 6 11 2 12
REMARK SMILES IDX 4 13 1 14 3 15 5 16 13 18
REMARK H PARENT 6 17 13 19
ROOT
ATOM      1  C   UNL     1     -10.683 -44.131  30.099  1.00  0.00     0.088 C 
ATOM      2  C   UNL     1      -9.440 -44.916  30.518  1.00  0.00     0.030 C 
ATOM      3  C   UNL     1      -8.514 -44.042  31.358  1.00  0.00     0.038 C 
ATOM      4  C   UNL     1      -9.230 -43.328  32.477  1.00  0.00    -0.041 A 
ATOM      5  C   UNL     1      -8.480 -42.796  33.536  1.00  0.00     0.050 A 
ATOM      6  C   UNL     1      -9.111 -42.103  34.562  1.00  0.00     0.115 A 
ATOM      7  C   UNL     1     -10.487 -41.919  34.555  1.00  0.00     0.046 A 
ATOM      8  C   UNL     1     -11.241 -42.435  33.502  1.00  0.00     0.008 A 
ATOM      9  C   UNL     1     -10.623 -43.132  32.450  1.00  0.00    -0.043 A 
ATOM     10  C   UNL     1     -11.480 -43.699  31.344  1.00  0.00     0.060 C 
ENDROOT
BRANCH   1  11
ATOM     11  N   UNL     1     -11.496 -44.939  29.192  1.00  0.00    -0.335 N 
ATOM     12  N   UNL     1     -13.013 -45.233  27.457  1.00  0.00    -0.331 N 
ATOM     13  C   UNL     1     -12.268 -44.347  28.224  1.00  0.00     0.317 C 
ATOM     14  C   UNL     1     -13.864 -44.654  26.432  1.00  0.00     0.148 C 
ATOM     15  C   UNL     1     -12.634 -46.624  27.242  1.00  0.00     0.148 C 
ATOM     16  O   UNL     1     -12.296 -43.130  28.062  1.00  0.00    -0.249 OA
ATOM     17  H   UNL     1     -11.928 -45.752  29.604  1.00  0.00     0.165 HD
ENDBRANCH   1  11
BRANCH   6  18
ATOM     18  O   UNL     1      -8.333 -41.612  35.568  1.00  0.00    -0.508 OA
ATOM     19  H   UNL     1      -7.801 -42.341  35.929  1.00  0.00     0.293 HD
ENDBRANCH   6  18
TORSDOF 2
ENDMDL
MODEL 4
REMARK VINA RESULT:    -8.325      2.467      7.174
REMARK INTER + INTRA:          -9.238
REMARK INTER:                  -9.053
REMARK INTRA:                  -0.185
REMARK UNBOUND:                -0.184
REMARK SMILES CN(C)C(=O)N[C@@H]1CCc2cc(O)ccc2C1
REMARK SMILES IDX 7 1 8 2 9 3 10 4 11 5 12 6 14 7 15 8 16 9 17 10 6 11 2 12
REMARK SMILES IDX 4 13 1 14 3 15 5 16 13 18
REMARK H PARENT 6 17 13 19
ROOT
ATOM      1  C   UNL     1     -13.857 -43.896  26.571  1.00  0.00     0.088 C 
ATOM      2  C   UNL     1     -14.130 -44.684  27.853  1.00  0.00     0.030 C 
ATOM      3  C   UNL     1     -12.847 -45.334  28.363  1.00  0.00     0.038 C 
ATOM      4  C   UNL     1     -11.686 -44.374  28.433  1.00  0.00    -0.041 A 
ATOM      5  C   UNL     1     -10.568 -44.712  29.210  1.00  0.00     0.050 A 
ATOM      6  C   UNL     1      -9.470 -43.863  29.264  1.00  0.00     0.115 A 
ATOM      7  C   UNL     1      -9.455 -42.673  28.549  1.00  0.00     0.046 A 
ATOM      8  C   UNL     1     -10.557 -42.333  27.765  1.00  0.00     0.008 A 
ATOM      9  C   UNL     1     -11.674 -43.181  27.689  1.00  0.00    -0.043 A 
ATOM     10  C   UNL     1     -12.857 -42.759  26.851  1.00  0.00     0.060 C 
ENDROOT
BRANCH   1  11
ATOM     11  N   UNL     1     -15.115 -43.388  26.027  1.00  0.00    -0.335 N 
ATOM     12  N   UNL     1     -16.569 -42.847  24.297  1.00  0.00    -0.331 N 
ATOM     13  C   UNL     1     -15.348 -43.391  24.675  1.00  0.00     0.317 C 
ATOM     14  C   UNL     1     -16.854 -42.808  22.873  1.00  0.00     0.148 C 
ATOM     15  C   UNL     1     -17.736 -42.813  25.169  1.00  0.00     0.148 C 
ATOM     16  O   UNL     1     -14.532 -43.835  23.871  1.00  0.00    -0.249 OA
ATOM     17  H   UNL     1     -15.494 -42.578  26.494  1.00  0.00     0.165 HD
ENDBRANCH   1  11
BRANCH   6  18
ATOM     18  O   UNL     1      -8.414 -44.239  30.040  1.00  0.00    -0.508 OA
ATOM     19  H   UNL     1      -7.671 -43.639  29.860  1.00  0.00     0.293 HD
ENDBRANCH   6  18
TORSDOF 2
ENDMDL
MODEL 5
REMARK VINA RESULT:    -8.298      3.353      5.451
REMARK INTER + INTRA:          -9.209
REMARK INTER:                  -9.103
REMARK INTRA:                  -0.106
REMARK UNBOUND:                -0.184
REMARK SMILES CN(C)C(=O)N[C@@H]1CCc2cc(O)ccc2C1
REMARK SMILES IDX 7 1 8 2 9 3 10 4 11 5 12 6 14 7 15 8 16 9 17 10 6 11 2 12
REMARK SMILES IDX 4 13 1 14 3 15 5 16 13 18
REMARK H PARENT 6 17 13 19
ROOT
ATOM      1  C   UNL     1     -10.722 -44.852  29.731  1.00  0.00     0.088 C 
ATOM      2  C   UNL     1     -11.047 -46.194  29.075  1.00  0.00     0.030 C 
ATOM      3  C   UNL     1     -12.472 -46.191  28.531  1.00  0.00     0.038 C 
ATOM      4  C   UNL     1     -12.782 -44.975  27.695  1.00  0.00    -0.041 A 
ATOM      5  C   UNL     1     -13.894 -45.001  26.840  1.00  0.00     0.050 A 
ATOM      6  C   UNL     1     -14.224 -43.882  26.085  1.00  0.00     0.115 A 
ATOM      7  C   UNL     1     -13.467 -42.721  26.166  1.00  0.00     0.046 A 
ATOM      8  C   UNL     1     -12.366 -42.681  27.021  1.00  0.00     0.008 A 
ATOM      9  C   UNL     1     -12.020 -43.798  27.800  1.00  0.00    -0.043 A 
ATOM     10  C   UNL     1     -10.803 -43.721  28.691  1.00  0.00     0.060 C 
ENDROOT
BRANCH   1  11
ATOM     11  N   UNL     1      -9.403 -44.916  30.358  1.00  0.00    -0.335 N 
ATOM     12  N   UNL     1      -7.776 -44.218  31.864  1.00  0.00    -0.331 N 
ATOM     13  C   UNL     1      -9.073 -44.070  31.387  1.00  0.00     0.317 C 
ATOM     14  C   UNL     1      -7.370 -43.331  32.940  1.00  0.00     0.148 C 
ATOM     15  C   UNL     1      -7.019 -45.460  31.758  1.00  0.00     0.148 C 
ATOM     16  O   UNL     1      -9.865 -43.247  31.838  1.00  0.00    -0.249 OA
ATOM     17  H   UNL     1      -8.634 -45.101  29.733  1.00  0.00     0.165 HD
ENDBRANCH   1  11
BRANCH   6  18
ATOM     18  O   UNL     1     -15.311 -43.966  25.267  1.00  0.00    -0.508 OA
ATOM     19  H   UNL     1     -16.064 -44.289  25.789  1.00  0.00     0.293 HD
ENDBRANCH   6  18
TORSDOF 2
ENDMDL
MODEL 6
REMARK VINA RESULT:    -7.897      3.902      7.827
REMARK INTER + INTRA:          -8.773
REMARK INTER:                  -8.658
REMARK INTRA:                  -0.115
REMARK UNBOUND:                -0.184
REMARK SMILES CN(C)C(=O)N[C@@H]1CCc2cc(O)ccc2C1
REMARK SMILES IDX 7 1 8 2 9 3 10 4 11 5 12 6 14 7 15 8 16 9 17 10 6 11 2 12
REMARK SMILES IDX 4 13 1 14 3 15 5 16 13 18
REMARK H PARENT 6 17 13 19
ROOT
ATOM      1  C   UNL     1     -18.362 -42.374  23.237  1.00  0.00     0.088 C 
ATOM      2  C   UNL     1     -18.765 -41.614  24.501  1.00  0.00     0.030 C 
ATOM      3  C   UNL     1     -18.272 -42.348  25.745  1.00  0.00     0.038 C 
ATOM      4  C   UNL     1     -16.817 -42.736  25.664  1.00  0.00    -0.041 A 
ATOM      5  C   UNL     1     -16.136 -43.075  26.842  1.00  0.00     0.050 A 
ATOM      6  C   UNL     1     -14.805 -43.471  26.792  1.00  0.00     0.115 A 
ATOM      7  C   UNL     1     -14.129 -43.543  25.581  1.00  0.00     0.046 A 
ATOM      8  C   UNL     1     -14.801 -43.218  24.403  1.00  0.00     0.008 A 
ATOM      9  C   UNL     1     -16.149 -42.825  24.430  1.00  0.00    -0.043 A 
ATOM     10  C   UNL     1     -16.829 -42.454  23.133  1.00  0.00     0.060 C 
ENDROOT
BRANCH   1  11
ATOM     11  N   UNL     1     -18.950 -41.728  22.065  1.00  0.00    -0.335 N 
ATOM     12  N   UNL     1     -20.643 -41.367  20.515  1.00  0.00    -0.331 N 
ATOM     13  C   UNL     1     -20.227 -42.029  21.663  1.00  0.00     0.317 C 
ATOM     14  C   UNL     1     -21.981 -41.668  20.036  1.00  0.00     0.148 C 
ATOM     15  C   UNL     1     -20.100 -40.083  20.087  1.00  0.00     0.148 C 
ATOM     16  O   UNL     1     -20.934 -42.827  22.272  1.00  0.00    -0.249 OA
ATOM     17  H   UNL     1     -18.318 -41.568  21.295  1.00  0.00     0.165 HD
ENDBRANCH   1  11
BRANCH   6  18
ATOM     18  O   UNL     1     -14.191 -43.783  27.969  1.00  0.00    -0.508 OA
ATOM     19  H   UNL     1     -13.282 -44.068  27.775  1.00  0.00     0.293 HD
ENDBRANCH   6  18
TORSDOF 2
ENDMDL
MODEL 7
REMARK VINA RESULT:    -7.788      4.065      7.737
REMARK INTER + INTRA:          -8.654
REMARK INTER:                  -8.517
REMARK INTRA:                  -0.138
REMARK UNBOUND:                -0.184
REMARK SMILES CN(C)C(=O)N[C@@H]1CCc2cc(O)ccc2C1
REMARK SMILES IDX 7 1 8 2 9 3 10 4 11 5 12 6 14 7 15 8 16 9 17 10 6 11 2 12
REMARK SMILES IDX 4 13 1 14 3 15 5 16 13 18
REMARK H PARENT 6 17 13 19
ROOT
ATOM      1  C   UNL     1     -18.371 -41.710  23.305  1.00  0.00     0.088 C 
ATOM      2  C   UNL     1     -17.489 -42.842  22.777  1.00  0.00     0.030 C 
ATOM      3  C   UNL     1     -16.181 -42.909  23.560  1.00  0.00     0.038 C 
ATOM      4  C   UNL     1     -16.386 -42.897  25.054  1.00  0.00    -0.041 A 
ATOM      5  C   UNL     1     -15.340 -43.318  25.888  1.00  0.00     0.050 A 
ATOM      6  C   UNL     1     -15.489 -43.284  27.269  1.00  0.00     0.115 A 
ATOM      7  C   UNL     1     -16.667 -42.830  27.847  1.00  0.00     0.046 A 
ATOM      8  C   UNL     1     -17.709 -42.400  27.026  1.00  0.00     0.008 A 
ATOM      9  C   UNL     1     -17.577 -42.417  25.628  1.00  0.00    -0.043 A 
ATOM     10  C   UNL     1     -18.741 -41.970  24.777  1.00  0.00     0.060 C 
ENDROOT
BRANCH   1  11
ATOM     11  N   UNL     1     -19.560 -41.577  22.465  1.00  0.00    -0.335 N 
ATOM     12  N   UNL     1     -20.755 -40.714  20.669  1.00  0.00    -0.331 N 
ATOM     13  C   UNL     1     -19.548 -40.773  21.353  1.00  0.00     0.317 C 
ATOM     14  C   UNL     1     -20.800 -39.859  19.496  1.00  0.00     0.148 C 
ATOM     15  C   UNL     1     -21.750 -41.779  20.704  1.00  0.00     0.148 C 
ATOM     16  O   UNL     1     -18.547 -40.153  21.004  1.00  0.00    -0.249 OA
ATOM     17  H   UNL     1     -20.440 -41.563  22.957  1.00  0.00     0.165 HD
ENDBRANCH   1  11
BRANCH   6  18
ATOM     18  O   UNL     1     -14.441 -43.710  28.032  1.00  0.00    -0.508 OA
ATOM     19  H   UNL     1     -14.729 -44.484  28.544  1.00  0.00     0.293 HD
ENDBRANCH   6  18
TORSDOF 2
ENDMDL
MODEL 8
REMARK VINA RESULT:    -7.765      2.351      7.050
REMARK INTER + INTRA:          -8.629
REMARK INTER:                  -8.446
REMARK INTRA:                  -0.184
REMARK UNBOUND:                -0.184
REMARK SMILES CN(C)C(=O)N[C@@H]1CCc2cc(O)ccc2C1
REMARK SMILES IDX 7 1 8 2 9 3 10 4 11 5 12 6 14 7 15 8 16 9 17 10 6 11 2 12
REMARK SMILES IDX 4 13 1 14 3 15 5 16 13 18
REMARK H PARENT 6 17 13 19
ROOT
ATOM      1  C   UNL     1     -14.317 -43.322  26.796  1.00  0.00     0.088 C 
ATOM      2  C   UNL     1     -13.034 -42.720  26.222  1.00  0.00     0.030 C 
ATOM      3  C   UNL     1     -11.930 -42.711  27.276  1.00  0.00     0.038 C 
ATOM      4  C   UNL     1     -11.763 -44.041  27.967  1.00  0.00    -0.041 A 
ATOM      5  C   UNL     1     -10.580 -44.297  28.675  1.00  0.00     0.050 A 
ATOM      6  C   UNL     1     -10.414 -45.499  29.351  1.00  0.00     0.115 A 
ATOM      7  C   UNL     1     -11.414 -46.464  29.343  1.00  0.00     0.046 A 
ATOM      8  C   UNL     1     -12.598 -46.214  28.651  1.00  0.00     0.008 A 
ATOM      9  C   UNL     1     -12.790 -45.001  27.968  1.00  0.00    -0.043 A 
ATOM     10  C   UNL     1     -14.077 -44.785  27.208  1.00  0.00     0.060 C 
ENDROOT
BRANCH   1  11
ATOM     11  N   UNL     1     -15.397 -43.206  25.818  1.00  0.00    -0.335 N 
ATOM     12  N   UNL     1     -17.576 -42.730  25.168  1.00  0.00    -0.331 N 
ATOM     13  C   UNL     1     -16.638 -42.757  26.192  1.00  0.00     0.317 C 
ATOM     14  C   UNL     1     -18.914 -42.283  25.519  1.00  0.00     0.148 C 
ATOM     15  C   UNL     1     -17.224 -42.602  23.760  1.00  0.00     0.148 C 
ATOM     16  O   UNL     1     -16.891 -42.416  27.345  1.00  0.00    -0.249 OA
ATOM     17  H   UNL     1     -15.430 -43.933  25.120  1.00  0.00     0.165 HD
ENDBRANCH   1  11
BRANCH   6  18
ATOM     18  O   UNL     1      -9.241 -45.697  30.018  1.00  0.00    -0.508 OA
ATOM     19  H   UNL     1      -8.818 -44.833  30.158  1.00  0.00     0.293 HD
ENDBRANCH   6  18
TORSDOF 2
ENDMDL
MODEL 9
REMARK VINA RESULT:    -7.403      4.217      7.800
REMARK INTER + INTRA:          -8.236
REMARK INTER:                  -8.090
REMARK INTRA:                  -0.146
REMARK UNBOUND:                -0.184
REMARK SMILES CN(C)C(=O)N[C@@H]1CCc2cc(O)ccc2C1
REMARK SMILES IDX 7 1 8 2 9 3 10 4 11 5 12 6 14 7 15 8 16 9 17 10 6 11 2 12
REMARK SMILES IDX 4 13 1 14 3 15 5 16 13 18
REMARK H PARENT 6 17 13 19
ROOT
ATOM      1  C   UNL     1     -20.142 -41.823  26.353  1.00  0.00     0.088 C 
ATOM      2  C   UNL     1     -20.166 -42.520  24.993  1.00  0.00     0.030 C 
ATOM      3  C   UNL     1     -18.887 -42.220  24.217  1.00  0.00     0.038 C 
ATOM      4  C   UNL     1     -17.637 -42.440  25.031  1.00  0.00    -0.041 A 
ATOM      5  C   UNL     1     -16.406 -42.564  24.369  1.00  0.00     0.050 A 
ATOM      6  C   UNL     1     -15.234 -42.732  25.096  1.00  0.00     0.115 A 
ATOM      7  C   UNL     1     -15.257 -42.774  26.484  1.00  0.00     0.046 A 
ATOM      8  C   UNL     1     -16.475 -42.641  27.152  1.00  0.00     0.008 A 
ATOM      9  C   UNL     1     -17.670 -42.461  26.436  1.00  0.00    -0.043 A 
ATOM     10  C   UNL     1     -18.969 -42.351  27.198  1.00  0.00     0.060 C 
ENDROOT
BRANCH   1  11
ATOM     11  N   UNL     1     -21.424 -42.015  27.028  1.00  0.00    -0.335 N 
ATOM     12  N   UNL     1     -23.601 -41.415  27.576  1.00  0.00    -0.331 N 
ATOM     13  C   UNL     1     -22.455 -41.127  26.847  1.00  0.00     0.317 C 
ATOM     14  C   UNL     1     -24.714 -40.491  27.435  1.00  0.00     0.148 C 
ATOM     15  C   UNL     1     -23.956 -42.758  28.017  1.00  0.00     0.148 C 
ATOM     16  O   UNL     1     -22.357 -40.155  26.103  1.00  0.00    -0.249 OA
ATOM     17  H   UNL     1     -21.370 -42.374  27.969  1.00  0.00     0.165 HD
ENDBRANCH   1  11
BRANCH   6  18
ATOM     18  O   UNL     1     -14.067 -42.853  24.401  1.00  0.00    -0.508 OA
ATOM     19  H   UNL     1     -14.132 -43.633  23.825  1.00  0.00     0.293 HD
ENDBRANCH   6  18
TORSDOF 2
ENDMDL
