MODEL 1
REMARK VINA RESULT:   -12.094      0.000      0.000
REMARK INTER + INTRA:         -16.876
REMARK INTER:                 -16.336
REMARK INTRA:                  -0.540
REMARK UNBOUND:                -0.540
REMARK SMILES COc1cc2c(cc1OC)C(=O)/C(=C/c1cc[n+](Cc3ccccc3Br)cc1)C2
REMARK SMILES IDX 15 1 16 2 17 3 18 4 27 5 28 6 14 7 13 8 3 9 4 10 8 11 5 12
REMARK SMILES IDX 7 13 6 14 29 15 11 16 12 17 2 18 1 19 9 20 10 21 19 22 20 23
REMARK SMILES IDX 21 24 25 25 22 26 24 27 23 28 26 29
REMARK H PARENT
ROOT
ATOM      1  C   UNL     1     -13.098 -44.107  27.504  1.00  0.00    -0.013 A 
ATOM      2  C   UNL     1     -11.912 -43.631  28.055  1.00  0.00     0.079 A 
ATOM      3  C   UNL     1     -11.514 -44.073  29.311  1.00  0.00     0.309 A 
ATOM      4  N   UNL     1     -12.260 -44.968  30.003  1.00  0.00    -0.201 N 
ATOM      5  C   UNL     1     -13.430 -45.419  29.492  1.00  0.00     0.309 A 
ATOM      6  C   UNL     1     -13.869 -45.002  28.241  1.00  0.00     0.079 A 
ENDROOT
BRANCH   1   7
ATOM      7  C   UNL     1     -13.580 -43.646  26.205  1.00  0.00     0.016 C 
BRANCH   7   8
ATOM      8  C   UNL     1     -14.848 -43.304  25.935  1.00  0.00     0.005 C 
ATOM      9  C   UNL     1     -19.279 -41.943  25.101  1.00  0.00     0.161 A 
ATOM     10  C   UNL     1     -18.368 -42.099  26.158  1.00  0.00     0.055 A 
ATOM     11  C   UNL     1     -18.898 -42.262  23.765  1.00  0.00     0.161 A 
ATOM     12  C   UNL     1     -17.095 -42.567  25.872  1.00  0.00    -0.028 A 
ATOM     13  C   UNL     1     -17.611 -42.733  23.493  1.00  0.00     0.063 A 
ATOM     14  C   UNL     1     -16.743 -42.872  24.560  1.00  0.00     0.030 A 
ATOM     15  C   UNL     1     -15.964 -42.815  26.825  1.00  0.00     0.076 C 
ATOM     16  C   UNL     1     -15.354 -43.339  24.527  1.00  0.00     0.189 C 
ATOM     17  O   UNL     1     -14.732 -43.685  23.545  1.00  0.00    -0.289 OA
BRANCH   9  18
ATOM     18  O   UNL     1     -20.566 -41.490  25.255  1.00  0.00    -0.493 OA
ATOM     19  C   UNL     1     -21.041 -41.262  26.574  1.00  0.00     0.278 C 
ENDBRANCH   9  18
BRANCH  11  20
ATOM     20  O   UNL     1     -19.867 -42.074  22.809  1.00  0.00    -0.493 OA
ATOM     21  C   UNL     1     -19.633 -41.085  21.816  1.00  0.00     0.278 C 
ENDBRANCH  11  20
ENDBRANCH   7   8
ENDBRANCH   1   7
BRANCH   4  22
ATOM     22  C   UNL     1     -11.811 -45.412  31.351  1.00  0.00     0.394 C 
BRANCH  22  23
ATOM     23  C   UNL     1     -10.312 -45.354  31.517  1.00  0.00     0.031 A 
ATOM     24  C   UNL     1      -9.538 -46.427  31.034  1.00  0.00     0.011 A 
ATOM     25  C   UNL     1      -9.648 -44.281  32.135  1.00  0.00     0.027 A 
ATOM     26  C   UNL     1      -8.147 -46.416  31.150  1.00  0.00     0.001 A 
ATOM     27  C   UNL     1      -8.254 -44.274  32.248  1.00  0.00     0.016 A 
ATOM     28  C   UNL     1      -7.506 -45.340  31.752  1.00  0.00     0.001 A 
ATOM     29  Br  UNL     1     -10.576 -42.793  32.862  1.00  0.00    -0.050 Br
ENDBRANCH  22  23
ENDBRANCH   4  22
TORSDOF 6
ENDMDL
MODEL 2
REMARK VINA RESULT:   -11.521      1.180      1.873
REMARK INTER + INTRA:         -16.102
REMARK INTER:                 -15.462
REMARK INTRA:                  -0.640
REMARK UNBOUND:                -0.540
REMARK SMILES COc1cc2c(cc1OC)C(=O)/C(=C/c1cc[n+](Cc3ccccc3Br)cc1)C2
REMARK SMILES IDX 15 1 16 2 17 3 18 4 27 5 28 6 14 7 13 8 3 9 4 10 8 11 5 12
REMARK SMILES IDX 7 13 6 14 29 15 11 16 12 17 2 18 1 19 9 20 10 21 19 22 20 23
REMARK SMILES IDX 21 24 25 25 22 26 24 27 23 28 26 29
REMARK H PARENT
ROOT
ATOM      1  C   UNL     1     -13.042 -43.803  27.327  1.00  0.00    -0.013 A 
ATOM      2  C   UNL     1     -13.669 -44.822  28.038  1.00  0.00     0.079 A 
ATOM      3  C   UNL     1     -13.023 -45.398  29.126  1.00  0.00     0.309 A 
ATOM      4  N   UNL     1     -11.794 -44.975  29.508  1.00  0.00    -0.201 N 
ATOM      5  C   UNL     1     -11.159 -44.004  28.809  1.00  0.00     0.309 A 
ATOM      6  C   UNL     1     -11.766 -43.402  27.714  1.00  0.00     0.079 A 
ENDROOT
BRANCH   1   7
ATOM      7  C   UNL     1     -13.662 -43.191  26.155  1.00  0.00     0.016 C 
BRANCH   7   8
ATOM      8  C   UNL     1     -14.981 -43.020  25.987  1.00  0.00     0.005 C 
ATOM      9  C   UNL     1     -19.607 -42.267  25.524  1.00  0.00     0.161 A 
ATOM     10  C   UNL     1     -18.614 -42.375  26.511  1.00  0.00     0.055 A 
ATOM     11  C   UNL     1     -19.274 -42.409  24.146  1.00  0.00     0.161 A 
ATOM     12  C   UNL     1     -17.309 -42.623  26.115  1.00  0.00    -0.028 A 
ATOM     13  C   UNL     1     -17.954 -42.658  23.762  1.00  0.00     0.063 A 
ATOM     14  C   UNL     1     -17.006 -42.758  24.762  1.00  0.00     0.030 A 
ATOM     15  C   UNL     1     -16.094 -42.781  26.978  1.00  0.00     0.076 C 
ATOM     16  C   UNL     1     -15.570 -43.009  24.611  1.00  0.00     0.189 C 
ATOM     17  O   UNL     1     -14.971 -43.172  23.569  1.00  0.00    -0.289 OA
BRANCH   9  18
ATOM     18  O   UNL     1     -20.933 -42.025  25.789  1.00  0.00    -0.493 OA
ATOM     19  C   UNL     1     -21.262 -40.879  26.561  1.00  0.00     0.278 C 
ENDBRANCH   9  18
BRANCH  11  20
ATOM     20  O   UNL     1     -20.322 -42.286  23.265  1.00  0.00    -0.493 OA
ATOM     21  C   UNL     1     -20.345 -41.143  22.421  1.00  0.00     0.278 C 
ENDBRANCH  11  20
ENDBRANCH   7   8
ENDBRANCH   1   7
BRANCH   4  22
ATOM     22  C   UNL     1     -11.124 -45.621  30.670  1.00  0.00     0.394 C 
BRANCH  22  23
ATOM     23  C   UNL     1     -10.535 -44.622  31.635  1.00  0.00     0.031 A 
ATOM     24  C   UNL     1     -11.383 -43.652  32.204  1.00  0.00     0.011 A 
ATOM     25  C   UNL     1      -9.175 -44.607  31.992  1.00  0.00     0.027 A 
ATOM     26  C   UNL     1     -10.890 -42.714  33.113  1.00  0.00     0.001 A 
ATOM     27  C   UNL     1      -8.687 -43.666  32.903  1.00  0.00     0.016 A 
ATOM     28  C   UNL     1      -9.546 -42.723  33.465  1.00  0.00     0.001 A 
ATOM     29  Br  UNL     1      -7.920 -45.833  31.267  1.00  0.00    -0.050 Br
ENDBRANCH  22  23
ENDBRANCH   4  22
TORSDOF 6
ENDMDL
MODEL 3
REMARK VINA RESULT:   -10.850      1.550      2.624
REMARK INTER + INTRA:         -15.196
REMARK INTER:                 -14.737
REMARK INTRA:                  -0.458
REMARK UNBOUND:                -0.540
REMARK SMILES COc1cc2c(cc1OC)C(=O)/C(=C/c1cc[n+](Cc3ccccc3Br)cc1)C2
REMARK SMILES IDX 15 1 16 2 17 3 18 4 27 5 28 6 14 7 13 8 3 9 4 10 8 11 5 12
REMARK SMILES IDX 7 13 6 14 29 15 11 16 12 17 2 18 1 19 9 20 10 21 19 22 20 23
REMARK SMILES IDX 21 24 25 25 22 26 24 27 23 28 26 29
REMARK H PARENT
ROOT
ATOM      1  C   UNL     1     -13.410 -43.683  26.561  1.00  0.00    -0.013 A 
ATOM      2  C   UNL     1     -13.825 -45.000  26.737  1.00  0.00     0.079 A 
ATOM      3  C   UNL     1     -13.191 -45.798  27.683  1.00  0.00     0.309 A 
ATOM      4  N   UNL     1     -12.181 -45.308  28.441  1.00  0.00    -0.201 N 
ATOM      5  C   UNL     1     -11.748 -44.038  28.262  1.00  0.00     0.309 A 
ATOM      6  C   UNL     1     -12.350 -43.205  27.326  1.00  0.00     0.079 A 
ENDROOT
BRANCH   1   7
ATOM      7  C   UNL     1     -14.018 -42.816  25.555  1.00  0.00     0.016 C 
BRANCH   7   8
ATOM      8  C   UNL     1     -15.336 -42.693  25.345  1.00  0.00     0.005 C 
ATOM      9  C   UNL     1     -19.959 -42.417  24.491  1.00  0.00     0.161 A 
ATOM     10  C   UNL     1     -18.735 -42.576  23.821  1.00  0.00     0.055 A 
ATOM     11  C   UNL     1     -19.995 -42.274  25.907  1.00  0.00     0.161 A 
ATOM     12  C   UNL     1     -17.568 -42.591  24.569  1.00  0.00    -0.028 A 
ATOM     13  C   UNL     1     -18.810 -42.291  26.647  1.00  0.00     0.063 A 
ATOM     14  C   UNL     1     -17.625 -42.450  25.953  1.00  0.00     0.030 A 
ATOM     15  C   UNL     1     -16.158 -42.743  24.081  1.00  0.00     0.076 C 
ATOM     16  C   UNL     1     -16.268 -42.504  26.502  1.00  0.00     0.189 C 
ATOM     17  O   UNL     1     -15.958 -42.415  27.671  1.00  0.00    -0.289 OA
BRANCH   9  18
ATOM     18  O   UNL     1     -21.181 -42.385  23.863  1.00  0.00    -0.493 OA
ATOM     19  C   UNL     1     -21.263 -42.878  22.533  1.00  0.00     0.278 C 
ENDBRANCH   9  18
BRANCH  11  20
ATOM     20  O   UNL     1     -21.244 -42.124  26.459  1.00  0.00    -0.493 OA
ATOM     21  C   UNL     1     -21.600 -40.839  26.952  1.00  0.00     0.278 C 
ENDBRANCH  11  20
ENDBRANCH   7   8
ENDBRANCH   1   7
BRANCH   4  22
ATOM     22  C   UNL     1     -11.514 -46.193  29.436  1.00  0.00     0.394 C 
BRANCH  22  23
ATOM     23  C   UNL     1     -10.727 -45.422  30.468  1.00  0.00     0.031 A 
ATOM     24  C   UNL     1      -9.321 -45.422  30.382  1.00  0.00     0.011 A 
ATOM     25  C   UNL     1     -11.329 -44.706  31.517  1.00  0.00     0.027 A 
ATOM     26  C   UNL     1      -8.547 -44.714  31.303  1.00  0.00     0.001 A 
ATOM     27  C   UNL     1     -10.550 -43.998  32.437  1.00  0.00     0.016 A 
ATOM     28  C   UNL     1      -9.160 -44.000  32.326  1.00  0.00     0.001 A 
ATOM     29  Br  UNL     1     -13.210 -44.658  31.768  1.00  0.00    -0.050 Br
ENDBRANCH  22  23
ENDBRANCH   4  22
TORSDOF 6
ENDMDL
MODEL 4
REMARK VINA RESULT:   -10.656      4.551     10.341
REMARK INTER + INTRA:         -14.935
REMARK INTER:                 -14.292
REMARK INTRA:                  -0.643
REMARK UNBOUND:                -0.540
REMARK SMILES COc1cc2c(cc1OC)C(=O)/C(=C/c1cc[n+](Cc3ccccc3Br)cc1)C2
REMARK SMILES IDX 15 1 16 2 17 3 18 4 27 5 28 6 14 7 13 8 3 9 4 10 8 11 5 12
REMARK SMILES IDX 7 13 6 14 29 15 11 16 12 17 2 18 1 19 9 20 10 21 19 22 20 23
REMARK SMILES IDX 21 24 25 25 22 26 24 27 23 28 26 29
REMARK H PARENT
ROOT
ATOM      1  C   UNL     1     -12.407 -45.123  27.741  1.00  0.00    -0.013 A 
ATOM      2  C   UNL     1     -13.405 -45.750  27.001  1.00  0.00     0.079 A 
ATOM      3  C   UNL     1     -14.210 -44.995  26.156  1.00  0.00     0.309 A 
ATOM      4  N   UNL     1     -14.030 -43.658  26.036  1.00  0.00    -0.201 N 
ATOM      5  C   UNL     1     -13.081 -43.029  26.771  1.00  0.00     0.309 A 
ATOM      6  C   UNL     1     -12.256 -43.743  27.630  1.00  0.00     0.079 A 
ENDROOT
BRANCH   1   7
ATOM      7  C   UNL     1     -11.561 -45.865  28.672  1.00  0.00     0.016 C 
BRANCH   7   8
ATOM      8  C   UNL     1     -10.794 -45.309  29.620  1.00  0.00     0.005 C 
ATOM      9  C   UNL     1      -8.001 -43.260  32.811  1.00  0.00     0.161 A 
ATOM     10  C   UNL     1      -7.936 -43.950  31.590  1.00  0.00     0.055 A 
ATOM     11  C   UNL     1      -9.257 -43.013  33.436  1.00  0.00     0.161 A 
ATOM     12  C   UNL     1      -9.119 -44.383  31.009  1.00  0.00    -0.028 A 
ATOM     13  C   UNL     1     -10.440 -43.455  32.839  1.00  0.00     0.063 A 
ATOM     14  C   UNL     1     -10.336 -44.130  31.637  1.00  0.00     0.030 A 
ATOM     15  C   UNL     1      -9.299 -45.134  29.725  1.00  0.00     0.076 C 
ATOM     16  C   UNL     1     -11.424 -44.682  30.825  1.00  0.00     0.189 C 
ATOM     17  O   UNL     1     -12.609 -44.636  31.078  1.00  0.00    -0.289 OA
BRANCH   9  18
ATOM     18  O   UNL     1      -6.902 -42.783  33.484  1.00  0.00    -0.493 OA
ATOM     19  C   UNL     1      -5.726 -43.579  33.494  1.00  0.00     0.278 C 
ENDBRANCH   9  18
BRANCH  11  20
ATOM     20  O   UNL     1      -9.204 -42.331  34.628  1.00  0.00    -0.493 OA
ATOM     21  C   UNL     1     -10.381 -41.659  35.059  1.00  0.00     0.278 C 
ENDBRANCH  11  20
ENDBRANCH   7   8
ENDBRANCH   1   7
BRANCH   4  22
ATOM     22  C   UNL     1     -14.917 -42.876  25.132  1.00  0.00     0.394 C 
BRANCH  22  23
ATOM     23  C   UNL     1     -16.296 -42.663  25.705  1.00  0.00     0.031 A 
ATOM     24  C   UNL     1     -16.447 -42.623  27.106  1.00  0.00     0.011 A 
ATOM     25  C   UNL     1     -17.444 -42.508  24.909  1.00  0.00     0.027 A 
ATOM     26  C   UNL     1     -17.699 -42.415  27.686  1.00  0.00     0.001 A 
ATOM     27  C   UNL     1     -18.697 -42.299  25.496  1.00  0.00     0.016 A 
ATOM     28  C   UNL     1     -18.821 -42.250  26.883  1.00  0.00     0.001 A 
ATOM     29  Br  UNL     1     -17.385 -42.582  23.013  1.00  0.00    -0.050 Br
ENDBRANCH  22  23
ENDBRANCH   4  22
TORSDOF 6
ENDMDL
MODEL 5
REMARK VINA RESULT:   -10.271      4.397     10.287
REMARK INTER + INTRA:         -14.413
REMARK INTER:                 -14.036
REMARK INTRA:                  -0.378
REMARK UNBOUND:                -0.540
REMARK SMILES COc1cc2c(cc1OC)C(=O)/C(=C/c1cc[n+](Cc3ccccc3Br)cc1)C2
REMARK SMILES IDX 15 1 16 2 17 3 18 4 27 5 28 6 14 7 13 8 3 9 4 10 8 11 5 12
REMARK SMILES IDX 7 13 6 14 29 15 11 16 12 17 2 18 1 19 9 20 10 21 19 22 20 23
REMARK SMILES IDX 21 24 25 25 22 26 24 27 23 28 26 29
REMARK H PARENT
ROOT
ATOM      1  C   UNL     1     -14.096 -44.594  26.614  1.00  0.00    -0.013 A 
ATOM      2  C   UNL     1     -14.175 -44.900  25.258  1.00  0.00     0.079 A 
ATOM      3  C   UNL     1     -14.879 -44.058  24.405  1.00  0.00     0.309 A 
ATOM      4  N   UNL     1     -15.483 -42.940  24.874  1.00  0.00    -0.201 N 
ATOM      5  C   UNL     1     -15.439 -42.644  26.195  1.00  0.00     0.309 A 
ATOM      6  C   UNL     1     -14.749 -43.458  27.084  1.00  0.00     0.079 A 
ENDROOT
BRANCH   1   7
ATOM      7  C   UNL     1     -13.401 -45.466  27.558  1.00  0.00     0.016 C 
BRANCH   7   8
ATOM      8  C   UNL     1     -12.492 -45.055  28.452  1.00  0.00     0.005 C 
ATOM      9  C   UNL     1      -9.233 -43.478  31.465  1.00  0.00     0.161 A 
ATOM     10  C   UNL     1      -9.378 -43.873  30.125  1.00  0.00     0.055 A 
ATOM     11  C   UNL     1     -10.347 -43.506  32.351  1.00  0.00     0.161 A 
ATOM     12  C   UNL     1     -10.626 -44.288  29.687  1.00  0.00    -0.028 A 
ATOM     13  C   UNL     1     -11.599 -43.927  31.896  1.00  0.00     0.063 A 
ATOM     14  C   UNL     1     -11.703 -44.307  30.571  1.00  0.00     0.030 A 
ATOM     15  C   UNL     1     -11.019 -44.753  28.317  1.00  0.00     0.076 C 
ATOM     16  C   UNL     1     -12.899 -44.777  29.866  1.00  0.00     0.189 C 
ATOM     17  O   UNL     1     -14.008 -44.911  30.337  1.00  0.00    -0.289 OA
BRANCH   9  18
ATOM     18  O   UNL     1      -8.050 -43.049  32.016  1.00  0.00    -0.493 OA
ATOM     19  C   UNL     1      -7.072 -44.025  32.346  1.00  0.00     0.278 C 
ENDBRANCH   9  18
BRANCH  11  20
ATOM     20  O   UNL     1     -10.093 -43.101  33.639  1.00  0.00    -0.493 OA
ATOM     21  C   UNL     1     -10.837 -42.001  34.146  1.00  0.00     0.278 C 
ENDBRANCH  11  20
ENDBRANCH   7   8
ENDBRANCH   1   7
BRANCH   4  22
ATOM     22  C   UNL     1     -16.240 -42.066  23.936  1.00  0.00     0.394 C 
BRANCH  22  23
ATOM     23  C   UNL     1     -17.733 -42.149  24.136  1.00  0.00     0.031 A 
ATOM     24  C   UNL     1     -18.229 -42.896  25.223  1.00  0.00     0.011 A 
ATOM     25  C   UNL     1     -18.659 -41.519  23.286  1.00  0.00     0.027 A 
ATOM     26  C   UNL     1     -19.601 -42.992  25.460  1.00  0.00     0.001 A 
ATOM     27  C   UNL     1     -20.033 -41.618  23.528  1.00  0.00     0.016 A 
ATOM     28  C   UNL     1     -20.501 -42.352  24.617  1.00  0.00     0.001 A 
ATOM     29  Br  UNL     1     -18.125 -40.517  21.765  1.00  0.00    -0.050 Br
ENDBRANCH  22  23
ENDBRANCH   4  22
TORSDOF 6
ENDMDL
MODEL 6
REMARK VINA RESULT:   -10.212      4.283      9.997
REMARK INTER + INTRA:         -14.334
REMARK INTER:                 -13.480
REMARK INTRA:                  -0.854
REMARK UNBOUND:                -0.540
REMARK SMILES COc1cc2c(cc1OC)C(=O)/C(=C/c1cc[n+](Cc3ccccc3Br)cc1)C2
REMARK SMILES IDX 15 1 16 2 17 3 18 4 27 5 28 6 14 7 13 8 3 9 4 10 8 11 5 12
REMARK SMILES IDX 7 13 6 14 29 15 11 16 12 17 2 18 1 19 9 20 10 21 19 22 20 23
REMARK SMILES IDX 21 24 25 25 22 26 24 27 23 28 26 29
REMARK H PARENT
ROOT
ATOM      1  C   UNL     1     -15.226 -43.154  25.960  1.00  0.00    -0.013 A 
ATOM      2  C   UNL     1     -16.091 -43.079  24.872  1.00  0.00     0.079 A 
ATOM      3  C   UNL     1     -17.402 -42.661  25.067  1.00  0.00     0.309 A 
ATOM      4  N   UNL     1     -17.847 -42.317  26.299  1.00  0.00    -0.201 N 
ATOM      5  C   UNL     1     -17.025 -42.412  27.372  1.00  0.00     0.309 A 
ATOM      6  C   UNL     1     -15.708 -42.828  27.225  1.00  0.00     0.079 A 
ENDROOT
BRANCH   1   7
ATOM      7  C   UNL     1     -13.850 -43.624  25.815  1.00  0.00     0.016 C 
BRANCH   7   8
ATOM      8  C   UNL     1     -12.971 -43.740  26.820  1.00  0.00     0.005 C 
ATOM      9  C   UNL     1      -9.947 -43.976  30.423  1.00  0.00     0.161 A 
ATOM     10  C   UNL     1     -10.416 -43.077  29.452  1.00  0.00     0.055 A 
ATOM     11  C   UNL     1     -10.448 -45.308  30.477  1.00  0.00     0.161 A 
ATOM     12  C   UNL     1     -11.374 -43.515  28.550  1.00  0.00    -0.028 A 
ATOM     13  C   UNL     1     -11.414 -45.735  29.562  1.00  0.00     0.063 A 
ATOM     14  C   UNL     1     -11.851 -44.822  28.621  1.00  0.00     0.030 A 
ATOM     15  C   UNL     1     -12.015 -42.746  27.434  1.00  0.00     0.076 C 
ATOM     16  C   UNL     1     -12.850 -45.030  27.570  1.00  0.00     0.189 C 
ATOM     17  O   UNL     1     -13.464 -46.053  27.350  1.00  0.00    -0.289 OA
BRANCH   9  18
ATOM     18  O   UNL     1      -9.001 -43.661  31.369  1.00  0.00    -0.493 OA
ATOM     19  C   UNL     1      -7.652 -43.525  30.946  1.00  0.00     0.278 C 
ENDBRANCH   9  18
BRANCH  11  20
ATOM     20  O   UNL     1      -9.920 -46.102  31.466  1.00  0.00    -0.493 OA
ATOM     21  C   UNL     1      -8.819 -46.935  31.129  1.00  0.00     0.278 C 
ENDBRANCH  11  20
ENDBRANCH   7   8
ENDBRANCH   1   7
BRANCH   4  22
ATOM     22  C   UNL     1     -19.261 -41.885  26.476  1.00  0.00     0.394 C 
BRANCH  22  23
ATOM     23  C   UNL     1     -20.218 -43.046  26.584  1.00  0.00     0.031 A 
ATOM     24  C   UNL     1     -20.314 -43.730  27.812  1.00  0.00     0.011 A 
ATOM     25  C   UNL     1     -21.019 -43.485  25.514  1.00  0.00     0.027 A 
ATOM     26  C   UNL     1     -21.195 -44.802  27.968  1.00  0.00     0.001 A 
ATOM     27  C   UNL     1     -21.900 -44.559  25.677  1.00  0.00     0.016 A 
ATOM     28  C   UNL     1     -21.989 -45.213  26.904  1.00  0.00     0.001 A 
ATOM     29  Br  UNL     1     -20.956 -42.676  23.798  1.00  0.00    -0.050 Br
ENDBRANCH  22  23
ENDBRANCH   4  22
TORSDOF 6
ENDMDL
MODEL 7
REMARK VINA RESULT:   -10.033      1.995      3.149
REMARK INTER + INTRA:         -14.093
REMARK INTER:                 -13.363
REMARK INTRA:                  -0.730
REMARK UNBOUND:                -0.540
REMARK SMILES COc1cc2c(cc1OC)C(=O)/C(=C/c1cc[n+](Cc3ccccc3Br)cc1)C2
REMARK SMILES IDX 15 1 16 2 17 3 18 4 27 5 28 6 14 7 13 8 3 9 4 10 8 11 5 12
REMARK SMILES IDX 7 13 6 14 29 15 11 16 12 17 2 18 1 19 9 20 10 21 19 22 20 23
REMARK SMILES IDX 21 24 25 25 22 26 24 27 23 28 26 29
REMARK H PARENT
ROOT
ATOM      1  C   UNL     1     -14.641 -43.540  25.673  1.00  0.00    -0.013 A 
ATOM      2  C   UNL     1     -14.464 -44.884  25.988  1.00  0.00     0.079 A 
ATOM      3  C   UNL     1     -13.454 -45.255  26.869  1.00  0.00     0.309 A 
ATOM      4  N   UNL     1     -12.647 -44.324  27.432  1.00  0.00    -0.201 N 
ATOM      5  C   UNL     1     -12.789 -43.016  27.115  1.00  0.00     0.309 A 
ATOM      6  C   UNL     1     -13.782 -42.600  26.237  1.00  0.00     0.079 A 
ENDROOT
BRANCH   1   7
ATOM      7  C   UNL     1     -15.662 -43.102  24.725  1.00  0.00     0.016 C 
BRANCH   7   8
ATOM      8  C   UNL     1     -16.886 -42.672  25.061  1.00  0.00     0.005 C 
ATOM      9  C   UNL     1     -21.106 -41.051  26.383  1.00  0.00     0.161 A 
ATOM     10  C   UNL     1     -19.927 -41.589  26.924  1.00  0.00     0.055 A 
ATOM     11  C   UNL     1     -21.238 -40.868  24.977  1.00  0.00     0.161 A 
ATOM     12  C   UNL     1     -18.899 -41.937  26.061  1.00  0.00    -0.028 A 
ATOM     13  C   UNL     1     -20.193 -41.223  24.119  1.00  0.00     0.063 A 
ATOM     14  C   UNL     1     -19.049 -41.749  24.689  1.00  0.00     0.030 A 
ATOM     15  C   UNL     1     -17.564 -42.527  26.401  1.00  0.00     0.076 C 
ATOM     16  C   UNL     1     -17.830 -42.188  24.004  1.00  0.00     0.189 C 
ATOM     17  O   UNL     1     -17.624 -42.161  22.809  1.00  0.00    -0.289 OA
BRANCH   9  18
ATOM     18  O   UNL     1     -22.192 -40.670  27.133  1.00  0.00    -0.493 OA
ATOM     19  C   UNL     1     -23.180 -41.647  27.425  1.00  0.00     0.278 C 
ENDBRANCH   9  18
BRANCH  11  20
ATOM     20  O   UNL     1     -22.432 -40.335  24.556  1.00  0.00    -0.493 OA
ATOM     21  C   UNL     1     -23.236 -41.119  23.685  1.00  0.00     0.278 C 
ENDBRANCH  11  20
ENDBRANCH   7   8
ENDBRANCH   1   7
BRANCH   4  22
ATOM     22  C   UNL     1     -11.567 -44.756  28.363  1.00  0.00     0.394 C 
BRANCH  22  23
ATOM     23  C   UNL     1     -11.902 -44.488  29.810  1.00  0.00     0.031 A 
ATOM     24  C   UNL     1     -13.192 -44.811  30.276  1.00  0.00     0.011 A 
ATOM     25  C   UNL     1     -10.988 -43.927  30.719  1.00  0.00     0.027 A 
ATOM     26  C   UNL     1     -13.547 -44.597  31.608  1.00  0.00     0.001 A 
ATOM     27  C   UNL     1     -11.349 -43.715  32.053  1.00  0.00     0.016 A 
ATOM     28  C   UNL     1     -12.626 -44.053  32.497  1.00  0.00     0.001 A 
ATOM     29  Br  UNL     1      -9.234 -43.411  30.211  1.00  0.00    -0.050 Br
ENDBRANCH  22  23
ENDBRANCH   4  22
TORSDOF 6
ENDMDL
MODEL 8
REMARK VINA RESULT:    -9.991      2.794      5.433
REMARK INTER + INTRA:         -14.036
REMARK INTER:                 -13.763
REMARK INTRA:                  -0.273
REMARK UNBOUND:                -0.540
REMARK SMILES COc1cc2c(cc1OC)C(=O)/C(=C/c1cc[n+](Cc3ccccc3Br)cc1)C2
REMARK SMILES IDX 15 1 16 2 17 3 18 4 27 5 28 6 14 7 13 8 3 9 4 10 8 11 5 12
REMARK SMILES IDX 7 13 6 14 29 15 11 16 12 17 2 18 1 19 9 20 10 21 19 22 20 23
REMARK SMILES IDX 21 24 25 25 22 26 24 27 23 28 26 29
REMARK H PARENT
ROOT
ATOM      1  C   UNL     1     -17.114 -42.679  25.331  1.00  0.00    -0.013 A 
ATOM      2  C   UNL     1     -16.791 -42.669  26.685  1.00  0.00     0.079 A 
ATOM      3  C   UNL     1     -15.457 -42.642  27.073  1.00  0.00     0.309 A 
ATOM      4  N   UNL     1     -14.465 -42.617  26.150  1.00  0.00    -0.201 N 
ATOM      5  C   UNL     1     -14.762 -42.654  24.829  1.00  0.00     0.309 A 
ATOM      6  C   UNL     1     -16.082 -42.685  24.396  1.00  0.00     0.079 A 
ENDROOT
BRANCH   1   7
ATOM      7  C   UNL     1     -18.499 -42.746  24.873  1.00  0.00     0.016 C 
BRANCH   7   8
ATOM      8  C   UNL     1     -19.072 -41.869  24.036  1.00  0.00     0.005 C 
ATOM      9  C   UNL     1     -21.029 -38.902  20.946  1.00  0.00     0.161 A 
ATOM     10  C   UNL     1     -19.841 -39.617  21.167  1.00  0.00     0.055 A 
ATOM     11  C   UNL     1     -22.108 -38.988  21.873  1.00  0.00     0.161 A 
ATOM     12  C   UNL     1     -19.743 -40.406  22.304  1.00  0.00    -0.028 A 
ATOM     13  C   UNL     1     -21.994 -39.787  23.013  1.00  0.00     0.063 A 
ATOM     14  C   UNL     1     -20.810 -40.476  23.196  1.00  0.00     0.030 A 
ATOM     15  C   UNL     1     -18.586 -41.248  22.750  1.00  0.00     0.076 C 
ATOM     16  C   UNL     1     -20.458 -41.371  24.302  1.00  0.00     0.189 C 
ATOM     17  O   UNL     1     -21.159 -41.657  25.250  1.00  0.00    -0.289 OA
BRANCH   9  18
ATOM     18  O   UNL     1     -21.246 -38.089  19.861  1.00  0.00    -0.493 OA
ATOM     19  C   UNL     1     -21.809 -38.668  18.693  1.00  0.00     0.278 C 
ENDBRANCH   9  18
BRANCH  11  20
ATOM     20  O   UNL     1     -23.221 -38.247  21.559  1.00  0.00    -0.493 OA
ATOM     21  C   UNL     1     -24.489 -38.883  21.659  1.00  0.00     0.278 C 
ENDBRANCH  11  20
ENDBRANCH   7   8
ENDBRANCH   1   7
BRANCH   4  22
ATOM     22  C   UNL     1     -13.046 -42.600  26.597  1.00  0.00     0.394 C 
BRANCH  22  23
ATOM     23  C   UNL     1     -12.624 -43.894  27.250  1.00  0.00     0.031 A 
ATOM     24  C   UNL     1     -13.317 -45.075  26.920  1.00  0.00     0.011 A 
ATOM     25  C   UNL     1     -11.573 -43.978  28.180  1.00  0.00     0.027 A 
ATOM     26  C   UNL     1     -12.957 -46.299  27.485  1.00  0.00     0.001 A 
ATOM     27  C   UNL     1     -11.215 -45.208  28.743  1.00  0.00     0.016 A 
ATOM     28  C   UNL     1     -11.906 -46.367  28.392  1.00  0.00     0.001 A 
ATOM     29  Br  UNL     1     -10.586 -42.457  28.741  1.00  0.00    -0.050 Br
ENDBRANCH  22  23
ENDBRANCH   4  22
TORSDOF 6
ENDMDL
MODEL 9
REMARK VINA RESULT:    -9.943      2.217      3.751
REMARK INTER + INTRA:         -13.971
REMARK INTER:                 -13.928
REMARK INTRA:                  -0.043
REMARK UNBOUND:                -0.540
REMARK SMILES COc1cc2c(cc1OC)C(=O)/C(=C/c1cc[n+](Cc3ccccc3Br)cc1)C2
REMARK SMILES IDX 15 1 16 2 17 3 18 4 27 5 28 6 14 7 13 8 3 9 4 10 8 11 5 12
REMARK SMILES IDX 7 13 6 14 29 15 11 16 12 17 2 18 1 19 9 20 10 21 19 22 20 23
REMARK SMILES IDX 21 24 25 25 22 26 24 27 23 28 26 29
REMARK H PARENT
ROOT
ATOM      1  C   UNL     1     -15.680 -43.303  25.404  1.00  0.00    -0.013 A 
ATOM      2  C   UNL     1     -14.676 -44.204  25.061  1.00  0.00     0.079 A 
ATOM      3  C   UNL     1     -13.840 -44.709  26.050  1.00  0.00     0.309 A 
ATOM      4  N   UNL     1     -13.995 -44.342  27.345  1.00  0.00    -0.201 N 
ATOM      5  C   UNL     1     -14.949 -43.445  27.690  1.00  0.00     0.309 A 
ATOM      6  C   UNL     1     -15.805 -42.913  26.735  1.00  0.00     0.079 A 
ENDROOT
BRANCH   1   7
ATOM      7  C   UNL     1     -16.560 -42.715  24.398  1.00  0.00     0.016 C 
BRANCH   7   8
ATOM      8  C   UNL     1     -17.807 -42.280  24.630  1.00  0.00     0.005 C 
ATOM      9  C   UNL     1     -22.121 -40.666  25.612  1.00  0.00     0.161 A 
ATOM     10  C   UNL     1     -21.040 -41.325  26.220  1.00  0.00     0.055 A 
ATOM     11  C   UNL     1     -22.059 -40.288  24.240  1.00  0.00     0.161 A 
ATOM     12  C   UNL     1     -19.916 -41.598  25.456  1.00  0.00    -0.028 A 
ATOM     13  C   UNL     1     -20.919 -40.570  23.483  1.00  0.00     0.063 A 
ATOM     14  C   UNL     1     -19.875 -41.219  24.116  1.00  0.00     0.030 A 
ATOM     15  C   UNL     1     -18.654 -42.288  25.879  1.00  0.00     0.076 C 
ATOM     16  C   UNL     1     -18.588 -41.615  23.540  1.00  0.00     0.189 C 
ATOM     17  O   UNL     1     -18.222 -41.436  22.397  1.00  0.00    -0.289 OA
BRANCH   9  18
ATOM     18  O   UNL     1     -23.287 -40.342  26.262  1.00  0.00    -0.493 OA
ATOM     19  C   UNL     1     -23.193 -39.721  27.536  1.00  0.00     0.278 C 
ENDBRANCH   9  18
BRANCH  11  20
ATOM     20  O   UNL     1     -23.171 -39.650  23.748  1.00  0.00    -0.493 OA
ATOM     21  C   UNL     1     -23.052 -38.979  22.501  1.00  0.00     0.278 C 
ENDBRANCH  11  20
ENDBRANCH   7   8
ENDBRANCH   1   7
BRANCH   4  22
ATOM     22  C   UNL     1     -13.074 -44.891  28.378  1.00  0.00     0.394 C 
BRANCH  22  23
ATOM     23  C   UNL     1     -11.762 -44.150  28.445  1.00  0.00     0.031 A 
ATOM     24  C   UNL     1     -11.619 -42.959  27.706  1.00  0.00     0.011 A 
ATOM     25  C   UNL     1     -10.667 -44.593  29.208  1.00  0.00     0.027 A 
ATOM     26  C   UNL     1     -10.431 -42.229  27.745  1.00  0.00     0.001 A 
ATOM     27  C   UNL     1      -9.478 -43.857  29.244  1.00  0.00     0.016 A 
ATOM     28  C   UNL     1      -9.363 -42.675  28.515  1.00  0.00     0.001 A 
ATOM     29  Br  UNL     1     -10.713 -46.200  30.217  1.00  0.00    -0.050 Br
ENDBRANCH  22  23
ENDBRANCH   4  22
TORSDOF 6
ENDMDL
