MODEL 1
REMARK VINA RESULT:   -11.104      0.000      0.000
REMARK INTER + INTRA:         -15.187
REMARK INTER:                 -14.674
REMARK INTRA:                  -0.512
REMARK UNBOUND:                -0.512
REMARK SMILES COc1cc(/C=C/c2nnc(-c3ccc(Cl)cc3)o2)ccc1O
REMARK SMILES IDX 6 1 5 2 3 3 4 4 22 5 21 6 20 7 2 8 1 9 23 10 7 12 8 13 9 14
REMARK SMILES IDX 19 15 10 16 11 17 12 18 13 19 18 20 14 21 17 22 15 23 16 24
REMARK H PARENT 23 11
ROOT
ATOM      1  C   UNL     1     -10.700 -46.265  30.906  1.00  0.00     0.014 C 
ENDROOT
BRANCH   1   2
ATOM      2  C   UNL     1      -9.583 -45.497  31.475  1.00  0.00    -0.022 A 
ATOM      3  C   UNL     1      -8.701 -43.567  32.674  1.00  0.00     0.161 A 
ATOM      4  C   UNL     1      -9.785 -44.288  32.162  1.00  0.00     0.058 A 
ATOM      5  C   UNL     1      -7.405 -44.068  32.484  1.00  0.00     0.157 A 
ATOM      6  C   UNL     1      -7.190 -45.257  31.791  1.00  0.00     0.051 A 
ATOM      7  C   UNL     1      -8.279 -45.966  31.283  1.00  0.00     0.012 A 
BRANCH   3   8
ATOM      8  O   UNL     1      -8.796 -42.384  33.361  1.00  0.00    -0.493 OA
ATOM      9  C   UNL     1      -9.830 -42.265  34.326  1.00  0.00     0.278 C 
ENDBRANCH   3   8
BRANCH   5  10
ATOM     10  O   UNL     1      -6.338 -43.371  32.986  1.00  0.00    -0.504 OA
ATOM     11  H   UNL     1      -5.528 -43.887  32.850  1.00  0.00     0.293 HD
ENDBRANCH   5  10
ENDBRANCH   1   2
BRANCH   1  12
ATOM     12  C   UNL     1     -11.098 -46.156  29.629  1.00  0.00     0.071 C 
BRANCH  12  13
ATOM     13  C   UNL     1     -12.335 -45.543  29.291  1.00  0.00     0.241 A 
ATOM     14  N   UNL     1     -13.340 -45.237  30.101  1.00  0.00    -0.108 NA
ATOM     15  O   UNL     1     -12.640 -45.178  27.991  1.00  0.00    -0.417 OA
ATOM     16  N   UNL     1     -14.334 -44.659  29.343  1.00  0.00    -0.107 NA
ATOM     17  C   UNL     1     -13.891 -44.638  28.107  1.00  0.00     0.248 A 
BRANCH  17  18
ATOM     18  C   UNL     1     -14.526 -44.140  26.892  1.00  0.00     0.039 A 
ATOM     19  C   UNL     1     -14.146 -44.592  25.617  1.00  0.00     0.015 A 
ATOM     20  C   UNL     1     -15.546 -43.180  26.987  1.00  0.00     0.015 A 
ATOM     21  C   UNL     1     -14.772 -44.096  24.468  1.00  0.00     0.021 A 
ATOM     22  C   UNL     1     -16.173 -42.684  25.839  1.00  0.00     0.021 A 
ATOM     23  C   UNL     1     -15.783 -43.144  24.584  1.00  0.00     0.041 A 
ATOM     24  Cl  UNL     1     -16.551 -42.536  23.171  1.00  0.00    -0.084 Cl
ENDBRANCH  17  18
ENDBRANCH  12  13
ENDBRANCH   1  12
TORSDOF 6
ENDMDL
MODEL 2
REMARK VINA RESULT:   -11.025      1.729      2.237
REMARK INTER + INTRA:         -15.082
REMARK INTER:                 -14.589
REMARK INTRA:                  -0.493
REMARK UNBOUND:                -0.512
REMARK SMILES COc1cc(/C=C/c2nnc(-c3ccc(Cl)cc3)o2)ccc1O
REMARK SMILES IDX 6 1 5 2 3 3 4 4 22 5 21 6 20 7 2 8 1 9 23 10 7 12 8 13 9 14
REMARK SMILES IDX 19 15 10 16 11 17 12 18 13 19 18 20 14 21 17 22 15 23 16 24
REMARK H PARENT 23 11
ROOT
ATOM      1  C   UNL     1     -10.920 -46.496  29.808  1.00  0.00     0.014 C 
ENDROOT
BRANCH   1   2
ATOM      2  C   UNL     1      -9.871 -45.561  30.239  1.00  0.00    -0.022 A 
ATOM      3  C   UNL     1      -8.551 -43.534  29.937  1.00  0.00     0.161 A 
ATOM      4  C   UNL     1      -9.570 -44.395  29.515  1.00  0.00     0.058 A 
ATOM      5  C   UNL     1      -7.826 -43.859  31.092  1.00  0.00     0.157 A 
ATOM      6  C   UNL     1      -8.103 -45.021  31.811  1.00  0.00     0.051 A 
ATOM      7  C   UNL     1      -9.121 -45.872  31.378  1.00  0.00     0.012 A 
BRANCH   3   8
ATOM      8  O   UNL     1      -8.188 -42.374  29.304  1.00  0.00    -0.493 OA
ATOM      9  C   UNL     1      -8.548 -42.229  27.938  1.00  0.00     0.278 C 
ENDBRANCH   3   8
BRANCH   5  10
ATOM     10  O   UNL     1      -6.830 -43.020  31.515  1.00  0.00    -0.504 OA
ATOM     11  H   UNL     1      -6.695 -42.326  30.851  1.00  0.00     0.293 HD
ENDBRANCH   5  10
ENDBRANCH   1   2
BRANCH   1  12
ATOM     12  C   UNL     1     -11.544 -46.415  28.623  1.00  0.00     0.071 C 
BRANCH  12  13
ATOM     13  C   UNL     1     -12.681 -45.582  28.443  1.00  0.00     0.241 A 
ATOM     14  N   UNL     1     -13.461 -45.055  29.378  1.00  0.00    -0.108 NA
ATOM     15  O   UNL     1     -13.124 -45.209  27.185  1.00  0.00    -0.417 OA
ATOM     16  N   UNL     1     -14.440 -44.319  28.749  1.00  0.00    -0.107 NA
ATOM     17  C   UNL     1     -14.213 -44.430  27.459  1.00  0.00     0.248 A 
BRANCH  17  18
ATOM     18  C   UNL     1     -14.935 -43.859  26.328  1.00  0.00     0.039 A 
ATOM     19  C   UNL     1     -16.025 -42.990  26.506  1.00  0.00     0.015 A 
ATOM     20  C   UNL     1     -14.540 -44.179  25.019  1.00  0.00     0.015 A 
ATOM     21  C   UNL     1     -16.700 -42.456  25.402  1.00  0.00     0.021 A 
ATOM     22  C   UNL     1     -15.214 -43.646  23.916  1.00  0.00     0.021 A 
ATOM     23  C   UNL     1     -16.292 -42.787  24.112  1.00  0.00     0.041 A 
ATOM     24  Cl  UNL     1     -17.123 -42.130  22.758  1.00  0.00    -0.084 Cl
ENDBRANCH  17  18
ENDBRANCH  12  13
ENDBRANCH   1  12
TORSDOF 6
ENDMDL
MODEL 3
REMARK VINA RESULT:   -10.206      3.699      5.177
REMARK INTER + INTRA:         -14.000
REMARK INTER:                 -13.555
REMARK INTRA:                  -0.445
REMARK UNBOUND:                -0.512
REMARK SMILES COc1cc(/C=C/c2nnc(-c3ccc(Cl)cc3)o2)ccc1O
REMARK SMILES IDX 6 1 5 2 3 3 4 4 22 5 21 6 20 7 2 8 1 9 23 10 7 12 8 13 9 14
REMARK SMILES IDX 19 15 10 16 11 17 12 18 13 19 18 20 14 21 17 22 15 23 16 24
REMARK H PARENT 23 11
ROOT
ATOM      1  C   UNL     1     -13.750 -45.247  26.884  1.00  0.00     0.014 C 
ENDROOT
BRANCH   1   2
ATOM      2  C   UNL     1     -13.000 -45.588  28.101  1.00  0.00    -0.022 A 
ATOM      3  C   UNL     1     -12.770 -45.666  30.527  1.00  0.00     0.161 A 
ATOM      4  C   UNL     1     -13.516 -45.351  29.386  1.00  0.00     0.058 A 
ATOM      5  C   UNL     1     -11.490 -46.216  30.367  1.00  0.00     0.157 A 
ATOM      6  C   UNL     1     -10.959 -46.441  29.098  1.00  0.00     0.051 A 
ATOM      7  C   UNL     1     -11.713 -46.121  27.968  1.00  0.00     0.012 A 
BRANCH   3   8
ATOM      8  O   UNL     1     -13.189 -45.478  31.819  1.00  0.00    -0.493 OA
ATOM      9  C   UNL     1     -13.700 -44.200  32.166  1.00  0.00     0.278 C 
ENDBRANCH   3   8
BRANCH   5  10
ATOM     10  O   UNL     1     -10.754 -46.531  31.477  1.00  0.00    -0.504 OA
ATOM     11  H   UNL     1     -11.324 -46.484  32.261  1.00  0.00     0.293 HD
ENDBRANCH   5  10
ENDBRANCH   1   2
BRANCH   1  12
ATOM     12  C   UNL     1     -13.724 -44.031  26.315  1.00  0.00     0.071 C 
BRANCH  12  13
ATOM     13  C   UNL     1     -14.822 -43.550  25.551  1.00  0.00     0.241 A 
ATOM     14  N   UNL     1     -14.911 -43.440  24.233  1.00  0.00    -0.108 NA
ATOM     15  O   UNL     1     -15.993 -43.116  26.148  1.00  0.00    -0.417 OA
ATOM     16  N   UNL     1     -16.154 -42.927  23.933  1.00  0.00    -0.107 NA
ATOM     17  C   UNL     1     -16.766 -42.748  25.081  1.00  0.00     0.248 A 
BRANCH  17  18
ATOM     18  C   UNL     1     -18.100 -42.231  25.361  1.00  0.00     0.039 A 
ATOM     19  C   UNL     1     -18.603 -42.143  26.670  1.00  0.00     0.015 A 
ATOM     20  C   UNL     1     -18.917 -41.808  24.300  1.00  0.00     0.015 A 
ATOM     21  C   UNL     1     -19.887 -41.643  26.910  1.00  0.00     0.021 A 
ATOM     22  C   UNL     1     -20.201 -41.307  24.538  1.00  0.00     0.021 A 
ATOM     23  C   UNL     1     -20.681 -41.228  25.843  1.00  0.00     0.041 A 
ATOM     24  Cl  UNL     1     -22.259 -40.614  26.139  1.00  0.00    -0.084 Cl
ENDBRANCH  17  18
ENDBRANCH  12  13
ENDBRANCH   1  12
TORSDOF 6
ENDMDL
MODEL 4
REMARK VINA RESULT:   -10.030      2.141      2.935
REMARK INTER + INTRA:         -13.767
REMARK INTER:                 -13.626
REMARK INTRA:                  -0.141
REMARK UNBOUND:                -0.512
REMARK SMILES COc1cc(/C=C/c2nnc(-c3ccc(Cl)cc3)o2)ccc1O
REMARK SMILES IDX 6 1 5 2 3 3 4 4 22 5 21 6 20 7 2 8 1 9 23 10 7 12 8 13 9 14
REMARK SMILES IDX 19 15 10 16 11 17 12 18 13 19 18 20 14 21 17 22 15 23 16 24
REMARK H PARENT 23 11
ROOT
ATOM      1  C   UNL     1     -11.698 -45.820  30.081  1.00  0.00     0.014 C 
ENDROOT
BRANCH   1   2
ATOM      2  C   UNL     1     -11.549 -44.758  31.087  1.00  0.00    -0.022 A 
ATOM      3  C   UNL     1     -12.427 -42.875  32.362  1.00  0.00     0.161 A 
ATOM      4  C   UNL     1     -12.605 -43.892  31.417  1.00  0.00     0.058 A 
ATOM      5  C   UNL     1     -11.173 -42.729  32.970  1.00  0.00     0.157 A 
ATOM      6  C   UNL     1     -10.112 -43.571  32.640  1.00  0.00     0.051 A 
ATOM      7  C   UNL     1     -10.301 -44.579  31.694  1.00  0.00     0.012 A 
BRANCH   3   8
ATOM      8  O   UNL     1     -13.395 -41.987  32.754  1.00  0.00    -0.493 OA
ATOM      9  C   UNL     1     -14.333 -42.423  33.727  1.00  0.00     0.278 C 
ENDBRANCH   3   8
BRANCH   5  10
ATOM     10  O   UNL     1     -10.991 -41.740  33.900  1.00  0.00    -0.504 OA
ATOM     11  H   UNL     1     -10.160 -41.898  34.375  1.00  0.00     0.293 HD
ENDBRANCH   5  10
ENDBRANCH   1   2
BRANCH   1  12
ATOM     12  C   UNL     1     -12.735 -45.896  29.233  1.00  0.00     0.071 C 
BRANCH  12  13
ATOM     13  C   UNL     1     -12.999 -44.861  28.295  1.00  0.00     0.241 A 
ATOM     14  N   UNL     1     -12.216 -43.843  27.964  1.00  0.00    -0.108 NA
ATOM     15  O   UNL     1     -14.183 -44.806  27.580  1.00  0.00    -0.417 OA
ATOM     16  N   UNL     1     -12.875 -43.091  27.017  1.00  0.00    -0.107 NA
ATOM     17  C   UNL     1     -14.029 -43.685  26.813  1.00  0.00     0.248 A 
BRANCH  17  18
ATOM     18  C   UNL     1     -15.122 -43.325  25.917  1.00  0.00     0.039 A 
ATOM     19  C   UNL     1     -16.346 -42.832  26.399  1.00  0.00     0.015 A 
ATOM     20  C   UNL     1     -14.960 -43.473  24.530  1.00  0.00     0.015 A 
ATOM     21  C   UNL     1     -17.378 -42.495  25.517  1.00  0.00     0.021 A 
ATOM     22  C   UNL     1     -15.990 -43.135  23.647  1.00  0.00     0.021 A 
ATOM     23  C   UNL     1     -17.196 -42.648  24.145  1.00  0.00     0.041 A 
ATOM     24  Cl  UNL     1     -18.466 -42.233  23.062  1.00  0.00    -0.084 Cl
ENDBRANCH  17  18
ENDBRANCH  12  13
ENDBRANCH   1  12
TORSDOF 6
ENDMDL
MODEL 5
REMARK VINA RESULT:    -9.889      3.897      5.043
REMARK INTER + INTRA:         -13.581
REMARK INTER:                 -13.159
REMARK INTRA:                  -0.422
REMARK UNBOUND:                -0.512
REMARK SMILES COc1cc(/C=C/c2nnc(-c3ccc(Cl)cc3)o2)ccc1O
REMARK SMILES IDX 6 1 5 2 3 3 4 4 22 5 21 6 20 7 2 8 1 9 23 10 7 12 8 13 9 14
REMARK SMILES IDX 19 15 10 16 11 17 12 18 13 19 18 20 14 21 17 22 15 23 16 24
REMARK H PARENT 23 11
ROOT
ATOM      1  C   UNL     1     -12.552 -42.751  26.968  1.00  0.00     0.014 C 
ENDROOT
BRANCH   1   2
ATOM      2  C   UNL     1     -11.287 -42.929  27.695  1.00  0.00    -0.022 A 
ATOM      3  C   UNL     1      -8.951 -42.362  28.102  1.00  0.00     0.161 A 
ATOM      4  C   UNL     1     -10.149 -42.155  27.409  1.00  0.00     0.058 A 
ATOM      5  C   UNL     1      -8.902 -43.361  29.084  1.00  0.00     0.157 A 
ATOM      6  C   UNL     1     -10.018 -44.146  29.367  1.00  0.00     0.051 A 
ATOM      7  C   UNL     1     -11.206 -43.932  28.666  1.00  0.00     0.012 A 
BRANCH   3   8
ATOM      8  O   UNL     1      -7.793 -41.656  27.900  1.00  0.00    -0.493 OA
ATOM      9  C   UNL     1      -7.528 -41.188  26.586  1.00  0.00     0.278 C 
ENDBRANCH   3   8
BRANCH   5  10
ATOM     10  O   UNL     1      -7.736 -43.566  29.771  1.00  0.00    -0.504 OA
ATOM     11  H   UNL     1      -7.258 -42.725  29.847  1.00  0.00     0.293 HD
ENDBRANCH   5  10
ENDBRANCH   1   2
BRANCH   1  12
ATOM     12  C   UNL     1     -13.388 -43.761  26.679  1.00  0.00     0.071 C 
BRANCH  12  13
ATOM     13  C   UNL     1     -14.566 -43.548  25.915  1.00  0.00     0.241 A 
ATOM     14  N   UNL     1     -14.772 -43.839  24.637  1.00  0.00    -0.108 NA
ATOM     15  O   UNL     1     -15.701 -42.974  26.462  1.00  0.00    -0.417 OA
ATOM     16  N   UNL     1     -16.057 -43.460  24.316  1.00  0.00    -0.107 NA
ATOM     17  C   UNL     1     -16.576 -42.955  25.412  1.00  0.00     0.248 A 
BRANCH  17  18
ATOM     18  C   UNL     1     -17.903 -42.399  25.650  1.00  0.00     0.039 A 
ATOM     19  C   UNL     1     -18.419 -42.240  26.947  1.00  0.00     0.015 A 
ATOM     20  C   UNL     1     -18.698 -42.010  24.560  1.00  0.00     0.015 A 
ATOM     21  C   UNL     1     -19.697 -41.704  27.146  1.00  0.00     0.021 A 
ATOM     22  C   UNL     1     -19.975 -41.474  24.758  1.00  0.00     0.021 A 
ATOM     23  C   UNL     1     -20.469 -41.324  26.051  1.00  0.00     0.041 A 
ATOM     24  Cl  UNL     1     -22.038 -40.666  26.298  1.00  0.00    -0.084 Cl
ENDBRANCH  17  18
ENDBRANCH  12  13
ENDBRANCH   1  12
TORSDOF 6
ENDMDL
MODEL 6
REMARK VINA RESULT:    -9.842      3.763      5.786
REMARK INTER + INTRA:         -13.519
REMARK INTER:                 -13.054
REMARK INTRA:                  -0.465
REMARK UNBOUND:                -0.512
REMARK SMILES COc1cc(/C=C/c2nnc(-c3ccc(Cl)cc3)o2)ccc1O
REMARK SMILES IDX 6 1 5 2 3 3 4 4 22 5 21 6 20 7 2 8 1 9 23 10 7 12 8 13 9 14
REMARK SMILES IDX 19 15 10 16 11 17 12 18 13 19 18 20 14 21 17 22 15 23 16 24
REMARK H PARENT 23 11
ROOT
ATOM      1  C   UNL     1     -14.053 -43.713  26.592  1.00  0.00     0.014 C 
ENDROOT
BRANCH   1   2
ATOM      2  C   UNL     1     -12.970 -44.441  27.267  1.00  0.00    -0.022 A 
ATOM      3  C   UNL     1     -10.909 -44.495  28.568  1.00  0.00     0.161 A 
ATOM      4  C   UNL     1     -11.940 -43.776  27.954  1.00  0.00     0.058 A 
ATOM      5  C   UNL     1     -10.915 -45.894  28.481  1.00  0.00     0.157 A 
ATOM      6  C   UNL     1     -11.921 -46.566  27.788  1.00  0.00     0.051 A 
ATOM      7  C   UNL     1     -12.943 -45.837  27.178  1.00  0.00     0.012 A 
BRANCH   3   8
ATOM      8  O   UNL     1      -9.867 -43.938  29.265  1.00  0.00    -0.493 OA
ATOM      9  C   UNL     1     -10.160 -43.333  30.515  1.00  0.00     0.278 C 
ENDBRANCH   3   8
BRANCH   5  10
ATOM     10  O   UNL     1      -9.913 -46.606  29.083  1.00  0.00    -0.504 OA
ATOM     11  H   UNL     1      -9.328 -46.973  28.401  1.00  0.00     0.293 HD
ENDBRANCH   5  10
ENDBRANCH   1   2
BRANCH   1  12
ATOM     12  C   UNL     1     -14.389 -43.909  25.307  1.00  0.00     0.071 C 
BRANCH  12  13
ATOM     13  C   UNL     1     -15.590 -43.374  24.768  1.00  0.00     0.241 A 
ATOM     14  N   UNL     1     -15.908 -43.211  23.491  1.00  0.00    -0.108 NA
ATOM     15  O   UNL     1     -16.624 -42.935  25.578  1.00  0.00    -0.417 OA
ATOM     16  N   UNL     1     -17.169 -42.659  23.434  1.00  0.00    -0.107 NA
ATOM     17  C   UNL     1     -17.562 -42.509  24.679  1.00  0.00     0.248 A 
BRANCH  17  18
ATOM     18  C   UNL     1     -18.809 -41.972  25.210  1.00  0.00     0.039 A 
ATOM     19  C   UNL     1     -19.797 -41.425  24.374  1.00  0.00     0.015 A 
ATOM     20  C   UNL     1     -19.042 -41.997  26.595  1.00  0.00     0.015 A 
ATOM     21  C   UNL     1     -20.985 -40.916  24.910  1.00  0.00     0.021 A 
ATOM     22  C   UNL     1     -20.230 -41.490  27.132  1.00  0.00     0.021 A 
ATOM     23  C   UNL     1     -21.196 -40.951  26.286  1.00  0.00     0.041 A 
ATOM     24  Cl  UNL     1     -22.657 -40.326  26.943  1.00  0.00    -0.084 Cl
ENDBRANCH  17  18
ENDBRANCH  12  13
ENDBRANCH   1  12
TORSDOF 6
ENDMDL
MODEL 7
REMARK VINA RESULT:    -9.745      3.384      4.445
REMARK INTER + INTRA:         -13.391
REMARK INTER:                 -12.982
REMARK INTRA:                  -0.409
REMARK UNBOUND:                -0.512
REMARK SMILES COc1cc(/C=C/c2nnc(-c3ccc(Cl)cc3)o2)ccc1O
REMARK SMILES IDX 6 1 5 2 3 3 4 4 22 5 21 6 20 7 2 8 1 9 23 10 7 12 8 13 9 14
REMARK SMILES IDX 19 15 10 16 11 17 12 18 13 19 18 20 14 21 17 22 15 23 16 24
REMARK H PARENT 23 11
ROOT
ATOM      1  C   UNL     1     -12.166 -42.905  26.984  1.00  0.00     0.014 C 
ENDROOT
BRANCH   1   2
ATOM      2  C   UNL     1     -11.034 -42.996  27.918  1.00  0.00    -0.022 A 
ATOM      3  C   UNL     1     -10.076 -43.621  30.071  1.00  0.00     0.161 A 
ATOM      4  C   UNL     1     -11.166 -43.568  29.194  1.00  0.00     0.058 A 
ATOM      5  C   UNL     1      -8.849 -43.085  29.657  1.00  0.00     0.157 A 
ATOM      6  C   UNL     1      -8.709 -42.499  28.400  1.00  0.00     0.051 A 
ATOM      7  C   UNL     1      -9.803 -42.451  27.536  1.00  0.00     0.012 A 
BRANCH   3   8
ATOM      8  O   UNL     1     -10.104 -44.163  31.330  1.00  0.00    -0.493 OA
ATOM      9  C   UNL     1     -10.146 -45.578  31.436  1.00  0.00     0.278 C 
ENDBRANCH   3   8
BRANCH   5  10
ATOM     10  O   UNL     1      -7.776 -43.136  30.506  1.00  0.00    -0.504 OA
ATOM     11  H   UNL     1      -7.752 -44.005  30.936  1.00  0.00     0.293 HD
ENDBRANCH   5  10
ENDBRANCH   1   2
BRANCH   1  12
ATOM     12  C   UNL     1     -13.252 -43.690  27.059  1.00  0.00     0.071 C 
BRANCH  12  13
ATOM     13  C   UNL     1     -14.378 -43.472  26.220  1.00  0.00     0.241 A 
ATOM     14  N   UNL     1     -14.480 -43.698  24.917  1.00  0.00    -0.108 NA
ATOM     15  O   UNL     1     -15.570 -42.966  26.712  1.00  0.00    -0.417 OA
ATOM     16  N   UNL     1     -15.750 -43.342  24.522  1.00  0.00    -0.107 NA
ATOM     17  C   UNL     1     -16.366 -42.916  25.601  1.00  0.00     0.248 A 
BRANCH  17  18
ATOM     18  C   UNL     1     -17.726 -42.417  25.769  1.00  0.00     0.039 A 
ATOM     19  C   UNL     1     -18.532 -42.076  24.670  1.00  0.00     0.015 A 
ATOM     20  C   UNL     1     -18.257 -42.269  27.061  1.00  0.00     0.015 A 
ATOM     21  C   UNL     1     -19.834 -41.599  24.859  1.00  0.00     0.021 A 
ATOM     22  C   UNL     1     -19.558 -41.793  27.252  1.00  0.00     0.021 A 
ATOM     23  C   UNL     1     -20.341 -41.460  26.149  1.00  0.00     0.041 A 
ATOM     24  Cl  UNL     1     -21.941 -40.874  26.381  1.00  0.00    -0.084 Cl
ENDBRANCH  17  18
ENDBRANCH  12  13
ENDBRANCH   1  12
TORSDOF 6
ENDMDL
MODEL 8
REMARK VINA RESULT:    -9.702      3.884      9.243
REMARK INTER + INTRA:         -13.333
REMARK INTER:                 -12.830
REMARK INTRA:                  -0.503
REMARK UNBOUND:                -0.512
REMARK SMILES COc1cc(/C=C/c2nnc(-c3ccc(Cl)cc3)o2)ccc1O
REMARK SMILES IDX 6 1 5 2 3 3 4 4 22 5 21 6 20 7 2 8 1 9 23 10 7 12 8 13 9 14
REMARK SMILES IDX 19 15 10 16 11 17 12 18 13 19 18 20 14 21 17 22 15 23 16 24
REMARK H PARENT 23 11
ROOT
ATOM      1  C   UNL     1     -14.313 -43.655  25.481  1.00  0.00     0.014 C 
ENDROOT
BRANCH   1   2
ATOM      2  C   UNL     1     -15.632 -43.169  25.050  1.00  0.00    -0.022 A 
ATOM      3  C   UNL     1     -17.845 -42.267  25.529  1.00  0.00     0.161 A 
ATOM      4  C   UNL     1     -16.590 -42.704  25.966  1.00  0.00     0.058 A 
ATOM      5  C   UNL     1     -18.136 -42.309  24.158  1.00  0.00     0.157 A 
ATOM      6  C   UNL     1     -17.201 -42.783  23.240  1.00  0.00     0.051 A 
ATOM      7  C   UNL     1     -15.953 -43.217  23.689  1.00  0.00     0.012 A 
BRANCH   3   8
ATOM      8  O   UNL     1     -18.841 -41.792  26.343  1.00  0.00    -0.493 OA
ATOM      9  C   UNL     1     -19.222 -42.591  27.453  1.00  0.00     0.278 C 
ENDBRANCH   3   8
BRANCH   5  10
ATOM     10  O   UNL     1     -19.360 -41.879  23.721  1.00  0.00    -0.504 OA
ATOM     11  H   UNL     1     -19.404 -40.913  23.796  1.00  0.00     0.293 HD
ENDBRANCH   5  10
ENDBRANCH   1   2
BRANCH   1  12
ATOM     12  C   UNL     1     -14.139 -44.758  26.226  1.00  0.00     0.071 C 
BRANCH  12  13
ATOM     13  C   UNL     1     -13.639 -44.679  27.554  1.00  0.00     0.241 A 
ATOM     14  N   UNL     1     -14.315 -44.418  28.665  1.00  0.00    -0.108 NA
ATOM     15  O   UNL     1     -12.300 -44.880  27.846  1.00  0.00    -0.417 OA
ATOM     16  N   UNL     1     -13.428 -44.443  29.718  1.00  0.00    -0.107 NA
ATOM     17  C   UNL     1     -12.251 -44.717  29.202  1.00  0.00     0.248 A 
BRANCH  17  18
ATOM     18  C   UNL     1     -10.955 -44.866  29.853  1.00  0.00     0.039 A 
ATOM     19  C   UNL     1      -9.927 -43.924  29.683  1.00  0.00     0.015 A 
ATOM     20  C   UNL     1     -10.715 -45.979  30.676  1.00  0.00     0.015 A 
ATOM     21  C   UNL     1      -8.692 -44.091  30.319  1.00  0.00     0.021 A 
ATOM     22  C   UNL     1      -9.481 -46.147  31.313  1.00  0.00     0.021 A 
ATOM     23  C   UNL     1      -8.474 -45.202  31.131  1.00  0.00     0.041 A 
ATOM     24  Cl  UNL     1      -6.956 -45.406  31.913  1.00  0.00    -0.084 Cl
ENDBRANCH  17  18
ENDBRANCH  12  13
ENDBRANCH   1  12
TORSDOF 6
ENDMDL
MODEL 9
REMARK VINA RESULT:    -9.541      3.866      9.029
REMARK INTER + INTRA:         -13.121
REMARK INTER:                 -12.682
REMARK INTRA:                  -0.439
REMARK UNBOUND:                -0.512
REMARK SMILES COc1cc(/C=C/c2nnc(-c3ccc(Cl)cc3)o2)ccc1O
REMARK SMILES IDX 6 1 5 2 3 3 4 4 22 5 21 6 20 7 2 8 1 9 23 10 7 12 8 13 9 14
REMARK SMILES IDX 19 15 10 16 11 17 12 18 13 19 18 20 14 21 17 22 15 23 16 24
REMARK H PARENT 23 11
ROOT
ATOM      1  C   UNL     1     -13.850 -43.695  26.774  1.00  0.00     0.014 C 
ENDROOT
BRANCH   1   2
ATOM      2  C   UNL     1     -14.943 -43.401  25.837  1.00  0.00    -0.022 A 
ATOM      3  C   UNL     1     -17.171 -42.542  25.344  1.00  0.00     0.161 A 
ATOM      4  C   UNL     1     -16.137 -42.790  26.255  1.00  0.00     0.058 A 
ATOM      5  C   UNL     1     -16.998 -42.922  24.006  1.00  0.00     0.157 A 
ATOM      6  C   UNL     1     -15.825 -43.544  23.581  1.00  0.00     0.051 A 
ATOM      7  C   UNL     1     -14.803 -43.787  24.500  1.00  0.00     0.012 A 
BRANCH   3   8
ATOM      8  O   UNL     1     -18.367 -41.947  25.654  1.00  0.00    -0.493 OA
ATOM      9  C   UNL     1     -18.940 -42.240  26.919  1.00  0.00     0.278 C 
ENDBRANCH   3   8
BRANCH   5  10
ATOM     10  O   UNL     1     -18.002 -42.679  23.107  1.00  0.00    -0.504 OA
ATOM     11  H   UNL     1     -17.864 -43.228  22.320  1.00  0.00     0.293 HD
ENDBRANCH   5  10
ENDBRANCH   1   2
BRANCH   1  12
ATOM     12  C   UNL     1     -13.481 -44.941  27.114  1.00  0.00     0.071 C 
BRANCH  12  13
ATOM     13  C   UNL     1     -12.499 -45.172  28.114  1.00  0.00     0.241 A 
ATOM     14  N   UNL     1     -11.665 -46.199  28.215  1.00  0.00    -0.108 NA
ATOM     15  O   UNL     1     -12.297 -44.288  29.160  1.00  0.00    -0.417 OA
ATOM     16  N   UNL     1     -10.891 -46.009  29.339  1.00  0.00    -0.107 NA
ATOM     17  C   UNL     1     -11.288 -44.875  29.872  1.00  0.00     0.248 A 
BRANCH  17  18
ATOM     18  C   UNL     1     -10.818 -44.188  31.069  1.00  0.00     0.039 A 
ATOM     19  C   UNL     1      -9.482 -44.270  31.496  1.00  0.00     0.015 A 
ATOM     20  C   UNL     1     -11.717 -43.420  31.826  1.00  0.00     0.015 A 
ATOM     21  C   UNL     1      -9.058 -43.600  32.649  1.00  0.00     0.021 A 
ATOM     22  C   UNL     1     -11.295 -42.749  32.979  1.00  0.00     0.021 A 
ATOM     23  C   UNL     1      -9.966 -42.843  33.385  1.00  0.00     0.041 A 
ATOM     24  Cl  UNL     1      -9.443 -42.021  34.802  1.00  0.00    -0.084 Cl
ENDBRANCH  17  18
ENDBRANCH  12  13
ENDBRANCH   1  12
TORSDOF 6
ENDMDL
