MODEL 1
REMARK VINA RESULT:    -9.129      0.000      0.000
REMARK INTER + INTRA:         -13.891
REMARK INTER:                 -12.599
REMARK INTRA:                  -1.293
REMARK UNBOUND:                -1.293
REMARK SMILES COc1ccc([C@H]2CC(c3cc(F)ccc3F)=NN2c2ccc(S(N)(=O)=O)cc2)cc1OC
REMARK SMILES IDX 20 1 21 2 22 3 23 4 28 5 29 6 19 7 7 8 8 9 9 10 18 11 6 12
REMARK SMILES IDX 3 13 4 14 31 15 5 16 30 17 2 18 1 19 32 20 33 21 10 22 11 23
REMARK SMILES IDX 16 24 12 25 15 26 14 27 17 28 13 29 24 30 26 31 27 32 25 33
REMARK H PARENT 25 34 25 35
ROOT
ATOM      1  C   UNL     1     -18.715 -42.005  24.283  1.00  0.00     0.060 A 
ATOM      2  C   UNL     1     -18.649 -42.039  25.687  1.00  0.00     0.029 A 
ATOM      3  C   UNL     1     -17.485 -42.429  26.360  1.00  0.00     0.024 A 
ATOM      4  C   UNL     1     -16.354 -42.790  25.629  1.00  0.00     0.082 A 
ATOM      5  C   UNL     1     -16.386 -42.782  24.237  1.00  0.00     0.024 A 
ATOM      6  C   UNL     1     -17.557 -42.388  23.581  1.00  0.00     0.029 A 
ENDROOT
BRANCH   1   7
ATOM      7  N   UNL     1     -19.865 -41.618  23.598  1.00  0.00    -0.257 N 
ATOM      8  C   UNL     1     -21.187 -42.236  23.711  1.00  0.00     0.144 C 
ATOM      9  C   UNL     1     -21.930 -41.645  22.512  1.00  0.00     0.091 C 
ATOM     10  C   UNL     1     -20.999 -40.517  22.147  1.00  0.00     0.074 C 
ATOM     11  N   UNL     1     -19.846 -40.555  22.740  1.00  0.00    -0.176 NA
BRANCH   8  12
ATOM     12  C   UNL     1     -21.905 -41.908  25.011  1.00  0.00    -0.019 A 
ATOM     13  C   UNL     1     -23.282 -41.382  27.437  1.00  0.00     0.160 A 
ATOM     14  C   UNL     1     -22.808 -40.337  26.634  1.00  0.00     0.051 A 
ATOM     15  C   UNL     1     -23.094 -42.704  27.000  1.00  0.00     0.161 A 
ATOM     16  C   UNL     1     -22.135 -40.595  25.435  1.00  0.00     0.010 A 
ATOM     17  C   UNL     1     -22.396 -42.951  25.807  1.00  0.00     0.056 A 
BRANCH  13  18
ATOM     18  O   UNL     1     -23.910 -41.181  28.637  1.00  0.00    -0.493 OA
ATOM     19  C   UNL     1     -24.666 -39.988  28.803  1.00  0.00     0.278 C 
ENDBRANCH  13  18
BRANCH  15  20
ATOM     20  O   UNL     1     -23.485 -43.860  27.628  1.00  0.00    -0.493 OA
ATOM     21  C   UNL     1     -22.461 -44.701  28.143  1.00  0.00     0.278 C 
ENDBRANCH  15  20
ENDBRANCH   8  12
BRANCH  10  22
ATOM     22  C   UNL     1     -21.384 -39.486  21.159  1.00  0.00     0.037 A 
ATOM     23  C   UNL     1     -22.545 -38.726  21.342  1.00  0.00     0.052 A 
ATOM     24  C   UNL     1     -20.595 -39.257  20.025  1.00  0.00     0.132 A 
ATOM     25  C   UNL     1     -22.894 -37.764  20.397  1.00  0.00     0.124 A 
ATOM     26  C   UNL     1     -20.954 -38.289  19.085  1.00  0.00     0.043 A 
ATOM     27  C   UNL     1     -22.111 -37.537  19.271  1.00  0.00     0.042 A 
ATOM     28  F   UNL     1     -19.461 -39.938  19.807  1.00  0.00    -0.206 F 
ATOM     29  F   UNL     1     -24.008 -37.043  20.579  1.00  0.00    -0.207 F 
ENDBRANCH  10  22
ENDBRANCH   1   7
BRANCH   4  30
ATOM     30  S   UNL     1     -14.893 -43.312  26.472  1.00  0.00     0.238 S 
ATOM     31  O   UNL     1     -13.952 -42.216  26.529  1.00  0.00    -0.207 OA
ATOM     32  O   UNL     1     -14.518 -44.628  26.009  1.00  0.00    -0.207 OA
BRANCH  30  33
ATOM     33  N   UNL     1     -15.450 -43.521  28.042  1.00  0.00    -0.225 NA
ATOM     34  H   UNL     1     -14.763 -43.160  28.703  1.00  0.00     0.137 HD
ATOM     35  H   UNL     1     -16.377 -43.107  28.137  1.00  0.00     0.137 HD
ENDBRANCH  30  33
ENDBRANCH   4  30
TORSDOF 7
ENDMDL
MODEL 2
REMARK VINA RESULT:    -8.955      4.149      7.402
REMARK INTER + INTRA:         -13.651
REMARK INTER:                 -12.661
REMARK INTRA:                  -0.989
REMARK UNBOUND:                -1.293
REMARK SMILES COc1ccc([C@H]2CC(c3cc(F)ccc3F)=NN2c2ccc(S(N)(=O)=O)cc2)cc1OC
REMARK SMILES IDX 20 1 21 2 22 3 23 4 28 5 29 6 19 7 7 8 8 9 9 10 18 11 6 12
REMARK SMILES IDX 3 13 4 14 31 15 5 16 30 17 2 18 1 19 32 20 33 21 10 22 11 23
REMARK SMILES IDX 16 24 12 25 15 26 14 27 17 28 13 29 24 30 26 31 27 32 25 33
REMARK H PARENT 25 34 25 35
ROOT
ATOM      1  C   UNL     1     -20.076 -40.902  23.576  1.00  0.00     0.060 A 
ATOM      2  C   UNL     1     -21.398 -40.452  23.739  1.00  0.00     0.029 A 
ATOM      3  C   UNL     1     -22.091 -39.813  22.703  1.00  0.00     0.024 A 
ATOM      4  C   UNL     1     -21.465 -39.620  21.471  1.00  0.00     0.082 A 
ATOM      5  C   UNL     1     -20.152 -40.040  21.278  1.00  0.00     0.024 A 
ATOM      6  C   UNL     1     -19.476 -40.678  22.323  1.00  0.00     0.029 A 
ENDROOT
BRANCH   1   7
ATOM      7  N   UNL     1     -19.373 -41.540  24.596  1.00  0.00    -0.257 N 
ATOM      8  C   UNL     1     -19.876 -41.834  25.938  1.00  0.00     0.144 C 
ATOM      9  C   UNL     1     -18.599 -42.204  26.694  1.00  0.00     0.091 C 
ATOM     10  C   UNL     1     -17.650 -42.402  25.540  1.00  0.00     0.074 C 
ATOM     11  N   UNL     1     -18.098 -41.987  24.396  1.00  0.00    -0.176 NA
BRANCH   8  12
ATOM     12  C   UNL     1     -20.881 -42.976  25.977  1.00  0.00    -0.019 A 
ATOM     13  C   UNL     1     -22.798 -45.065  26.122  1.00  0.00     0.160 A 
ATOM     14  C   UNL     1     -21.579 -45.248  25.458  1.00  0.00     0.051 A 
ATOM     15  C   UNL     1     -23.043 -43.832  26.751  1.00  0.00     0.161 A 
ATOM     16  C   UNL     1     -20.631 -44.221  25.391  1.00  0.00     0.010 A 
ATOM     17  C   UNL     1     -22.093 -42.802  26.658  1.00  0.00     0.056 A 
BRANCH  13  18
ATOM     18  O   UNL     1     -23.773 -46.024  26.180  1.00  0.00    -0.493 OA
ATOM     19  C   UNL     1     -23.973 -46.842  25.035  1.00  0.00     0.278 C 
ENDBRANCH  13  18
BRANCH  15  20
ATOM     20  O   UNL     1     -24.159 -43.455  27.455  1.00  0.00    -0.493 OA
ATOM     21  C   UNL     1     -24.317 -42.069  27.732  1.00  0.00     0.278 C 
ENDBRANCH  15  20
ENDBRANCH   8  12
BRANCH  10  22
ATOM     22  C   UNL     1     -16.308 -42.991  25.735  1.00  0.00     0.037 A 
ATOM     23  C   UNL     1     -15.870 -43.353  27.014  1.00  0.00     0.052 A 
ATOM     24  C   UNL     1     -15.453 -43.191  24.644  1.00  0.00     0.132 A 
ATOM     25  C   UNL     1     -14.600 -43.900  27.178  1.00  0.00     0.124 A 
ATOM     26  C   UNL     1     -14.182 -43.741  24.820  1.00  0.00     0.043 A 
ATOM     27  C   UNL     1     -13.751 -44.098  26.095  1.00  0.00     0.042 A 
ATOM     28  F   UNL     1     -15.825 -42.884  23.393  1.00  0.00    -0.206 F 
ATOM     29  F   UNL     1     -14.189 -44.242  28.406  1.00  0.00    -0.207 F 
ENDBRANCH  10  22
ENDBRANCH   1   7
BRANCH   4  30
ATOM     30  S   UNL     1     -22.323 -38.788  20.171  1.00  0.00     0.238 S 
ATOM     31  O   UNL     1     -23.389 -39.632  19.680  1.00  0.00    -0.207 OA
ATOM     32  O   UNL     1     -21.365 -38.163  19.289  1.00  0.00    -0.207 OA
BRANCH  30  33
ATOM     33  N   UNL     1     -23.074 -37.533  20.994  1.00  0.00    -0.225 NA
ATOM     34  H   UNL     1     -24.087 -37.644  20.945  1.00  0.00     0.137 HD
ATOM     35  H   UNL     1     -22.708 -37.475  21.944  1.00  0.00     0.137 HD
ENDBRANCH  30  33
ENDBRANCH   4  30
TORSDOF 7
ENDMDL
MODEL 3
REMARK VINA RESULT:    -8.909      4.396      7.427
REMARK INTER + INTRA:         -13.588
REMARK INTER:                 -12.603
REMARK INTRA:                  -0.985
REMARK UNBOUND:                -1.293
REMARK SMILES COc1ccc([C@H]2CC(c3cc(F)ccc3F)=NN2c2ccc(S(N)(=O)=O)cc2)cc1OC
REMARK SMILES IDX 20 1 21 2 22 3 23 4 28 5 29 6 19 7 7 8 8 9 9 10 18 11 6 12
REMARK SMILES IDX 3 13 4 14 31 15 5 16 30 17 2 18 1 19 32 20 33 21 10 22 11 23
REMARK SMILES IDX 16 24 12 25 15 26 14 27 17 28 13 29 24 30 26 31 27 32 25 33
REMARK H PARENT 25 34 25 35
ROOT
ATOM      1  C   UNL     1     -20.278 -40.603  23.147  1.00  0.00     0.060 A 
ATOM      2  C   UNL     1     -21.566 -40.072  23.334  1.00  0.00     0.029 A 
ATOM      3  C   UNL     1     -22.229 -39.372  22.319  1.00  0.00     0.024 A 
ATOM      4  C   UNL     1     -21.608 -39.197  21.083  1.00  0.00     0.082 A 
ATOM      5  C   UNL     1     -20.327 -39.697  20.864  1.00  0.00     0.024 A 
ATOM      6  C   UNL     1     -19.680 -40.395  21.889  1.00  0.00     0.029 A 
ENDROOT
BRANCH   1   7
ATOM      7  N   UNL     1     -19.604 -41.302  24.145  1.00  0.00    -0.257 N 
ATOM      8  C   UNL     1     -20.129 -41.636  25.470  1.00  0.00     0.144 C 
ATOM      9  C   UNL     1     -18.872 -42.074  26.222  1.00  0.00     0.091 C 
ATOM     10  C   UNL     1     -17.917 -42.253  25.069  1.00  0.00     0.074 C 
ATOM     11  N   UNL     1     -18.341 -41.779  23.939  1.00  0.00    -0.176 NA
BRANCH   8  12
ATOM     12  C   UNL     1     -21.168 -42.747  25.453  1.00  0.00    -0.019 A 
ATOM     13  C   UNL     1     -23.158 -44.772  25.482  1.00  0.00     0.160 A 
ATOM     14  C   UNL     1     -21.854 -45.047  25.052  1.00  0.00     0.051 A 
ATOM     15  C   UNL     1     -23.457 -43.476  25.936  1.00  0.00     0.161 A 
ATOM     16  C   UNL     1     -20.871 -44.051  25.044  1.00  0.00     0.010 A 
ATOM     17  C   UNL     1     -22.469 -42.479  25.901  1.00  0.00     0.056 A 
BRANCH  13  18
ATOM     18  O   UNL     1     -24.164 -45.701  25.471  1.00  0.00    -0.493 OA
ATOM     19  C   UNL     1     -23.841 -47.028  25.076  1.00  0.00     0.278 C 
ENDBRANCH  13  18
BRANCH  15  20
ATOM     20  O   UNL     1     -24.659 -43.006  26.402  1.00  0.00    -0.493 OA
ATOM     21  C   UNL     1     -24.637 -42.218  27.586  1.00  0.00     0.278 C 
ENDBRANCH  15  20
ENDBRANCH   8  12
BRANCH  10  22
ATOM     22  C   UNL     1     -16.595 -42.890  25.251  1.00  0.00     0.037 A 
ATOM     23  C   UNL     1     -15.988 -43.582  24.197  1.00  0.00     0.052 A 
ATOM     24  C   UNL     1     -15.931 -42.812  26.483  1.00  0.00     0.132 A 
ATOM     25  C   UNL     1     -14.745 -44.180  24.391  1.00  0.00     0.124 A 
ATOM     26  C   UNL     1     -14.686 -43.415  26.665  1.00  0.00     0.043 A 
ATOM     27  C   UNL     1     -14.088 -44.104  25.613  1.00  0.00     0.042 A 
ATOM     28  F   UNL     1     -16.453 -42.146  27.522  1.00  0.00    -0.206 F 
ATOM     29  F   UNL     1     -14.173 -44.842  23.377  1.00  0.00    -0.207 F 
ENDBRANCH  10  22
ENDBRANCH   1   7
BRANCH   4  30
ATOM     30  S   UNL     1     -22.427 -38.289  19.809  1.00  0.00     0.238 S 
ATOM     31  O   UNL     1     -23.441 -39.121  19.201  1.00  0.00    -0.207 OA
ATOM     32  O   UNL     1     -21.447 -37.571  19.027  1.00  0.00    -0.207 OA
BRANCH  30  33
ATOM     33  N   UNL     1     -23.256 -37.123  20.687  1.00  0.00    -0.225 NA
ATOM     34  H   UNL     1     -22.928 -37.120  21.653  1.00  0.00     0.137 HD
ATOM     35  H   UNL     1     -23.182 -36.221  20.219  1.00  0.00     0.137 HD
ENDBRANCH  30  33
ENDBRANCH   4  30
TORSDOF 7
ENDMDL
MODEL 4
REMARK VINA RESULT:    -8.895      7.268     10.167
REMARK INTER + INTRA:         -13.568
REMARK INTER:                 -12.268
REMARK INTRA:                  -1.299
REMARK UNBOUND:                -1.293
REMARK SMILES COc1ccc([C@H]2CC(c3cc(F)ccc3F)=NN2c2ccc(S(N)(=O)=O)cc2)cc1OC
REMARK SMILES IDX 20 1 21 2 22 3 23 4 28 5 29 6 19 7 7 8 8 9 9 10 18 11 6 12
REMARK SMILES IDX 3 13 4 14 31 15 5 16 30 17 2 18 1 19 32 20 33 21 10 22 11 23
REMARK SMILES IDX 16 24 12 25 15 26 14 27 17 28 13 29 24 30 26 31 27 32 25 33
REMARK H PARENT 25 34 25 35
ROOT
ATOM      1  C   UNL     1     -11.488 -44.563  30.115  1.00  0.00     0.060 A 
ATOM      2  C   UNL     1     -11.098 -45.660  30.904  1.00  0.00     0.029 A 
ATOM      3  C   UNL     1      -9.799 -45.775  31.414  1.00  0.00     0.024 A 
ATOM      4  C   UNL     1      -8.861 -44.779  31.144  1.00  0.00     0.082 A 
ATOM      5  C   UNL     1      -9.207 -43.685  30.355  1.00  0.00     0.024 A 
ATOM      6  C   UNL     1     -10.510 -43.585  29.855  1.00  0.00     0.029 A 
ENDROOT
BRANCH   1   7
ATOM      7  N   UNL     1     -12.776 -44.432  29.601  1.00  0.00    -0.257 N 
ATOM      8  C   UNL     1     -14.025 -44.648  30.335  1.00  0.00     0.144 C 
ATOM      9  C   UNL     1     -15.060 -44.705  29.211  1.00  0.00     0.091 C 
ATOM     10  C   UNL     1     -14.250 -44.147  28.069  1.00  0.00     0.074 C 
ATOM     11  N   UNL     1     -12.980 -44.046  28.307  1.00  0.00    -0.176 NA
BRANCH   8  12
ATOM     12  C   UNL     1     -14.352 -43.537  31.320  1.00  0.00    -0.019 A 
ATOM     13  C   UNL     1     -14.894 -41.494  33.216  1.00  0.00     0.160 A 
ATOM     14  C   UNL     1     -15.851 -41.869  32.265  1.00  0.00     0.051 A 
ATOM     15  C   UNL     1     -13.667 -42.176  33.240  1.00  0.00     0.161 A 
ATOM     16  C   UNL     1     -15.587 -42.880  31.334  1.00  0.00     0.010 A 
ATOM     17  C   UNL     1     -13.404 -43.173  32.286  1.00  0.00     0.056 A 
BRANCH  13  18
ATOM     18  O   UNL     1     -15.091 -40.484  34.120  1.00  0.00    -0.493 OA
ATOM     19  C   UNL     1     -15.177 -40.830  35.497  1.00  0.00     0.278 C 
ENDBRANCH  13  18
BRANCH  15  20
ATOM     20  O   UNL     1     -12.607 -41.970  34.088  1.00  0.00    -0.493 OA
ATOM     21  C   UNL     1     -11.316 -42.338  33.620  1.00  0.00     0.278 C 
ENDBRANCH  15  20
ENDBRANCH   8  12
BRANCH  10  22
ATOM     22  C   UNL     1     -14.878 -43.790  26.778  1.00  0.00     0.037 A 
ATOM     23  C   UNL     1     -14.439 -44.381  25.587  1.00  0.00     0.052 A 
ATOM     24  C   UNL     1     -15.917 -42.852  26.727  1.00  0.00     0.132 A 
ATOM     25  C   UNL     1     -15.038 -44.026  24.381  1.00  0.00     0.124 A 
ATOM     26  C   UNL     1     -16.510 -42.504  25.512  1.00  0.00     0.043 A 
ATOM     27  C   UNL     1     -16.069 -43.095  24.331  1.00  0.00     0.042 A 
ATOM     28  F   UNL     1     -16.393 -42.269  27.836  1.00  0.00    -0.206 F 
ATOM     29  F   UNL     1     -14.611 -44.595  23.247  1.00  0.00    -0.207 F 
ENDBRANCH  10  22
ENDBRANCH   1   7
BRANCH   4  30
ATOM     30  S   UNL     1      -7.213 -44.933  31.758  1.00  0.00     0.238 S 
ATOM     31  O   UNL     1      -6.869 -46.333  31.866  1.00  0.00    -0.207 OA
ATOM     32  O   UNL     1      -7.020 -44.005  32.849  1.00  0.00    -0.207 OA
BRANCH  30  33
ATOM     33  N   UNL     1      -6.305 -44.334  30.480  1.00  0.00    -0.225 NA
ATOM     34  H   UNL     1      -6.238 -45.038  29.745  1.00  0.00     0.137 HD
ATOM     35  H   UNL     1      -6.691 -43.443  30.170  1.00  0.00     0.137 HD
ENDBRANCH  30  33
ENDBRANCH   4  30
TORSDOF 7
ENDMDL
MODEL 5
REMARK VINA RESULT:    -8.880      4.618      7.774
REMARK INTER + INTRA:         -13.548
REMARK INTER:                 -12.585
REMARK INTRA:                  -0.963
REMARK UNBOUND:                -1.293
REMARK SMILES COc1ccc([C@H]2CC(c3cc(F)ccc3F)=NN2c2ccc(S(N)(=O)=O)cc2)cc1OC
REMARK SMILES IDX 20 1 21 2 22 3 23 4 28 5 29 6 19 7 7 8 8 9 9 10 18 11 6 12
REMARK SMILES IDX 3 13 4 14 31 15 5 16 30 17 2 18 1 19 32 20 33 21 10 22 11 23
REMARK SMILES IDX 16 24 12 25 15 26 14 27 17 28 13 29 24 30 26 31 27 32 25 33
REMARK H PARENT 25 34 25 35
ROOT
ATOM      1  C   UNL     1     -20.155 -40.802  22.938  1.00  0.00     0.060 A 
ATOM      2  C   UNL     1     -19.686 -40.736  21.615  1.00  0.00     0.029 A 
ATOM      3  C   UNL     1     -20.338 -39.972  20.639  1.00  0.00     0.024 A 
ATOM      4  C   UNL     1     -21.480 -39.249  20.980  1.00  0.00     0.082 A 
ATOM      5  C   UNL     1     -21.983 -39.300  22.277  1.00  0.00     0.024 A 
ATOM      6  C   UNL     1     -21.318 -40.067  23.239  1.00  0.00     0.029 A 
ENDROOT
BRANCH   1   7
ATOM      7  N   UNL     1     -19.519 -41.556  23.921  1.00  0.00    -0.257 N 
ATOM      8  C   UNL     1     -20.167 -42.239  25.041  1.00  0.00     0.144 C 
ATOM      9  C   UNL     1     -18.984 -42.587  25.945  1.00  0.00     0.091 C 
ATOM     10  C   UNL     1     -17.839 -42.355  24.991  1.00  0.00     0.074 C 
ATOM     11  N   UNL     1     -18.166 -41.746  23.894  1.00  0.00    -0.176 NA
BRANCH   8  12
ATOM     12  C   UNL     1     -20.927 -43.493  24.634  1.00  0.00    -0.019 A 
ATOM     13  C   UNL     1     -22.401 -45.778  23.819  1.00  0.00     0.160 A 
ATOM     14  C   UNL     1     -21.619 -45.799  24.980  1.00  0.00     0.051 A 
ATOM     15  C   UNL     1     -22.473 -44.587  23.079  1.00  0.00     0.161 A 
ATOM     16  C   UNL     1     -20.897 -44.671  25.386  1.00  0.00     0.010 A 
ATOM     17  C   UNL     1     -21.726 -43.468  23.483  1.00  0.00     0.056 A 
BRANCH  13  18
ATOM     18  O   UNL     1     -23.092 -46.867  23.360  1.00  0.00    -0.493 OA
ATOM     19  C   UNL     1     -22.827 -48.128  23.962  1.00  0.00     0.278 C 
ENDBRANCH  13  18
BRANCH  15  20
ATOM     20  O   UNL     1     -23.182 -44.355  21.927  1.00  0.00    -0.493 OA
ATOM     21  C   UNL     1     -23.104 -43.052  21.364  1.00  0.00     0.278 C 
ENDBRANCH  15  20
ENDBRANCH   8  12
BRANCH  10  22
ATOM     22  C   UNL     1     -16.459 -42.767  25.326  1.00  0.00     0.037 A 
ATOM     23  C   UNL     1     -16.143 -43.212  26.614  1.00  0.00     0.052 A 
ATOM     24  C   UNL     1     -15.446 -42.713  24.359  1.00  0.00     0.132 A 
ATOM     25  C   UNL     1     -14.835 -43.590  26.911  1.00  0.00     0.124 A 
ATOM     26  C   UNL     1     -14.139 -43.094  24.668  1.00  0.00     0.043 A 
ATOM     27  C   UNL     1     -13.831 -43.536  25.952  1.00  0.00     0.042 A 
ATOM     28  F   UNL     1     -15.693 -42.315  23.104  1.00  0.00    -0.206 F 
ATOM     29  F   UNL     1     -14.542 -44.013  28.147  1.00  0.00    -0.207 F 
ENDBRANCH  10  22
ENDBRANCH   1   7
BRANCH   4  30
ATOM     30  S   UNL     1     -22.324 -38.308  19.746  1.00  0.00     0.238 S 
ATOM     31  O   UNL     1     -23.346 -39.125  19.132  1.00  0.00    -0.207 OA
ATOM     32  O   UNL     1     -21.360 -37.564  18.969  1.00  0.00    -0.207 OA
BRANCH  30  33
ATOM     33  N   UNL     1     -23.141 -37.170  20.672  1.00  0.00    -0.225 NA
ATOM     34  H   UNL     1     -22.846 -36.231  20.405  1.00  0.00     0.137 HD
ATOM     35  H   UNL     1     -24.146 -37.326  20.602  1.00  0.00     0.137 HD
ENDBRANCH  30  33
ENDBRANCH   4  30
TORSDOF 7
ENDMDL
MODEL 6
REMARK VINA RESULT:    -8.797      4.330      8.032
REMARK INTER + INTRA:         -13.433
REMARK INTER:                 -12.343
REMARK INTRA:                  -1.090
REMARK UNBOUND:                -1.293
REMARK SMILES COc1ccc([C@H]2CC(c3cc(F)ccc3F)=NN2c2ccc(S(N)(=O)=O)cc2)cc1OC
REMARK SMILES IDX 20 1 21 2 22 3 23 4 28 5 29 6 19 7 7 8 8 9 9 10 18 11 6 12
REMARK SMILES IDX 3 13 4 14 31 15 5 16 30 17 2 18 1 19 32 20 33 21 10 22 11 23
REMARK SMILES IDX 16 24 12 25 15 26 14 27 17 28 13 29 24 30 26 31 27 32 25 33
REMARK H PARENT 25 34 25 35
ROOT
ATOM      1  C   UNL     1     -22.045 -40.560  25.473  1.00  0.00     0.060 A 
ATOM      2  C   UNL     1     -23.059 -39.874  24.781  1.00  0.00     0.029 A 
ATOM      3  C   UNL     1     -24.101 -39.226  25.455  1.00  0.00     0.024 A 
ATOM      4  C   UNL     1     -24.142 -39.250  26.849  1.00  0.00     0.082 A 
ATOM      5  C   UNL     1     -23.163 -39.931  27.567  1.00  0.00     0.024 A 
ATOM      6  C   UNL     1     -22.128 -40.571  26.878  1.00  0.00     0.029 A 
ENDROOT
BRANCH   1   7
ATOM      7  N   UNL     1     -21.000 -41.208  24.818  1.00  0.00    -0.257 N 
ATOM      8  C   UNL     1     -21.061 -41.821  23.490  1.00  0.00     0.144 C 
ATOM      9  C   UNL     1     -19.778 -42.652  23.453  1.00  0.00     0.091 C 
ATOM     10  C   UNL     1     -19.044 -42.069  24.632  1.00  0.00     0.074 C 
ATOM     11  N   UNL     1     -19.763 -41.302  25.391  1.00  0.00    -0.176 NA
BRANCH   8  12
ATOM     12  C   UNL     1     -21.089 -40.811  22.353  1.00  0.00    -0.019 A 
ATOM     13  C   UNL     1     -21.168 -38.996  20.172  1.00  0.00     0.160 A 
ATOM     14  C   UNL     1     -20.431 -38.706  21.327  1.00  0.00     0.051 A 
ATOM     15  C   UNL     1     -21.842 -40.226  20.096  1.00  0.00     0.161 A 
ATOM     16  C   UNL     1     -20.387 -39.603  22.400  1.00  0.00     0.010 A 
ATOM     17  C   UNL     1     -21.809 -41.108  21.188  1.00  0.00     0.056 A 
BRANCH  13  18
ATOM     18  O   UNL     1     -21.275 -38.134  19.113  1.00  0.00    -0.493 OA
ATOM     19  C   UNL     1     -22.373 -37.232  19.096  1.00  0.00     0.278 C 
ENDBRANCH  13  18
BRANCH  15  20
ATOM     20  O   UNL     1     -22.605 -40.703  19.060  1.00  0.00    -0.493 OA
ATOM     21  C   UNL     1     -23.186 -41.991  19.217  1.00  0.00     0.278 C 
ENDBRANCH  15  20
ENDBRANCH   8  12
BRANCH  10  22
ATOM     22  C   UNL     1     -17.625 -42.394  24.898  1.00  0.00     0.037 A 
ATOM     23  C   UNL     1     -17.210 -42.761  26.183  1.00  0.00     0.052 A 
ATOM     24  C   UNL     1     -16.677 -42.335  23.869  1.00  0.00     0.132 A 
ATOM     25  C   UNL     1     -15.869 -43.058  26.415  1.00  0.00     0.124 A 
ATOM     26  C   UNL     1     -15.335 -42.634  24.113  1.00  0.00     0.043 A 
ATOM     27  C   UNL     1     -14.928 -42.998  25.394  1.00  0.00     0.042 A 
ATOM     28  F   UNL     1     -17.019 -42.009  22.615  1.00  0.00    -0.206 F 
ATOM     29  F   UNL     1     -15.480 -43.407  27.647  1.00  0.00    -0.207 F 
ENDBRANCH  10  22
ENDBRANCH   1   7
BRANCH   4  30
ATOM     30  S   UNL     1     -25.470 -38.461  27.703  1.00  0.00     0.238 S 
ATOM     31  O   UNL     1     -25.509 -38.928  29.070  1.00  0.00    -0.207 OA
ATOM     32  O   UNL     1     -26.643 -38.449  26.858  1.00  0.00    -0.207 OA
BRANCH  30  33
ATOM     33  N   UNL     1     -24.943 -36.868  27.776  1.00  0.00    -0.225 NA
ATOM     34  H   UNL     1     -24.165 -36.792  28.430  1.00  0.00     0.137 HD
ATOM     35  H   UNL     1     -24.732 -36.531  26.837  1.00  0.00     0.137 HD
ENDBRANCH  30  33
ENDBRANCH   4  30
TORSDOF 7
ENDMDL
MODEL 7
REMARK VINA RESULT:    -8.774      4.534      8.436
REMARK INTER + INTRA:         -13.401
REMARK INTER:                 -11.997
REMARK INTRA:                  -1.405
REMARK UNBOUND:                -1.293
REMARK SMILES COc1ccc([C@H]2CC(c3cc(F)ccc3F)=NN2c2ccc(S(N)(=O)=O)cc2)cc1OC
REMARK SMILES IDX 20 1 21 2 22 3 23 4 28 5 29 6 19 7 7 8 8 9 9 10 18 11 6 12
REMARK SMILES IDX 3 13 4 14 31 15 5 16 30 17 2 18 1 19 32 20 33 21 10 22 11 23
REMARK SMILES IDX 16 24 12 25 15 26 14 27 17 28 13 29 24 30 26 31 27 32 25 33
REMARK H PARENT 25 34 25 35
ROOT
ATOM      1  C   UNL     1     -23.282 -40.101  27.493  1.00  0.00     0.060 A 
ATOM      2  C   UNL     1     -24.186 -40.681  28.401  1.00  0.00     0.029 A 
ATOM      3  C   UNL     1     -25.166 -39.921  29.051  1.00  0.00     0.024 A 
ATOM      4  C   UNL     1     -25.262 -38.554  28.793  1.00  0.00     0.082 A 
ATOM      5  C   UNL     1     -24.376 -37.942  27.911  1.00  0.00     0.024 A 
ATOM      6  C   UNL     1     -23.403 -38.716  27.270  1.00  0.00     0.029 A 
ENDROOT
BRANCH   1   7
ATOM      7  N   UNL     1     -22.301 -40.842  26.838  1.00  0.00    -0.257 N 
ATOM      8  C   UNL     1     -22.469 -41.577  25.583  1.00  0.00     0.144 C 
ATOM      9  C   UNL     1     -21.213 -42.449  25.542  1.00  0.00     0.091 C 
ATOM     10  C   UNL     1     -20.385 -41.778  26.608  1.00  0.00     0.074 C 
ATOM     11  N   UNL     1     -21.031 -40.920  27.334  1.00  0.00    -0.176 NA
BRANCH   8  12
ATOM     12  C   UNL     1     -22.549 -40.680  24.357  1.00  0.00    -0.019 A 
ATOM     13  C   UNL     1     -22.605 -38.988  22.078  1.00  0.00     0.160 A 
ATOM     14  C   UNL     1     -23.782 -39.319  22.762  1.00  0.00     0.051 A 
ATOM     15  C   UNL     1     -21.384 -39.482  22.564  1.00  0.00     0.161 A 
ATOM     16  C   UNL     1     -23.754 -40.148  23.889  1.00  0.00     0.010 A 
ATOM     17  C   UNL     1     -21.370 -40.332  23.682  1.00  0.00     0.056 A 
BRANCH  13  18
ATOM     18  O   UNL     1     -22.585 -38.214  20.948  1.00  0.00    -0.493 OA
ATOM     19  C   UNL     1     -23.178 -38.742  19.768  1.00  0.00     0.278 C 
ENDBRANCH  13  18
BRANCH  15  20
ATOM     20  O   UNL     1     -20.128 -39.272  22.052  1.00  0.00    -0.493 OA
ATOM     21  C   UNL     1     -19.417 -40.409  21.580  1.00  0.00     0.278 C 
ENDBRANCH  15  20
ENDBRANCH   8  12
BRANCH  10  22
ATOM     22  C   UNL     1     -18.960 -42.121  26.810  1.00  0.00     0.037 A 
ATOM     23  C   UNL     1     -18.457 -42.333  28.099  1.00  0.00     0.052 A 
ATOM     24  C   UNL     1     -18.093 -42.236  25.716  1.00  0.00     0.132 A 
ATOM     25  C   UNL     1     -17.111 -42.649  28.269  1.00  0.00     0.124 A 
ATOM     26  C   UNL     1     -16.746 -42.553  25.898  1.00  0.00     0.043 A 
ATOM     27  C   UNL     1     -16.251 -42.762  27.183  1.00  0.00     0.042 A 
ATOM     28  F   UNL     1     -18.522 -42.065  24.458  1.00  0.00    -0.206 F 
ATOM     29  F   UNL     1     -16.637 -42.848  29.505  1.00  0.00    -0.207 F 
ENDBRANCH  10  22
ENDBRANCH   1   7
BRANCH   4  30
ATOM     30  S   UNL     1     -26.477 -37.585  29.633  1.00  0.00     0.238 S 
ATOM     31  O   UNL     1     -25.826 -36.723  30.592  1.00  0.00    -0.207 OA
ATOM     32  O   UNL     1     -27.598 -38.425  29.985  1.00  0.00    -0.207 OA
BRANCH  30  33
ATOM     33  N   UNL     1     -27.027 -36.577  28.408  1.00  0.00    -0.225 NA
ATOM     34  H   UNL     1     -27.429 -35.731  28.813  1.00  0.00     0.137 HD
ATOM     35  H   UNL     1     -26.276 -36.403  27.741  1.00  0.00     0.137 HD
ENDBRANCH  30  33
ENDBRANCH   4  30
TORSDOF 7
ENDMDL
MODEL 8
REMARK VINA RESULT:    -8.693      3.977      5.689
REMARK INTER + INTRA:         -13.289
REMARK INTER:                 -11.766
REMARK INTRA:                  -1.523
REMARK UNBOUND:                -1.293
REMARK SMILES COc1ccc([C@H]2CC(c3cc(F)ccc3F)=NN2c2ccc(S(N)(=O)=O)cc2)cc1OC
REMARK SMILES IDX 20 1 21 2 22 3 23 4 28 5 29 6 19 7 7 8 8 9 9 10 18 11 6 12
REMARK SMILES IDX 3 13 4 14 31 15 5 16 30 17 2 18 1 19 32 20 33 21 10 22 11 23
REMARK SMILES IDX 16 24 12 25 15 26 14 27 17 28 13 29 24 30 26 31 27 32 25 33
REMARK H PARENT 25 34 25 35
ROOT
ATOM      1  C   UNL     1     -18.888 -42.281  25.615  1.00  0.00     0.060 A 
ATOM      2  C   UNL     1     -18.151 -42.407  24.424  1.00  0.00     0.029 A 
ATOM      3  C   UNL     1     -16.774 -42.656  24.434  1.00  0.00     0.024 A 
ATOM      4  C   UNL     1     -16.106 -42.791  25.650  1.00  0.00     0.082 A 
ATOM      5  C   UNL     1     -16.799 -42.658  26.850  1.00  0.00     0.024 A 
ATOM      6  C   UNL     1     -18.176 -42.411  26.822  1.00  0.00     0.029 A 
ENDROOT
BRANCH   1   7
ATOM      7  N   UNL     1     -20.259 -42.034  25.624  1.00  0.00    -0.257 N 
ATOM      8  C   UNL     1     -21.202 -42.359  24.552  1.00  0.00     0.144 C 
ATOM      9  C   UNL     1     -22.446 -41.567  24.957  1.00  0.00     0.091 C 
ATOM     10  C   UNL     1     -22.096 -41.225  26.382  1.00  0.00     0.074 C 
ATOM     11  N   UNL     1     -20.863 -41.461  26.707  1.00  0.00    -0.176 NA
BRANCH   8  12
ATOM     12  C   UNL     1     -21.514 -43.844  24.444  1.00  0.00    -0.019 A 
ATOM     13  C   UNL     1     -22.163 -46.595  24.177  1.00  0.00     0.160 A 
ATOM     14  C   UNL     1     -21.484 -46.119  25.305  1.00  0.00     0.051 A 
ATOM     15  C   UNL     1     -22.552 -45.675  23.189  1.00  0.00     0.161 A 
ATOM     16  C   UNL     1     -21.169 -44.762  25.441  1.00  0.00     0.010 A 
ATOM     17  C   UNL     1     -22.211 -44.320  23.324  1.00  0.00     0.056 A 
BRANCH  13  18
ATOM     18  O   UNL     1     -22.458 -47.918  23.980  1.00  0.00    -0.493 OA
ATOM     19  C   UNL     1     -23.682 -48.413  24.506  1.00  0.00     0.278 C 
ENDBRANCH  13  18
BRANCH  15  20
ATOM     20  O   UNL     1     -23.227 -45.931  22.021  1.00  0.00    -0.493 OA
ATOM     21  C   UNL     1     -24.525 -45.369  21.881  1.00  0.00     0.278 C 
ENDBRANCH  15  20
ENDBRANCH   8  12
BRANCH  10  22
ATOM     22  C   UNL     1     -23.091 -40.632  27.302  1.00  0.00     0.037 A 
ATOM     23  C   UNL     1     -23.153 -39.245  27.482  1.00  0.00     0.052 A 
ATOM     24  C   UNL     1     -23.982 -41.449  28.009  1.00  0.00     0.132 A 
ATOM     25  C   UNL     1     -24.093 -38.707  28.358  1.00  0.00     0.124 A 
ATOM     26  C   UNL     1     -24.920 -40.898  28.884  1.00  0.00     0.043 A 
ATOM     27  C   UNL     1     -24.977 -39.518  29.060  1.00  0.00     0.042 A 
ATOM     28  F   UNL     1     -23.983 -42.781  27.861  1.00  0.00    -0.206 F 
ATOM     29  F   UNL     1     -24.145 -37.379  28.525  1.00  0.00    -0.207 F 
ENDBRANCH  10  22
ENDBRANCH   1   7
BRANCH   4  30
ATOM     30  S   UNL     1     -14.363 -43.075  25.669  1.00  0.00     0.238 S 
ATOM     31  O   UNL     1     -13.783 -42.435  26.828  1.00  0.00    -0.207 OA
ATOM     32  O   UNL     1     -13.833 -42.886  24.338  1.00  0.00    -0.207 OA
BRANCH  30  33
ATOM     33  N   UNL     1     -14.280 -44.725  25.965  1.00  0.00    -0.225 NA
ATOM     34  H   UNL     1     -14.448 -44.907  26.955  1.00  0.00     0.137 HD
ATOM     35  H   UNL     1     -14.912 -45.221  25.338  1.00  0.00     0.137 HD
ENDBRANCH  30  33
ENDBRANCH   4  30
TORSDOF 7
ENDMDL
MODEL 9
REMARK VINA RESULT:    -8.629      3.534      6.412
REMARK INTER + INTRA:         -13.201
REMARK INTER:                 -12.025
REMARK INTRA:                  -1.176
REMARK UNBOUND:                -1.293
REMARK SMILES COc1ccc([C@H]2CC(c3cc(F)ccc3F)=NN2c2ccc(S(N)(=O)=O)cc2)cc1OC
REMARK SMILES IDX 20 1 21 2 22 3 23 4 28 5 29 6 19 7 7 8 8 9 9 10 18 11 6 12
REMARK SMILES IDX 3 13 4 14 31 15 5 16 30 17 2 18 1 19 32 20 33 21 10 22 11 23
REMARK SMILES IDX 16 24 12 25 15 26 14 27 17 28 13 29 24 30 26 31 27 32 25 33
REMARK H PARENT 25 34 25 35
ROOT
ATOM      1  C   UNL     1     -18.686 -42.172  25.861  1.00  0.00     0.060 A 
ATOM      2  C   UNL     1     -17.954 -42.441  24.691  1.00  0.00     0.029 A 
ATOM      3  C   UNL     1     -16.607 -42.822  24.737  1.00  0.00     0.024 A 
ATOM      4  C   UNL     1     -15.967 -42.947  25.969  1.00  0.00     0.082 A 
ATOM      5  C   UNL     1     -16.656 -42.675  27.148  1.00  0.00     0.024 A 
ATOM      6  C   UNL     1     -18.001 -42.297  27.084  1.00  0.00     0.029 A 
ENDROOT
BRANCH   1   7
ATOM      7  N   UNL     1     -20.026 -41.793  25.833  1.00  0.00    -0.257 N 
ATOM      8  C   UNL     1     -20.651 -40.900  24.857  1.00  0.00     0.144 C 
ATOM      9  C   UNL     1     -21.997 -40.586  25.513  1.00  0.00     0.091 C 
ATOM     10  C   UNL     1     -22.034 -41.652  26.576  1.00  0.00     0.074 C 
ATOM     11  N   UNL     1     -20.912 -42.277  26.754  1.00  0.00    -0.176 NA
BRANCH   8  12
ATOM     12  C   UNL     1     -20.848 -41.534  23.488  1.00  0.00    -0.019 A 
ATOM     13  C   UNL     1     -21.195 -42.634  20.894  1.00  0.00     0.160 A 
ATOM     14  C   UNL     1     -21.747 -43.254  22.022  1.00  0.00     0.051 A 
ATOM     15  C   UNL     1     -20.491 -41.430  21.066  1.00  0.00     0.161 A 
ATOM     16  C   UNL     1     -21.582 -42.709  23.300  1.00  0.00     0.010 A 
ATOM     17  C   UNL     1     -20.313 -40.905  22.356  1.00  0.00     0.056 A 
BRANCH  13  18
ATOM     18  O   UNL     1     -21.294 -43.149  19.629  1.00  0.00    -0.493 OA
ATOM     19  C   UNL     1     -21.954 -44.398  19.468  1.00  0.00     0.278 C 
ENDBRANCH  13  18
BRANCH  15  20
ATOM     20  O   UNL     1     -19.885 -40.666  20.101  1.00  0.00    -0.493 OA
ATOM     21  C   UNL     1     -20.617 -39.559  19.589  1.00  0.00     0.278 C 
ENDBRANCH  15  20
ENDBRANCH   8  12
BRANCH  10  22
ATOM     22  C   UNL     1     -23.258 -41.917  27.364  1.00  0.00     0.037 A 
ATOM     23  C   UNL     1     -23.936 -40.868  27.995  1.00  0.00     0.052 A 
ATOM     24  C   UNL     1     -23.754 -43.220  27.493  1.00  0.00     0.132 A 
ATOM     25  C   UNL     1     -25.083 -41.138  28.738  1.00  0.00     0.124 A 
ATOM     26  C   UNL     1     -24.905 -43.479  28.239  1.00  0.00     0.043 A 
ATOM     27  C   UNL     1     -25.575 -42.432  28.866  1.00  0.00     0.042 A 
ATOM     28  F   UNL     1     -23.159 -44.261  26.894  1.00  0.00    -0.206 F 
ATOM     29  F   UNL     1     -25.725 -40.129  29.340  1.00  0.00    -0.207 F 
ENDBRANCH  10  22
ENDBRANCH   1   7
BRANCH   4  30
ATOM     30  S   UNL     1     -14.261 -43.398  26.031  1.00  0.00     0.238 S 
ATOM     31  O   UNL     1     -14.146 -44.833  26.158  1.00  0.00    -0.207 OA
ATOM     32  O   UNL     1     -13.557 -42.487  26.905  1.00  0.00    -0.207 OA
BRANCH  30  33
ATOM     33  N   UNL     1     -13.745 -43.031  24.476  1.00  0.00    -0.225 NA
ATOM     34  H   UNL     1     -14.066 -42.099  24.217  1.00  0.00     0.137 HD
ATOM     35  H   UNL     1     -12.736 -43.158  24.408  1.00  0.00     0.137 HD
ENDBRANCH  30  33
ENDBRANCH   4  30
TORSDOF 7
ENDMDL
