MODEL 1
REMARK VINA RESULT:    -9.612      0.000      0.000
REMARK INTER + INTRA:         -16.285
REMARK INTER:                 -15.511
REMARK INTRA:                  -0.773
REMARK UNBOUND:                -0.773
REMARK SMILES CCOCC[n+]1ccc(CCC(O)=C2Cc3cc(OC)c(OC)cc3S2)cc1
REMARK SMILES IDX 9 1 8 2 7 3 6 4 28 5 27 6 10 7 11 8 12 9 13 10 14 12 15 13
REMARK SMILES IDX 26 14 16 15 25 16 17 17 24 18 18 19 21 20 19 21 20 22 22 23
REMARK SMILES IDX 23 24 5 25 4 26 3 27 2 28 1 29
REMARK H PARENT 13 11
ROOT
ATOM      1  C   UNL     1     -14.449 -43.827  26.230  1.00  0.00    -0.036 A 
ATOM      2  C   UNL     1     -15.558 -43.074  26.622  1.00  0.00     0.074 A 
ATOM      3  C   UNL     1     -16.430 -42.574  25.663  1.00  0.00     0.308 A 
ATOM      4  N   UNL     1     -16.222 -42.815  24.348  1.00  0.00    -0.203 N 
ATOM      5  C   UNL     1     -15.178 -43.574  23.946  1.00  0.00     0.308 A 
ATOM      6  C   UNL     1     -14.278 -44.094  24.872  1.00  0.00     0.074 A 
ENDROOT
BRANCH   1   7
ATOM      7  C   UNL     1     -13.413 -44.254  27.249  1.00  0.00     0.044 C 
BRANCH   7   8
ATOM      8  C   UNL     1     -13.248 -45.784  27.357  1.00  0.00     0.080 C 
BRANCH   8   9
ATOM      9  C   UNL     1     -12.106 -46.181  28.273  1.00  0.00     0.103 C 
BRANCH   9  10
ATOM     10  O   UNL     1     -11.112 -46.877  27.603  1.00  0.00    -0.511 OA
ATOM     11  H   UNL     1     -11.399 -47.053  26.689  1.00  0.00     0.293 HD
ENDBRANCH   9  10
BRANCH   9  12
ATOM     12  C   UNL     1     -12.059 -45.984  29.608  1.00  0.00     0.032 C 
ATOM     13  C   UNL     1     -13.271 -45.731  30.492  1.00  0.00     0.083 C 
ATOM     14  S   UNL     1     -10.567 -45.624  30.478  1.00  0.00    -0.090 SA
ATOM     15  C   UNL     1     -12.834 -44.658  31.458  1.00  0.00    -0.025 A 
ATOM     16  C   UNL     1     -11.446 -44.530  31.563  1.00  0.00     0.020 A 
ATOM     17  C   UNL     1     -13.678 -43.810  32.173  1.00  0.00     0.055 A 
ATOM     18  C   UNL     1     -10.874 -43.556  32.359  1.00  0.00     0.066 A 
ATOM     19  C   UNL     1     -13.120 -42.799  32.967  1.00  0.00     0.161 A 
ATOM     20  C   UNL     1     -11.715 -42.686  33.058  1.00  0.00     0.161 A 
BRANCH  19  21
ATOM     21  O   UNL     1     -13.861 -41.844  33.612  1.00  0.00    -0.493 OA
ATOM     22  C   UNL     1     -15.199 -41.651  33.166  1.00  0.00     0.278 C 
ENDBRANCH  19  21
BRANCH  20  23
ATOM     23  O   UNL     1     -11.062 -41.679  33.730  1.00  0.00    -0.493 OA
ATOM     24  C   UNL     1      -9.865 -42.121  34.374  1.00  0.00     0.278 C 
ENDBRANCH  20  23
ENDBRANCH   9  12
ENDBRANCH   8   9
ENDBRANCH   7   8
ENDBRANCH   1   7
BRANCH   4  25
ATOM     25  C   UNL     1     -17.138 -42.212  23.343  1.00  0.00     0.385 C 
BRANCH  25  26
ATOM     26  C   UNL     1     -16.347 -41.302  22.408  1.00  0.00     0.233 C 
BRANCH  26  27
ATOM     27  O   UNL     1     -17.264 -40.492  21.667  1.00  0.00    -0.375 OA
BRANCH  27  28
ATOM     28  C   UNL     1     -18.630 -40.699  22.039  1.00  0.00     0.157 C 
ATOM     29  C   UNL     1     -19.575 -40.221  20.951  1.00  0.00     0.035 C 
ENDBRANCH  27  28
ENDBRANCH  26  27
ENDBRANCH  25  26
ENDBRANCH   4  25
TORSDOF 11
ENDMDL
MODEL 2
REMARK VINA RESULT:    -9.323      1.512      1.996
REMARK INTER + INTRA:         -15.820
REMARK INTER:                 -14.958
REMARK INTRA:                  -0.862
REMARK UNBOUND:                -0.773
REMARK SMILES CCOCC[n+]1ccc(CCC(O)=C2Cc3cc(OC)c(OC)cc3S2)cc1
REMARK SMILES IDX 9 1 8 2 7 3 6 4 28 5 27 6 10 7 11 8 12 9 13 10 14 12 15 13
REMARK SMILES IDX 26 14 16 15 25 16 17 17 24 18 18 19 21 20 19 21 20 22 22 23
REMARK SMILES IDX 23 24 5 25 4 26 3 27 2 28 1 29
REMARK H PARENT 13 11
ROOT
ATOM      1  C   UNL     1     -14.271 -43.580  26.426  1.00  0.00    -0.036 A 
ATOM      2  C   UNL     1     -14.294 -43.632  25.030  1.00  0.00     0.074 A 
ATOM      3  C   UNL     1     -15.442 -43.263  24.342  1.00  0.00     0.308 A 
ATOM      4  N   UNL     1     -16.542 -42.845  25.009  1.00  0.00    -0.203 N 
ATOM      5  C   UNL     1     -16.532 -42.749  26.358  1.00  0.00     0.308 A 
ATOM      6  C   UNL     1     -15.404 -43.109  27.089  1.00  0.00     0.074 A 
ENDROOT
BRANCH   1   7
ATOM      7  C   UNL     1     -13.080 -44.116  27.194  1.00  0.00     0.044 C 
BRANCH   7   8
ATOM      8  C   UNL     1     -13.109 -45.645  27.390  1.00  0.00     0.080 C 
BRANCH   8   9
ATOM      9  C   UNL     1     -12.053 -46.125  28.368  1.00  0.00     0.103 C 
BRANCH   9  10
ATOM     10  O   UNL     1     -11.072 -46.885  27.752  1.00  0.00    -0.511 OA
ATOM     11  H   UNL     1     -10.541 -46.316  27.167  1.00  0.00     0.293 HD
ENDBRANCH   9  10
BRANCH   9  12
ATOM     12  C   UNL     1     -12.073 -45.938  29.705  1.00  0.00     0.032 C 
ATOM     13  C   UNL     1     -13.319 -45.627  30.521  1.00  0.00     0.083 C 
ATOM     14  S   UNL     1     -10.616 -45.661  30.662  1.00  0.00    -0.090 SA
ATOM     15  C   UNL     1     -12.883 -44.583  31.519  1.00  0.00    -0.025 A 
ATOM     16  C   UNL     1     -11.498 -44.529  31.705  1.00  0.00     0.020 A 
ATOM     17  C   UNL     1     -13.722 -43.697  32.192  1.00  0.00     0.055 A 
ATOM     18  C   UNL     1     -10.924 -43.590  32.541  1.00  0.00     0.066 A 
ATOM     19  C   UNL     1     -13.159 -42.721  33.026  1.00  0.00     0.161 A 
ATOM     20  C   UNL     1     -11.757 -42.682  33.198  1.00  0.00     0.161 A 
BRANCH  19  21
ATOM     21  O   UNL     1     -13.885 -41.733  33.635  1.00  0.00    -0.493 OA
ATOM     22  C   UNL     1     -15.266 -41.642  33.301  1.00  0.00     0.278 C 
ENDBRANCH  19  21
BRANCH  20  23
ATOM     23  O   UNL     1     -11.092 -41.714  33.914  1.00  0.00    -0.493 OA
ATOM     24  C   UNL     1      -9.830 -42.158  34.416  1.00  0.00     0.278 C 
ENDBRANCH  20  23
ENDBRANCH   9  12
ENDBRANCH   8   9
ENDBRANCH   7   8
ENDBRANCH   1   7
BRANCH   4  25
ATOM     25  C   UNL     1     -17.777 -42.518  24.246  1.00  0.00     0.385 C 
BRANCH  25  26
ATOM     26  C   UNL     1     -19.005 -42.829  25.098  1.00  0.00     0.233 C 
BRANCH  26  27
ATOM     27  O   UNL     1     -20.162 -42.286  24.456  1.00  0.00    -0.375 OA
BRANCH  27  28
ATOM     28  C   UNL     1     -20.783 -41.236  25.203  1.00  0.00     0.157 C 
ATOM     29  C   UNL     1     -20.480 -41.362  26.685  1.00  0.00     0.035 C 
ENDBRANCH  27  28
ENDBRANCH  26  27
ENDBRANCH  25  26
ENDBRANCH   4  25
TORSDOF 11
ENDMDL
MODEL 3
REMARK VINA RESULT:    -8.955      2.017      2.801
REMARK INTER + INTRA:         -15.225
REMARK INTER:                 -14.538
REMARK INTRA:                  -0.687
REMARK UNBOUND:                -0.773
REMARK SMILES CCOCC[n+]1ccc(CCC(O)=C2Cc3cc(OC)c(OC)cc3S2)cc1
REMARK SMILES IDX 9 1 8 2 7 3 6 4 28 5 27 6 10 7 11 8 12 9 13 10 14 12 15 13
REMARK SMILES IDX 26 14 16 15 25 16 17 17 24 18 18 19 21 20 19 21 20 22 22 23
REMARK SMILES IDX 23 24 5 25 4 26 3 27 2 28 1 29
REMARK H PARENT 13 11
ROOT
ATOM      1  C   UNL     1     -14.848 -43.412  25.957  1.00  0.00    -0.036 A 
ATOM      2  C   UNL     1     -16.064 -42.822  26.309  1.00  0.00     0.074 A 
ATOM      3  C   UNL     1     -17.019 -42.568  25.332  1.00  0.00     0.308 A 
ATOM      4  N   UNL     1     -16.786 -42.893  24.039  1.00  0.00    -0.203 N 
ATOM      5  C   UNL     1     -15.633 -43.499  23.680  1.00  0.00     0.308 A 
ATOM      6  C   UNL     1     -14.648 -43.772  24.625  1.00  0.00     0.074 A 
ENDROOT
BRANCH   1   7
ATOM      7  C   UNL     1     -13.744 -43.562  26.984  1.00  0.00     0.044 C 
BRANCH   7   8
ATOM      8  C   UNL     1     -13.797 -44.896  27.756  1.00  0.00     0.080 C 
BRANCH   8   9
ATOM      9  C   UNL     1     -14.082 -44.700  29.233  1.00  0.00     0.103 C 
BRANCH   9  10
ATOM     10  O   UNL     1     -15.279 -44.038  29.454  1.00  0.00    -0.511 OA
ATOM     11  H   UNL     1     -15.756 -44.466  30.187  1.00  0.00     0.293 HD
ENDBRANCH   9  10
BRANCH   9  12
ATOM     12  C   UNL     1     -13.255 -45.031  30.248  1.00  0.00     0.032 C 
ATOM     13  C   UNL     1     -13.180 -44.303  31.582  1.00  0.00     0.083 C 
ATOM     14  S   UNL     1     -11.881 -46.121  30.054  1.00  0.00    -0.090 SA
ATOM     15  C   UNL     1     -11.708 -44.229  31.905  1.00  0.00    -0.025 A 
ATOM     16  C   UNL     1     -10.932 -45.152  31.198  1.00  0.00     0.020 A 
ATOM     17  C   UNL     1     -11.109 -43.324  32.779  1.00  0.00     0.055 A 
ATOM     18  C   UNL     1      -9.556 -45.181  31.329  1.00  0.00     0.066 A 
ATOM     19  C   UNL     1      -9.714 -43.320  32.910  1.00  0.00     0.161 A 
ATOM     20  C   UNL     1      -8.947 -44.259  32.184  1.00  0.00     0.161 A 
BRANCH  19  21
ATOM     21  O   UNL     1      -9.024 -42.396  33.648  1.00  0.00    -0.493 OA
ATOM     22  C   UNL     1      -9.692 -41.834  34.774  1.00  0.00     0.278 C 
ENDBRANCH  19  21
BRANCH  20  23
ATOM     23  O   UNL     1      -7.573 -44.284  32.164  1.00  0.00    -0.493 OA
ATOM     24  C   UNL     1      -7.044 -45.430  31.492  1.00  0.00     0.278 C 
ENDBRANCH  20  23
ENDBRANCH   9  12
ENDBRANCH   8   9
ENDBRANCH   7   8
ENDBRANCH   1   7
BRANCH   4  25
ATOM     25  C   UNL     1     -17.802 -42.549  23.008  1.00  0.00     0.385 C 
BRANCH  25  26
ATOM     26  C   UNL     1     -18.914 -41.716  23.640  1.00  0.00     0.233 C 
BRANCH  26  27
ATOM     27  O   UNL     1     -20.125 -41.933  22.909  1.00  0.00    -0.375 OA
BRANCH  27  28
ATOM     28  C   UNL     1     -20.903 -40.745  22.737  1.00  0.00     0.157 C 
ATOM     29  C   UNL     1     -20.083 -39.637  22.102  1.00  0.00     0.035 C 
ENDBRANCH  27  28
ENDBRANCH  26  27
ENDBRANCH  25  26
ENDBRANCH   4  25
TORSDOF 11
ENDMDL
MODEL 4
REMARK VINA RESULT:    -8.779      4.164      9.233
REMARK INTER + INTRA:         -14.942
REMARK INTER:                 -14.090
REMARK INTRA:                  -0.852
REMARK UNBOUND:                -0.773
REMARK SMILES CCOCC[n+]1ccc(CCC(O)=C2Cc3cc(OC)c(OC)cc3S2)cc1
REMARK SMILES IDX 9 1 8 2 7 3 6 4 28 5 27 6 10 7 11 8 12 9 13 10 14 12 15 13
REMARK SMILES IDX 26 14 16 15 25 16 17 17 24 18 18 19 21 20 19 21 20 22 22 23
REMARK SMILES IDX 23 24 5 25 4 26 3 27 2 28 1 29
REMARK H PARENT 13 11
ROOT
ATOM      1  C   UNL     1     -12.997 -45.627  27.733  1.00  0.00    -0.036 A 
ATOM      2  C   UNL     1     -11.823 -46.382  27.678  1.00  0.00     0.074 A 
ATOM      3  C   UNL     1     -11.050 -46.544  28.821  1.00  0.00     0.308 A 
ATOM      4  N   UNL     1     -11.426 -45.984  29.993  1.00  0.00    -0.203 N 
ATOM      5  C   UNL     1     -12.577 -45.281  30.081  1.00  0.00     0.308 A 
ATOM      6  C   UNL     1     -13.382 -45.091  28.961  1.00  0.00     0.074 A 
ENDROOT
BRANCH   1   7
ATOM      7  C   UNL     1     -13.771 -45.321  26.467  1.00  0.00     0.044 C 
BRANCH   7   8
ATOM      8  C   UNL     1     -13.908 -43.812  26.177  1.00  0.00     0.080 C 
BRANCH   8   9
ATOM      9  C   UNL     1     -14.903 -43.522  25.069  1.00  0.00     0.103 C 
BRANCH   9  10
ATOM     10  O   UNL     1     -14.474 -43.998  23.840  1.00  0.00    -0.511 OA
ATOM     11  H   UNL     1     -15.128 -43.766  23.157  1.00  0.00     0.293 HD
ENDBRANCH   9  10
BRANCH   9  12
ATOM     12  C   UNL     1     -16.041 -42.807  25.197  1.00  0.00     0.032 C 
ATOM     13  C   UNL     1     -16.701 -42.451  26.521  1.00  0.00     0.083 C 
ATOM     14  S   UNL     1     -17.135 -42.488  23.850  1.00  0.00    -0.090 SA
ATOM     15  C   UNL     1     -18.179 -42.635  26.284  1.00  0.00    -0.025 A 
ATOM     16  C   UNL     1     -18.534 -42.636  24.932  1.00  0.00     0.020 A 
ATOM     17  C   UNL     1     -19.145 -42.835  27.269  1.00  0.00     0.055 A 
ATOM     18  C   UNL     1     -19.840 -42.852  24.534  1.00  0.00     0.066 A 
ATOM     19  C   UNL     1     -20.471 -43.079  26.887  1.00  0.00     0.161 A 
ATOM     20  C   UNL     1     -20.808 -43.079  25.515  1.00  0.00     0.161 A 
BRANCH  19  21
ATOM     21  O   UNL     1     -21.467 -43.404  27.769  1.00  0.00    -0.493 OA
ATOM     22  C   UNL     1     -21.458 -44.725  28.300  1.00  0.00     0.278 C 
ENDBRANCH  19  21
BRANCH  20  23
ATOM     23  O   UNL     1     -22.052 -43.398  25.025  1.00  0.00    -0.493 OA
ATOM     24  C   UNL     1     -22.152 -44.756  24.592  1.00  0.00     0.278 C 
ENDBRANCH  20  23
ENDBRANCH   9  12
ENDBRANCH   8   9
ENDBRANCH   7   8
ENDBRANCH   1   7
BRANCH   4  25
ATOM     25  C   UNL     1     -10.543 -46.123  31.183  1.00  0.00     0.385 C 
BRANCH  25  26
ATOM     26  C   UNL     1      -9.438 -45.072  31.128  1.00  0.00     0.233 C 
BRANCH  26  27
ATOM     27  O   UNL     1      -9.979 -43.860  30.596  1.00  0.00    -0.375 OA
BRANCH  27  28
ATOM     28  C   UNL     1      -9.114 -43.219  29.654  1.00  0.00     0.157 C 
ATOM     29  C   UNL     1      -9.760 -43.129  28.284  1.00  0.00     0.035 C 
ENDBRANCH  27  28
ENDBRANCH  26  27
ENDBRANCH  25  26
ENDBRANCH   4  25
TORSDOF 11
ENDMDL
MODEL 5
REMARK VINA RESULT:    -8.547      3.632      9.639
REMARK INTER + INTRA:         -14.568
REMARK INTER:                 -13.813
REMARK INTRA:                  -0.754
REMARK UNBOUND:                -0.773
REMARK SMILES CCOCC[n+]1ccc(CCC(O)=C2Cc3cc(OC)c(OC)cc3S2)cc1
REMARK SMILES IDX 9 1 8 2 7 3 6 4 28 5 27 6 10 7 11 8 12 9 13 10 14 12 15 13
REMARK SMILES IDX 26 14 16 15 25 16 17 17 24 18 18 19 21 20 19 21 20 22 22 23
REMARK SMILES IDX 23 24 5 25 4 26 3 27 2 28 1 29
REMARK H PARENT 13 11
ROOT
ATOM      1  C   UNL     1     -11.656 -45.089  28.293  1.00  0.00    -0.036 A 
ATOM      2  C   UNL     1     -11.359 -43.738  28.100  1.00  0.00     0.074 A 
ATOM      3  C   UNL     1     -10.211 -43.194  28.662  1.00  0.00     0.308 A 
ATOM      4  N   UNL     1      -9.370 -43.962  29.391  1.00  0.00    -0.203 N 
ATOM      5  C   UNL     1      -9.615 -45.281  29.560  1.00  0.00     0.308 A 
ATOM      6  C   UNL     1     -10.754 -45.868  29.016  1.00  0.00     0.074 A 
ENDROOT
BRANCH   1   7
ATOM      7  C   UNL     1     -12.974 -45.660  27.810  1.00  0.00     0.044 C 
BRANCH   7   8
ATOM      8  C   UNL     1     -14.138 -44.650  27.855  1.00  0.00     0.080 C 
BRANCH   8   9
ATOM      9  C   UNL     1     -14.631 -44.270  26.472  1.00  0.00     0.103 C 
BRANCH   9  10
ATOM     10  O   UNL     1     -14.052 -45.041  25.477  1.00  0.00    -0.511 OA
ATOM     11  H   UNL     1     -13.239 -45.455  25.819  1.00  0.00     0.293 HD
ENDBRANCH   9  10
BRANCH   9  12
ATOM     12  C   UNL     1     -15.465 -43.248  26.184  1.00  0.00     0.032 C 
ATOM     13  C   UNL     1     -16.427 -42.606  27.173  1.00  0.00     0.083 C 
ATOM     14  S   UNL     1     -15.836 -42.741  24.535  1.00  0.00    -0.090 SA
ATOM     15  C   UNL     1     -17.695 -42.373  26.390  1.00  0.00    -0.025 A 
ATOM     16  C   UNL     1     -17.509 -42.385  25.005  1.00  0.00     0.020 A 
ATOM     17  C   UNL     1     -18.968 -42.200  26.931  1.00  0.00     0.055 A 
ATOM     18  C   UNL     1     -18.576 -42.246  24.137  1.00  0.00     0.066 A 
ATOM     19  C   UNL     1     -20.067 -42.081  26.070  1.00  0.00     0.161 A 
ATOM     20  C   UNL     1     -19.858 -42.099  24.673  1.00  0.00     0.161 A 
BRANCH  19  21
ATOM     21  O   UNL     1     -21.366 -42.027  26.501  1.00  0.00    -0.493 OA
ATOM     22  C   UNL     1     -21.868 -40.754  26.894  1.00  0.00     0.278 C 
ENDBRANCH  19  21
BRANCH  20  23
ATOM     23  O   UNL     1     -20.868 -42.084  23.740  1.00  0.00    -0.493 OA
ATOM     24  C   UNL     1     -20.751 -41.008  22.806  1.00  0.00     0.278 C 
ENDBRANCH  20  23
ENDBRANCH   9  12
ENDBRANCH   8   9
ENDBRANCH   7   8
ENDBRANCH   1   7
BRANCH   4  25
ATOM     25  C   UNL     1      -8.182 -43.335  30.033  1.00  0.00     0.385 C 
BRANCH  25  26
ATOM     26  C   UNL     1      -7.863 -44.059  31.339  1.00  0.00     0.233 C 
BRANCH  26  27
ATOM     27  O   UNL     1      -8.067 -43.156  32.429  1.00  0.00    -0.375 OA
BRANCH  27  28
ATOM     28  C   UNL     1      -9.430 -43.087  32.859  1.00  0.00     0.157 C 
ATOM     29  C   UNL     1      -9.557 -42.325  34.166  1.00  0.00     0.035 C 
ENDBRANCH  27  28
ENDBRANCH  26  27
ENDBRANCH  25  26
ENDBRANCH   4  25
TORSDOF 11
ENDMDL
MODEL 6
REMARK VINA RESULT:    -8.519      3.318     10.203
REMARK INTER + INTRA:         -14.522
REMARK INTER:                 -13.670
REMARK INTRA:                  -0.851
REMARK UNBOUND:                -0.773
REMARK SMILES CCOCC[n+]1ccc(CCC(O)=C2Cc3cc(OC)c(OC)cc3S2)cc1
REMARK SMILES IDX 9 1 8 2 7 3 6 4 28 5 27 6 10 7 11 8 12 9 13 10 14 12 15 13
REMARK SMILES IDX 26 14 16 15 25 16 17 17 24 18 18 19 21 20 19 21 20 22 22 23
REMARK SMILES IDX 23 24 5 25 4 26 3 27 2 28 1 29
REMARK H PARENT 13 11
ROOT
ATOM      1  C   UNL     1     -13.314 -44.464  26.878  1.00  0.00    -0.036 A 
ATOM      2  C   UNL     1     -13.182 -45.800  27.264  1.00  0.00     0.074 A 
ATOM      3  C   UNL     1     -12.212 -46.161  28.191  1.00  0.00     0.308 A 
ATOM      4  N   UNL     1     -11.394 -45.229  28.731  1.00  0.00    -0.203 N 
ATOM      5  C   UNL     1     -11.527 -43.924  28.402  1.00  0.00     0.308 A 
ATOM      6  C   UNL     1     -12.485 -43.517  27.478  1.00  0.00     0.074 A 
ENDROOT
BRANCH   1   7
ATOM      7  C   UNL     1     -14.267 -44.079  25.765  1.00  0.00     0.044 C 
BRANCH   7   8
ATOM      8  C   UNL     1     -14.533 -42.562  25.678  1.00  0.00     0.080 C 
BRANCH   8   9
ATOM      9  C   UNL     1     -15.305 -42.178  24.430  1.00  0.00     0.103 C 
BRANCH   9  10
ATOM     10  O   UNL     1     -14.549 -41.410  23.559  1.00  0.00    -0.511 OA
ATOM     11  H   UNL     1     -13.792 -41.932  23.240  1.00  0.00     0.293 HD
ENDBRANCH   9  10
BRANCH   9  12
ATOM     12  C   UNL     1     -16.606 -42.451  24.192  1.00  0.00     0.032 C 
ATOM     13  C   UNL     1     -17.314 -42.224  22.865  1.00  0.00     0.083 C 
ATOM     14  S   UNL     1     -17.775 -42.765  25.476  1.00  0.00    -0.090 SA
ATOM     15  C   UNL     1     -18.666 -41.667  23.232  1.00  0.00    -0.025 A 
ATOM     16  C   UNL     1     -19.034 -41.916  24.558  1.00  0.00     0.020 A 
ATOM     17  C   UNL     1     -19.500 -40.929  22.394  1.00  0.00     0.055 A 
ATOM     18  C   UNL     1     -20.217 -41.426  25.078  1.00  0.00     0.066 A 
ATOM     19  C   UNL     1     -20.693 -40.402  22.907  1.00  0.00     0.161 A 
ATOM     20  C   UNL     1     -21.044 -40.663  24.251  1.00  0.00     0.161 A 
BRANCH  19  21
ATOM     21  O   UNL     1     -21.519 -39.567  22.202  1.00  0.00    -0.493 OA
ATOM     22  C   UNL     1     -22.490 -40.176  21.358  1.00  0.00     0.278 C 
ENDBRANCH  19  21
BRANCH  20  23
ATOM     23  O   UNL     1     -22.138 -40.121  24.883  1.00  0.00    -0.493 OA
ATOM     24  C   UNL     1     -23.207 -41.055  25.050  1.00  0.00     0.278 C 
ENDBRANCH  20  23
ENDBRANCH   9  12
ENDBRANCH   8   9
ENDBRANCH   7   8
ENDBRANCH   1   7
BRANCH   4  25
ATOM     25  C   UNL     1     -10.323 -45.656  29.672  1.00  0.00     0.385 C 
BRANCH  25  26
ATOM     26  C   UNL     1     -10.943 -46.059  31.007  1.00  0.00     0.233 C 
BRANCH  26  27
ATOM     27  O   UNL     1     -11.042 -44.899  31.838  1.00  0.00    -0.375 OA
BRANCH  27  28
ATOM     28  C   UNL     1     -12.382 -44.421  31.986  1.00  0.00     0.157 C 
ATOM     29  C   UNL     1     -13.391 -45.535  31.770  1.00  0.00     0.035 C 
ENDBRANCH  27  28
ENDBRANCH  26  27
ENDBRANCH  25  26
ENDBRANCH   4  25
TORSDOF 11
ENDMDL
MODEL 7
REMARK VINA RESULT:    -8.323      3.411     10.645
REMARK INTER + INTRA:         -14.205
REMARK INTER:                 -13.442
REMARK INTRA:                  -0.763
REMARK UNBOUND:                -0.773
REMARK SMILES CCOCC[n+]1ccc(CCC(O)=C2Cc3cc(OC)c(OC)cc3S2)cc1
REMARK SMILES IDX 9 1 8 2 7 3 6 4 28 5 27 6 10 7 11 8 12 9 13 10 14 12 15 13
REMARK SMILES IDX 26 14 16 15 25 16 17 17 24 18 18 19 21 20 19 21 20 22 22 23
REMARK SMILES IDX 23 24 5 25 4 26 3 27 2 28 1 29
REMARK H PARENT 13 11
ROOT
ATOM      1  C   UNL     1     -13.427 -43.539  26.787  1.00  0.00    -0.036 A 
ATOM      2  C   UNL     1     -12.236 -43.151  27.406  1.00  0.00     0.074 A 
ATOM      3  C   UNL     1     -11.476 -44.089  28.093  1.00  0.00     0.308 A 
ATOM      4  N   UNL     1     -11.873 -45.381  28.164  1.00  0.00    -0.203 N 
ATOM      5  C   UNL     1     -13.001 -45.788  27.541  1.00  0.00     0.308 A 
ATOM      6  C   UNL     1     -13.794 -44.883  26.842  1.00  0.00     0.074 A 
ENDROOT
BRANCH   1   7
ATOM      7  C   UNL     1     -14.337 -42.502  26.159  1.00  0.00     0.044 C 
BRANCH   7   8
ATOM      8  C   UNL     1     -15.288 -43.082  25.092  1.00  0.00     0.080 C 
BRANCH   8   9
ATOM      9  C   UNL     1     -16.742 -42.747  25.367  1.00  0.00     0.103 C 
BRANCH   9  10
ATOM     10  O   UNL     1     -17.000 -42.594  26.720  1.00  0.00    -0.511 OA
ATOM     11  H   UNL     1     -16.669 -43.372  27.202  1.00  0.00     0.293 HD
ENDBRANCH   9  10
BRANCH   9  12
ATOM     12  C   UNL     1     -17.726 -42.686  24.444  1.00  0.00     0.032 C 
ATOM     13  C   UNL     1     -17.568 -42.119  23.041  1.00  0.00     0.083 C 
ATOM     14  S   UNL     1     -19.431 -42.912  24.837  1.00  0.00    -0.090 SA
ATOM     15  C   UNL     1     -18.831 -41.333  22.792  1.00  0.00    -0.025 A 
ATOM     16  C   UNL     1     -19.885 -41.681  23.642  1.00  0.00     0.020 A 
ATOM     17  C   UNL     1     -18.988 -40.315  21.853  1.00  0.00     0.055 A 
ATOM     18  C   UNL     1     -21.097 -41.019  23.590  1.00  0.00     0.066 A 
ATOM     19  C   UNL     1     -20.200 -39.615  21.798  1.00  0.00     0.161 A 
ATOM     20  C   UNL     1     -21.252 -39.980  22.669  1.00  0.00     0.161 A 
BRANCH  19  21
ATOM     21  O   UNL     1     -20.411 -38.525  20.997  1.00  0.00    -0.493 OA
ATOM     22  C   UNL     1     -20.558 -38.764  19.601  1.00  0.00     0.278 C 
ENDBRANCH  19  21
BRANCH  20  23
ATOM     23  O   UNL     1     -22.445 -39.305  22.766  1.00  0.00    -0.493 OA
ATOM     24  C   UNL     1     -23.252 -39.750  23.858  1.00  0.00     0.278 C 
ENDBRANCH  20  23
ENDBRANCH   9  12
ENDBRANCH   8   9
ENDBRANCH   7   8
ENDBRANCH   1   7
BRANCH   4  25
ATOM     25  C   UNL     1     -11.070 -46.347  28.961  1.00  0.00     0.385 C 
BRANCH  25  26
ATOM     26  C   UNL     1     -10.558 -45.667  30.229  1.00  0.00     0.233 C 
BRANCH  26  27
ATOM     27  O   UNL     1     -11.225 -46.237  31.359  1.00  0.00    -0.375 OA
BRANCH  27  28
ATOM     28  C   UNL     1     -12.650 -46.126  31.290  1.00  0.00     0.157 C 
ATOM     29  C   UNL     1     -13.121 -44.767  31.779  1.00  0.00     0.035 C 
ENDBRANCH  27  28
ENDBRANCH  26  27
ENDBRANCH  25  26
ENDBRANCH   4  25
TORSDOF 11
ENDMDL
MODEL 8
REMARK VINA RESULT:    -8.183      2.669      3.435
REMARK INTER + INTRA:         -13.980
REMARK INTER:                 -13.286
REMARK INTRA:                  -0.694
REMARK UNBOUND:                -0.773
REMARK SMILES CCOCC[n+]1ccc(CCC(O)=C2Cc3cc(OC)c(OC)cc3S2)cc1
REMARK SMILES IDX 9 1 8 2 7 3 6 4 28 5 27 6 10 7 11 8 12 9 13 10 14 12 15 13
REMARK SMILES IDX 26 14 16 15 25 16 17 17 24 18 18 19 21 20 19 21 20 22 22 23
REMARK SMILES IDX 23 24 5 25 4 26 3 27 2 28 1 29
REMARK H PARENT 13 11
ROOT
ATOM      1  C   UNL     1     -15.868 -42.860  25.091  1.00  0.00    -0.036 A 
ATOM      2  C   UNL     1     -17.061 -42.579  25.762  1.00  0.00     0.074 A 
ATOM      3  C   UNL     1     -18.224 -42.346  25.038  1.00  0.00     0.308 A 
ATOM      4  N   UNL     1     -18.217 -42.396  23.686  1.00  0.00    -0.203 N 
ATOM      5  C   UNL     1     -17.084 -42.704  23.016  1.00  0.00     0.308 A 
ATOM      6  C   UNL     1     -15.895 -42.943  23.700  1.00  0.00     0.074 A 
ENDROOT
BRANCH   1   7
ATOM      7  C   UNL     1     -14.566 -42.972  25.858  1.00  0.00     0.044 C 
BRANCH   7   8
ATOM      8  C   UNL     1     -14.305 -44.381  26.428  1.00  0.00     0.080 C 
BRANCH   8   9
ATOM      9  C   UNL     1     -14.354 -44.412  27.944  1.00  0.00     0.103 C 
BRANCH   9  10
ATOM     10  O   UNL     1     -15.400 -43.659  28.452  1.00  0.00    -0.511 OA
ATOM     11  H   UNL     1     -15.053 -43.013  29.093  1.00  0.00     0.293 HD
ENDBRANCH   9  10
BRANCH   9  12
ATOM     12  C   UNL     1     -13.453 -45.012  28.750  1.00  0.00     0.032 C 
ATOM     13  C   UNL     1     -13.454 -44.930  30.270  1.00  0.00     0.083 C 
ATOM     14  S   UNL     1     -11.927 -45.677  28.164  1.00  0.00    -0.090 SA
ATOM     15  C   UNL     1     -12.005 -44.769  30.655  1.00  0.00    -0.025 A 
ATOM     16  C   UNL     1     -11.112 -45.159  29.653  1.00  0.00     0.020 A 
ATOM     17  C   UNL     1     -11.533 -44.247  31.858  1.00  0.00     0.055 A 
ATOM     18  C   UNL     1      -9.746 -45.022  29.817  1.00  0.00     0.066 A 
ATOM     19  C   UNL     1     -10.154 -44.077  32.037  1.00  0.00     0.161 A 
ATOM     20  C   UNL     1      -9.268 -44.475  31.010  1.00  0.00     0.161 A 
BRANCH  19  21
ATOM     21  O   UNL     1      -9.599 -43.466  33.130  1.00  0.00    -0.493 OA
ATOM     22  C   UNL     1     -10.379 -42.467  33.779  1.00  0.00     0.278 C 
ENDBRANCH  19  21
BRANCH  20  23
ATOM     23  O   UNL     1      -7.909 -44.270  31.039  1.00  0.00    -0.493 OA
ATOM     24  C   UNL     1      -7.190 -45.365  31.611  1.00  0.00     0.278 C 
ENDBRANCH  20  23
ENDBRANCH   9  12
ENDBRANCH   8   9
ENDBRANCH   7   8
ENDBRANCH   1   7
BRANCH   4  25
ATOM     25  C   UNL     1     -19.464 -42.079  22.939  1.00  0.00     0.385 C 
BRANCH  25  26
ATOM     26  C   UNL     1     -20.429 -41.322  23.847  1.00  0.00     0.233 C 
BRANCH  26  27
ATOM     27  O   UNL     1     -21.685 -42.006  23.859  1.00  0.00    -0.375 OA
BRANCH  27  28
ATOM     28  C   UNL     1     -21.560 -43.422  23.700  1.00  0.00     0.157 C 
ATOM     29  C   UNL     1     -21.732 -44.142  25.026  1.00  0.00     0.035 C 
ENDBRANCH  27  28
ENDBRANCH  26  27
ENDBRANCH  25  26
ENDBRANCH   4  25
TORSDOF 11
ENDMDL
MODEL 9
REMARK VINA RESULT:    -8.080      4.982      9.968
REMARK INTER + INTRA:         -13.813
REMARK INTER:                 -13.187
REMARK INTRA:                  -0.626
REMARK UNBOUND:                -0.773
REMARK SMILES CCOCC[n+]1ccc(CCC(O)=C2Cc3cc(OC)c(OC)cc3S2)cc1
REMARK SMILES IDX 9 1 8 2 7 3 6 4 28 5 27 6 10 7 11 8 12 9 13 10 14 12 15 13
REMARK SMILES IDX 26 14 16 15 25 16 17 17 24 18 18 19 21 20 19 21 20 22 22 23
REMARK SMILES IDX 23 24 5 25 4 26 3 27 2 28 1 29
REMARK H PARENT 13 11
ROOT
ATOM      1  C   UNL     1     -13.372 -43.406  26.784  1.00  0.00    -0.036 A 
ATOM      2  C   UNL     1     -12.174 -42.930  27.323  1.00  0.00     0.074 A 
ATOM      3  C   UNL     1     -11.370 -43.775  28.078  1.00  0.00     0.308 A 
ATOM      4  N   UNL     1     -11.732 -45.060  28.294  1.00  0.00    -0.203 N 
ATOM      5  C   UNL     1     -12.867 -45.555  27.751  1.00  0.00     0.308 A 
ATOM      6  C   UNL     1     -13.703 -44.745  26.988  1.00  0.00     0.074 A 
ENDROOT
BRANCH   1   7
ATOM      7  C   UNL     1     -14.326 -42.461  26.083  1.00  0.00     0.044 C 
BRANCH   7   8
ATOM      8  C   UNL     1     -15.695 -43.094  25.759  1.00  0.00     0.080 C 
BRANCH   8   9
ATOM      9  C   UNL     1     -16.798 -42.589  26.671  1.00  0.00     0.103 C 
BRANCH   9  10
ATOM     10  O   UNL     1     -16.344 -42.337  27.955  1.00  0.00    -0.511 OA
ATOM     11  H   UNL     1     -15.657 -41.648  27.927  1.00  0.00     0.293 HD
ENDBRANCH   9  10
BRANCH   9  12
ATOM     12  C   UNL     1     -18.102 -42.472  26.341  1.00  0.00     0.032 C 
ATOM     13  C   UNL     1     -19.243 -42.349  27.339  1.00  0.00     0.083 C 
ATOM     14  S   UNL     1     -18.721 -42.811  24.724  1.00  0.00    -0.090 SA
ATOM     15  C   UNL     1     -20.347 -43.213  26.782  1.00  0.00    -0.025 A 
ATOM     16  C   UNL     1     -20.204 -43.494  25.419  1.00  0.00     0.020 A 
ATOM     17  C   UNL     1     -21.408 -43.750  27.507  1.00  0.00     0.055 A 
ATOM     18  C   UNL     1     -21.095 -44.320  24.761  1.00  0.00     0.066 A 
ATOM     19  C   UNL     1     -22.310 -44.611  26.865  1.00  0.00     0.161 A 
ATOM     20  C   UNL     1     -22.146 -44.883  25.488  1.00  0.00     0.161 A 
BRANCH  19  21
ATOM     21  O   UNL     1     -23.312 -45.281  27.514  1.00  0.00    -0.493 OA
ATOM     22  C   UNL     1     -23.462 -45.032  28.908  1.00  0.00     0.278 C 
ENDBRANCH  19  21
BRANCH  20  23
ATOM     23  O   UNL     1     -22.912 -45.781  24.782  1.00  0.00    -0.493 OA
ATOM     24  C   UNL     1     -22.201 -46.971  24.435  1.00  0.00     0.278 C 
ENDBRANCH  20  23
ENDBRANCH   9  12
ENDBRANCH   8   9
ENDBRANCH   7   8
ENDBRANCH   1   7
BRANCH   4  25
ATOM     25  C   UNL     1     -10.881 -45.921  29.160  1.00  0.00     0.385 C 
BRANCH  25  26
ATOM     26  C   UNL     1     -11.568 -46.131  30.507  1.00  0.00     0.233 C 
BRANCH  26  27
ATOM     27  O   UNL     1     -10.572 -46.153  31.534  1.00  0.00    -0.375 OA
BRANCH  27  28
ATOM     28  C   UNL     1      -9.316 -46.678  31.094  1.00  0.00     0.157 C 
ATOM     29  C   UNL     1      -8.163 -45.801  31.548  1.00  0.00     0.035 C 
ENDBRANCH  27  28
ENDBRANCH  26  27
ENDBRANCH  25  26
ENDBRANCH   4  25
TORSDOF 11
ENDMDL
