MODEL 1
REMARK VINA RESULT:    -9.800      0.000      0.000
REMARK INTER + INTRA:         -15.441
REMARK INTER:                 -14.670
REMARK INTRA:                  -0.771
REMARK UNBOUND:                -0.771
REMARK SMILES COc1cc2c(cc1OC)S[C@@H](C(O)=CCc1cc[n+](Cc3ccsc3)cc1)C2
REMARK SMILES IDX 15 1 13 2 14 3 12 5 29 6 11 7 5 8 6 9 4 10 7 11 3 12 8 13
REMARK SMILES IDX 2 14 1 15 9 16 10 17 16 18 17 19 18 20 28 21 19 22 27 23
REMARK SMILES IDX 20 24 21 25 22 26 23 27 26 28 24 29 25 30
REMARK H PARENT 14 4
ROOT
ATOM      1  C   UNL     1     -13.485 -45.107  28.407  1.00  0.00     0.020 C 
ENDROOT
BRANCH   1   2
ATOM      2  C   UNL     1     -14.120 -44.838  29.564  1.00  0.00     0.102 C 
BRANCH   2   3
ATOM      3  O   UNL     1     -15.177 -43.942  29.573  1.00  0.00    -0.511 OA
ATOM      4  H   UNL     1     -15.886 -44.266  30.154  1.00  0.00     0.293 HD
ENDBRANCH   2   3
BRANCH   2   5
ATOM      5  C   UNL     1     -13.774 -45.430  30.925  1.00  0.00     0.121 C 
ATOM      6  C   UNL     1     -12.407 -46.149  31.005  1.00  0.00     0.059 C 
ATOM      7  S   UNL     1     -13.723 -44.079  32.163  1.00  0.00    -0.114 SA
ATOM      8  C   UNL     1     -11.405 -45.175  31.555  1.00  0.00    -0.029 A 
ATOM      9  C   UNL     1     -11.955 -44.079  32.211  1.00  0.00     0.015 A 
ATOM     10  C   UNL     1     -10.027 -45.335  31.506  1.00  0.00     0.055 A 
ATOM     11  C   UNL     1     -11.151 -43.129  32.830  1.00  0.00     0.065 A 
ATOM     12  C   UNL     1      -9.196 -44.372  32.098  1.00  0.00     0.161 A 
ATOM     13  C   UNL     1      -9.756 -43.273  32.790  1.00  0.00     0.161 A 
BRANCH  12  14
ATOM     14  O   UNL     1      -7.860 -44.662  31.977  1.00  0.00    -0.493 OA
ATOM     15  C   UNL     1      -7.533 -45.731  31.096  1.00  0.00     0.278 C 
ENDBRANCH  12  14
BRANCH  13  16
ATOM     16  O   UNL     1      -8.890 -42.411  33.410  1.00  0.00    -0.493 OA
ATOM     17  C   UNL     1      -9.177 -42.021  34.746  1.00  0.00     0.278 C 
ENDBRANCH  13  16
ENDBRANCH   2   5
ENDBRANCH   1   2
BRANCH   1  18
ATOM     18  C   UNL     1     -12.840 -44.117  27.477  1.00  0.00     0.067 C 
BRANCH  18  19
ATOM     19  C   UNL     1     -13.760 -43.725  26.343  1.00  0.00    -0.032 A 
ATOM     20  C   UNL     1     -14.230 -42.417  26.221  1.00  0.00     0.075 A 
ATOM     21  C   UNL     1     -14.139 -44.659  25.377  1.00  0.00     0.075 A 
ATOM     22  C   UNL     1     -15.064 -42.077  25.160  1.00  0.00     0.308 A 
ATOM     23  C   UNL     1     -14.974 -44.276  24.332  1.00  0.00     0.308 A 
ATOM     24  N   UNL     1     -15.422 -43.002  24.240  1.00  0.00    -0.201 N 
BRANCH  24  25
ATOM     25  C   UNL     1     -16.311 -42.611  23.118  1.00  0.00     0.394 C 
BRANCH  25  26
ATOM     26  C   UNL     1     -17.685 -42.311  23.631  1.00  0.00     0.027 A 
ATOM     27  C   UNL     1     -18.645 -41.485  22.951  1.00  0.00     0.022 A 
ATOM     28  C   UNL     1     -18.214 -42.795  24.815  1.00  0.00     0.075 A 
ATOM     29  C   UNL     1     -19.830 -41.365  23.645  1.00  0.00     0.065 A 
ATOM     30  S   UNL     1     -19.806 -42.242  25.109  1.00  0.00    -0.152 S 
ENDBRANCH  25  26
ENDBRANCH  24  25
ENDBRANCH  18  19
ENDBRANCH   1  18
TORSDOF 9
ENDMDL
MODEL 2
REMARK VINA RESULT:    -9.727      1.660      2.019
REMARK INTER + INTRA:         -15.332
REMARK INTER:                 -14.828
REMARK INTRA:                  -0.504
REMARK UNBOUND:                -0.771
REMARK SMILES COc1cc2c(cc1OC)S[C@@H](C(O)=CCc1cc[n+](Cc3ccsc3)cc1)C2
REMARK SMILES IDX 15 1 13 2 14 3 12 5 29 6 11 7 5 8 6 9 4 10 7 11 3 12 8 13
REMARK SMILES IDX 2 14 1 15 9 16 10 17 16 18 17 19 18 20 28 21 19 22 27 23
REMARK SMILES IDX 20 24 21 25 22 26 23 27 26 28 24 29 25 30
REMARK H PARENT 14 4
ROOT
ATOM      1  C   UNL     1     -13.557 -45.054  27.771  1.00  0.00     0.020 C 
ENDROOT
BRANCH   1   2
ATOM      2  C   UNL     1     -12.629 -45.765  28.440  1.00  0.00     0.102 C 
BRANCH   2   3
ATOM      3  O   UNL     1     -11.486 -46.189  27.781  1.00  0.00    -0.511 OA
ATOM      4  H   UNL     1     -11.305 -45.611  27.021  1.00  0.00     0.293 HD
ENDBRANCH   2   3
BRANCH   2   5
ATOM      5  C   UNL     1     -12.714 -46.183  29.903  1.00  0.00     0.121 C 
ATOM      6  C   UNL     1     -11.356 -46.338  30.627  1.00  0.00     0.059 C 
ATOM      7  S   UNL     1     -13.654 -44.909  30.829  1.00  0.00    -0.114 SA
ATOM      8  C   UNL     1     -11.078 -45.060  31.363  1.00  0.00    -0.029 A 
ATOM      9  C   UNL     1     -12.189 -44.248  31.567  1.00  0.00     0.015 A 
ATOM     10  C   UNL     1      -9.846 -44.691  31.886  1.00  0.00     0.055 A 
ATOM     11  C   UNL     1     -12.098 -43.065  32.291  1.00  0.00     0.065 A 
ATOM     12  C   UNL     1      -9.725 -43.486  32.594  1.00  0.00     0.161 A 
ATOM     13  C   UNL     1     -10.860 -42.676  32.826  1.00  0.00     0.161 A 
BRANCH  12  14
ATOM     14  O   UNL     1      -8.453 -43.256  33.056  1.00  0.00    -0.493 OA
ATOM     15  C   UNL     1      -7.402 -43.860  32.310  1.00  0.00     0.278 C 
ENDBRANCH  12  14
BRANCH  13  16
ATOM     16  O   UNL     1     -10.688 -41.552  33.589  1.00  0.00    -0.493 OA
ATOM     17  C   UNL     1     -10.446 -41.719  34.980  1.00  0.00     0.278 C 
ENDBRANCH  13  16
ENDBRANCH   2   5
ENDBRANCH   1   2
BRANCH   1  18
ATOM     18  C   UNL     1     -13.335 -43.800  26.972  1.00  0.00     0.067 C 
BRANCH  18  19
ATOM     19  C   UNL     1     -14.581 -43.379  26.225  1.00  0.00    -0.032 A 
ATOM     20  C   UNL     1     -14.672 -43.530  24.841  1.00  0.00     0.075 A 
ATOM     21  C   UNL     1     -15.679 -42.853  26.909  1.00  0.00     0.075 A 
ATOM     22  C   UNL     1     -15.835 -43.148  24.178  1.00  0.00     0.308 A 
ATOM     23  C   UNL     1     -16.822 -42.486  26.206  1.00  0.00     0.308 A 
ATOM     24  N   UNL     1     -16.883 -42.635  24.863  1.00  0.00    -0.201 N 
BRANCH  24  25
ATOM     25  C   UNL     1     -18.111 -42.238  24.130  1.00  0.00     0.394 C 
BRANCH  25  26
ATOM     26  C   UNL     1     -19.317 -42.466  24.986  1.00  0.00     0.027 A 
ATOM     27  C   UNL     1     -19.992 -41.438  25.732  1.00  0.00     0.022 A 
ATOM     28  C   UNL     1     -19.947 -43.686  25.163  1.00  0.00     0.075 A 
ATOM     29  C   UNL     1     -21.071 -41.919  26.443  1.00  0.00     0.065 A 
ATOM     30  S   UNL     1     -21.288 -43.597  26.220  1.00  0.00    -0.152 S 
ENDBRANCH  25  26
ENDBRANCH  24  25
ENDBRANCH  18  19
ENDBRANCH   1  18
TORSDOF 9
ENDMDL
MODEL 3
REMARK VINA RESULT:    -9.673      2.381      3.163
REMARK INTER + INTRA:         -15.250
REMARK INTER:                 -14.520
REMARK INTRA:                  -0.731
REMARK UNBOUND:                -0.771
REMARK SMILES COc1cc2c(cc1OC)S[C@@H](C(O)=CCc1cc[n+](Cc3ccsc3)cc1)C2
REMARK SMILES IDX 15 1 13 2 14 3 12 5 29 6 11 7 5 8 6 9 4 10 7 11 3 12 8 13
REMARK SMILES IDX 2 14 1 15 9 16 10 17 16 18 17 19 18 20 28 21 19 22 27 23
REMARK SMILES IDX 20 24 21 25 22 26 23 27 26 28 24 29 25 30
REMARK H PARENT 14 4
ROOT
ATOM      1  C   UNL     1     -14.072 -44.589  26.356  1.00  0.00     0.020 C 
ENDROOT
BRANCH   1   2
ATOM      2  C   UNL     1     -13.188 -44.522  27.370  1.00  0.00     0.102 C 
BRANCH   2   3
ATOM      3  O   UNL     1     -12.525 -43.332  27.624  1.00  0.00    -0.511 OA
ATOM      4  H   UNL     1     -11.909 -43.132  26.898  1.00  0.00     0.293 HD
ENDBRANCH   2   3
BRANCH   2   5
ATOM      5  C   UNL     1     -12.814 -45.672  28.299  1.00  0.00     0.121 C 
ATOM      6  C   UNL     1     -11.297 -45.946  28.435  1.00  0.00     0.059 C 
ATOM      7  S   UNL     1     -13.426 -45.295  29.985  1.00  0.00    -0.114 SA
ATOM      8  C   UNL     1     -10.811 -45.242  29.669  1.00  0.00    -0.029 A 
ATOM      9  C   UNL     1     -11.808 -44.885  30.570  1.00  0.00     0.015 A 
ATOM     10  C   UNL     1      -9.479 -45.000  29.977  1.00  0.00     0.055 A 
ATOM     11  C   UNL     1     -11.502 -44.289  31.788  1.00  0.00     0.065 A 
ATOM     12  C   UNL     1      -9.151 -44.371  31.187  1.00  0.00     0.161 A 
ATOM     13  C   UNL     1     -10.162 -44.035  32.116  1.00  0.00     0.161 A 
BRANCH  12  14
ATOM     14  O   UNL     1      -7.799 -44.201  31.359  1.00  0.00    -0.493 OA
ATOM     15  C   UNL     1      -7.073 -45.357  31.760  1.00  0.00     0.278 C 
ENDBRANCH  12  14
BRANCH  13  16
ATOM     16  O   UNL     1      -9.767 -43.492  33.310  1.00  0.00    -0.493 OA
ATOM     17  C   UNL     1     -10.447 -42.335  33.776  1.00  0.00     0.278 C 
ENDBRANCH  13  16
ENDBRANCH   2   5
ENDBRANCH   1   2
BRANCH   1  18
ATOM     18  C   UNL     1     -14.545 -43.453  25.492  1.00  0.00     0.067 C 
BRANCH  18  19
ATOM     19  C   UNL     1     -15.938 -42.998  25.871  1.00  0.00    -0.032 A 
ATOM     20  C   UNL     1     -16.916 -42.799  24.897  1.00  0.00     0.075 A 
ATOM     21  C   UNL     1     -16.281 -42.794  27.209  1.00  0.00     0.075 A 
ATOM     22  C   UNL     1     -18.194 -42.394  25.273  1.00  0.00     0.308 A 
ATOM     23  C   UNL     1     -17.571 -42.390  27.540  1.00  0.00     0.308 A 
ATOM     24  N   UNL     1     -18.500 -42.197  26.576  1.00  0.00    -0.201 N 
BRANCH  24  25
ATOM     25  C   UNL     1     -19.871 -41.767  26.947  1.00  0.00     0.394 C 
BRANCH  25  26
ATOM     26  C   UNL     1     -20.802 -42.939  26.926  1.00  0.00     0.027 A 
ATOM     27  C   UNL     1     -20.750 -44.036  27.853  1.00  0.00     0.022 A 
ATOM     28  C   UNL     1     -21.837 -43.116  26.024  1.00  0.00     0.075 A 
ATOM     29  C   UNL     1     -21.716 -44.987  27.607  1.00  0.00     0.065 A 
ATOM     30  S   UNL     1     -22.695 -44.574  26.271  1.00  0.00    -0.152 S 
ENDBRANCH  25  26
ENDBRANCH  24  25
ENDBRANCH  18  19
ENDBRANCH   1  18
TORSDOF 9
ENDMDL
MODEL 4
REMARK VINA RESULT:    -9.633      3.888     10.104
REMARK INTER + INTRA:         -15.191
REMARK INTER:                 -14.278
REMARK INTRA:                  -0.913
REMARK UNBOUND:                -0.771
REMARK SMILES COc1cc2c(cc1OC)S[C@@H](C(O)=CCc1cc[n+](Cc3ccsc3)cc1)C2
REMARK SMILES IDX 15 1 13 2 14 3 12 5 29 6 11 7 5 8 6 9 4 10 7 11 3 12 8 13
REMARK SMILES IDX 2 14 1 15 9 16 10 17 16 18 17 19 18 20 28 21 19 22 27 23
REMARK SMILES IDX 20 24 21 25 22 26 23 27 26 28 24 29 25 30
REMARK H PARENT 14 4
ROOT
ATOM      1  C   UNL     1     -14.501 -44.654  26.169  1.00  0.00     0.020 C 
ENDROOT
BRANCH   1   2
ATOM      2  C   UNL     1     -14.824 -43.861  25.129  1.00  0.00     0.102 C 
BRANCH   2   3
ATOM      3  O   UNL     1     -14.514 -44.262  23.839  1.00  0.00    -0.511 OA
ATOM      4  H   UNL     1     -15.046 -45.038  23.595  1.00  0.00     0.293 HD
ENDBRANCH   2   3
BRANCH   2   5
ATOM      5  C   UNL     1     -15.510 -42.503  25.228  1.00  0.00     0.121 C 
ATOM      6  C   UNL     1     -16.749 -42.320  24.321  1.00  0.00     0.059 C 
ATOM      7  S   UNL     1     -16.088 -42.256  26.951  1.00  0.00    -0.114 SA
ATOM      8  C   UNL     1     -17.970 -42.615  25.142  1.00  0.00    -0.029 A 
ATOM      9  C   UNL     1     -17.772 -42.576  26.519  1.00  0.00     0.015 A 
ATOM     10  C   UNL     1     -19.240 -42.847  24.631  1.00  0.00     0.055 A 
ATOM     11  C   UNL     1     -18.826 -42.762  27.406  1.00  0.00     0.065 A 
ATOM     12  C   UNL     1     -20.311 -43.067  25.509  1.00  0.00     0.161 A 
ATOM     13  C   UNL     1     -20.116 -42.999  26.907  1.00  0.00     0.161 A 
BRANCH  12  14
ATOM     14  O   UNL     1     -21.505 -43.277  24.864  1.00  0.00    -0.493 OA
ATOM     15  C   UNL     1     -21.776 -44.621  24.480  1.00  0.00     0.278 C 
ENDBRANCH  12  14
BRANCH  13  16
ATOM     16  O   UNL     1     -21.218 -43.148  27.707  1.00  0.00    -0.493 OA
ATOM     17  C   UNL     1     -21.511 -44.447  28.205  1.00  0.00     0.278 C 
ENDBRANCH  13  16
ENDBRANCH   2   5
ENDBRANCH   1   2
BRANCH   1  18
ATOM     18  C   UNL     1     -13.393 -45.669  26.222  1.00  0.00     0.067 C 
BRANCH  18  19
ATOM     19  C   UNL     1     -12.767 -45.750  27.598  1.00  0.00    -0.032 A 
ATOM     20  C   UNL     1     -13.404 -45.195  28.708  1.00  0.00     0.075 A 
ATOM     21  C   UNL     1     -11.549 -46.405  27.789  1.00  0.00     0.075 A 
ATOM     22  C   UNL     1     -12.814 -45.295  29.965  1.00  0.00     0.308 A 
ATOM     23  C   UNL     1     -10.996 -46.482  29.063  1.00  0.00     0.308 A 
ATOM     24  N   UNL     1     -11.630 -45.930  30.124  1.00  0.00    -0.201 N 
BRANCH  24  25
ATOM     25  C   UNL     1     -11.026 -46.022  31.476  1.00  0.00     0.394 C 
BRANCH  25  26
ATOM     26  C   UNL     1      -9.650 -45.433  31.466  1.00  0.00     0.027 A 
ATOM     27  C   UNL     1      -8.435 -46.202  31.475  1.00  0.00     0.022 A 
ATOM     28  C   UNL     1      -9.366 -44.078  31.436  1.00  0.00     0.075 A 
ATOM     29  C   UNL     1      -7.306 -45.412  31.471  1.00  0.00     0.065 A 
ATOM     30  S   UNL     1      -7.688 -43.749  31.451  1.00  0.00    -0.152 S 
ENDBRANCH  25  26
ENDBRANCH  24  25
ENDBRANCH  18  19
ENDBRANCH   1  18
TORSDOF 9
ENDMDL
MODEL 5
REMARK VINA RESULT:    -9.437      3.634     10.193
REMARK INTER + INTRA:         -14.898
REMARK INTER:                 -14.484
REMARK INTRA:                  -0.414
REMARK UNBOUND:                -0.771
REMARK SMILES COc1cc2c(cc1OC)S[C@@H](C(O)=CCc1cc[n+](Cc3ccsc3)cc1)C2
REMARK SMILES IDX 15 1 13 2 14 3 12 5 29 6 11 7 5 8 6 9 4 10 7 11 3 12 8 13
REMARK SMILES IDX 2 14 1 15 9 16 10 17 16 18 17 19 18 20 28 21 19 22 27 23
REMARK SMILES IDX 20 24 21 25 22 26 23 27 26 28 24 29 25 30
REMARK H PARENT 14 4
ROOT
ATOM      1  C   UNL     1     -13.800 -45.087  27.302  1.00  0.00     0.020 C 
ENDROOT
BRANCH   1   2
ATOM      2  C   UNL     1     -14.163 -44.421  26.189  1.00  0.00     0.102 C 
BRANCH   2   3
ATOM      3  O   UNL     1     -14.221 -45.091  24.978  1.00  0.00    -0.511 OA
ATOM      4  H   UNL     1     -13.323 -45.264  24.648  1.00  0.00     0.293 HD
ENDBRANCH   2   3
BRANCH   2   5
ATOM      5  C   UNL     1     -14.517 -42.940  26.117  1.00  0.00     0.121 C 
ATOM      6  C   UNL     1     -14.949 -42.430  24.722  1.00  0.00     0.059 C 
ATOM      7  S   UNL     1     -15.922 -42.611  27.247  1.00  0.00    -0.114 SA
ATOM      8  C   UNL     1     -16.449 -42.441  24.671  1.00  0.00    -0.029 A 
ATOM      9  C   UNL     1     -17.076 -42.494  25.912  1.00  0.00     0.015 A 
ATOM     10  C   UNL     1     -17.210 -42.338  23.514  1.00  0.00     0.055 A 
ATOM     11  C   UNL     1     -18.460 -42.442  26.025  1.00  0.00     0.065 A 
ATOM     12  C   UNL     1     -18.609 -42.315  23.605  1.00  0.00     0.161 A 
ATOM     13  C   UNL     1     -19.245 -42.340  24.867  1.00  0.00     0.161 A 
BRANCH  12  14
ATOM     14  O   UNL     1     -19.228 -42.205  22.384  1.00  0.00    -0.493 OA
ATOM     15  C   UNL     1     -19.558 -40.884  21.970  1.00  0.00     0.278 C 
ENDBRANCH  12  14
BRANCH  13  16
ATOM     16  O   UNL     1     -20.611 -42.238  24.888  1.00  0.00    -0.493 OA
ATOM     17  C   UNL     1     -21.201 -41.353  25.830  1.00  0.00     0.278 C 
ENDBRANCH  13  16
ENDBRANCH   2   5
ENDBRANCH   1   2
BRANCH   1  18
ATOM     18  C   UNL     1     -12.696 -46.100  27.431  1.00  0.00     0.067 C 
BRANCH  18  19
ATOM     19  C   UNL     1     -11.556 -45.587  28.285  1.00  0.00    -0.032 A 
ATOM     20  C   UNL     1     -10.848 -46.447  29.125  1.00  0.00     0.075 A 
ATOM     21  C   UNL     1     -11.172 -44.246  28.229  1.00  0.00     0.075 A 
ATOM     22  C   UNL     1      -9.795 -45.954  29.889  1.00  0.00     0.308 A 
ATOM     23  C   UNL     1     -10.111 -43.797  29.009  1.00  0.00     0.308 A 
ATOM     24  N   UNL     1      -9.444 -44.649  29.822  1.00  0.00    -0.201 N 
BRANCH  24  25
ATOM     25  C   UNL     1      -8.315 -44.151  30.647  1.00  0.00     0.394 C 
BRANCH  25  26
ATOM     26  C   UNL     1      -8.834 -43.512  31.897  1.00  0.00     0.027 A 
ATOM     27  C   UNL     1      -8.013 -43.117  33.009  1.00  0.00     0.022 A 
ATOM     28  C   UNL     1     -10.162 -43.209  32.143  1.00  0.00     0.075 A 
ATOM     29  C   UNL     1      -8.743 -42.559  34.037  1.00  0.00     0.065 A 
ATOM     30  S   UNL     1     -10.411 -42.500  33.679  1.00  0.00    -0.152 S 
ENDBRANCH  25  26
ENDBRANCH  24  25
ENDBRANCH  18  19
ENDBRANCH   1  18
TORSDOF 9
ENDMDL
MODEL 6
REMARK VINA RESULT:    -9.402      1.881      2.746
REMARK INTER + INTRA:         -14.845
REMARK INTER:                 -14.333
REMARK INTRA:                  -0.512
REMARK UNBOUND:                -0.771
REMARK SMILES COc1cc2c(cc1OC)S[C@@H](C(O)=CCc1cc[n+](Cc3ccsc3)cc1)C2
REMARK SMILES IDX 15 1 13 2 14 3 12 5 29 6 11 7 5 8 6 9 4 10 7 11 3 12 8 13
REMARK SMILES IDX 2 14 1 15 9 16 10 17 16 18 17 19 18 20 28 21 19 22 27 23
REMARK SMILES IDX 20 24 21 25 22 26 23 27 26 28 24 29 25 30
REMARK H PARENT 14 4
ROOT
ATOM      1  C   UNL     1     -14.193 -44.379  26.170  1.00  0.00     0.020 C 
ENDROOT
BRANCH   1   2
ATOM      2  C   UNL     1     -13.363 -44.337  27.230  1.00  0.00     0.102 C 
BRANCH   2   3
ATOM      3  O   UNL     1     -12.718 -43.153  27.549  1.00  0.00    -0.511 OA
ATOM      4  H   UNL     1     -13.352 -42.518  27.923  1.00  0.00     0.293 HD
ENDBRANCH   2   3
BRANCH   2   5
ATOM      5  C   UNL     1     -13.034 -45.510  28.147  1.00  0.00     0.121 C 
ATOM      6  C   UNL     1     -11.533 -45.875  28.240  1.00  0.00     0.059 C 
ATOM      7  S   UNL     1     -13.575 -45.101  29.850  1.00  0.00    -0.114 SA
ATOM      8  C   UNL     1     -10.972 -45.206  29.461  1.00  0.00    -0.029 A 
ATOM      9  C   UNL     1     -11.920 -44.792  30.390  1.00  0.00     0.015 A 
ATOM     10  C   UNL     1      -9.619 -45.045  29.733  1.00  0.00     0.055 A 
ATOM     11  C   UNL     1     -11.546 -44.218  31.599  1.00  0.00     0.065 A 
ATOM     12  C   UNL     1      -9.221 -44.441  30.934  1.00  0.00     0.161 A 
ATOM     13  C   UNL     1     -10.184 -44.047  31.890  1.00  0.00     0.161 A 
BRANCH  12  14
ATOM     14  O   UNL     1      -7.857 -44.353  31.068  1.00  0.00    -0.493 OA
ATOM     15  C   UNL     1      -7.198 -45.535  31.510  1.00  0.00     0.278 C 
ENDBRANCH  12  14
BRANCH  13  16
ATOM     16  O   UNL     1      -9.724 -43.532  33.074  1.00  0.00    -0.493 OA
ATOM     17  C   UNL     1     -10.475 -42.494  33.688  1.00  0.00     0.278 C 
ENDBRANCH  13  16
ENDBRANCH   2   5
ENDBRANCH   1   2
BRANCH   1  18
ATOM     18  C   UNL     1     -14.347 -43.335  25.100  1.00  0.00     0.067 C 
BRANCH  18  19
ATOM     19  C   UNL     1     -15.802 -43.038  24.806  1.00  0.00    -0.032 A 
ATOM     20  C   UNL     1     -16.306 -43.138  23.509  1.00  0.00     0.075 A 
ATOM     21  C   UNL     1     -16.678 -42.684  25.834  1.00  0.00     0.075 A 
ATOM     22  C   UNL     1     -17.651 -42.874  23.268  1.00  0.00     0.308 A 
ATOM     23  C   UNL     1     -18.016 -42.429  25.547  1.00  0.00     0.308 A 
ATOM     24  N   UNL     1     -18.479 -42.526  24.280  1.00  0.00    -0.201 N 
BRANCH  24  25
ATOM     25  C   UNL     1     -19.909 -42.252  23.993  1.00  0.00     0.394 C 
BRANCH  25  26
ATOM     26  C   UNL     1     -20.043 -41.532  22.688  1.00  0.00     0.027 A 
ATOM     27  C   UNL     1     -19.575 -40.195  22.444  1.00  0.00     0.022 A 
ATOM     28  C   UNL     1     -20.622 -42.059  21.545  1.00  0.00     0.075 A 
ATOM     29  C   UNL     1     -19.832 -39.767  21.159  1.00  0.00     0.065 A 
ATOM     30  S   UNL     1     -20.627 -40.961  20.234  1.00  0.00    -0.152 S 
ENDBRANCH  25  26
ENDBRANCH  24  25
ENDBRANCH  18  19
ENDBRANCH   1  18
TORSDOF 9
ENDMDL
MODEL 7
REMARK VINA RESULT:    -9.365      2.478      3.611
REMARK INTER + INTRA:         -14.790
REMARK INTER:                 -14.047
REMARK INTRA:                  -0.743
REMARK UNBOUND:                -0.771
REMARK SMILES COc1cc2c(cc1OC)S[C@@H](C(O)=CCc1cc[n+](Cc3ccsc3)cc1)C2
REMARK SMILES IDX 15 1 13 2 14 3 12 5 29 6 11 7 5 8 6 9 4 10 7 11 3 12 8 13
REMARK SMILES IDX 2 14 1 15 9 16 10 17 16 18 17 19 18 20 28 21 19 22 27 23
REMARK SMILES IDX 20 24 21 25 22 26 23 27 26 28 24 29 25 30
REMARK H PARENT 14 4
ROOT
ATOM      1  C   UNL     1     -15.618 -43.025  27.315  1.00  0.00     0.020 C 
ENDROOT
BRANCH   1   2
ATOM      2  C   UNL     1     -14.967 -43.851  28.157  1.00  0.00     0.102 C 
BRANCH   2   3
ATOM      3  O   UNL     1     -15.316 -43.876  29.498  1.00  0.00    -0.511 OA
ATOM      4  H   UNL     1     -14.559 -44.162  30.035  1.00  0.00     0.293 HD
ENDBRANCH   2   3
BRANCH   2   5
ATOM      5  C   UNL     1     -13.828 -44.790  27.777  1.00  0.00     0.121 C 
ATOM      6  C   UNL     1     -12.611 -44.114  27.102  1.00  0.00     0.059 C 
ATOM      7  S   UNL     1     -13.196 -45.600  29.295  1.00  0.00    -0.114 SA
ATOM      8  C   UNL     1     -11.583 -43.850  28.163  1.00  0.00    -0.029 A 
ATOM      9  C   UNL     1     -11.749 -44.583  29.333  1.00  0.00     0.015 A 
ATOM     10  C   UNL     1     -10.490 -43.006  28.024  1.00  0.00     0.055 A 
ATOM     11  C   UNL     1     -10.836 -44.495  30.378  1.00  0.00     0.065 A 
ATOM     12  C   UNL     1      -9.573 -42.879  29.078  1.00  0.00     0.161 A 
ATOM     13  C   UNL     1      -9.726 -43.645  30.255  1.00  0.00     0.161 A 
BRANCH  12  14
ATOM     14  O   UNL     1      -8.543 -42.015  28.797  1.00  0.00    -0.493 OA
ATOM     15  C   UNL     1      -8.180 -41.906  27.425  1.00  0.00     0.278 C 
ENDBRANCH  12  14
BRANCH  13  16
ATOM     16  O   UNL     1      -8.755 -43.530  31.214  1.00  0.00    -0.493 OA
ATOM     17  C   UNL     1      -8.164 -44.722  31.714  1.00  0.00     0.278 C 
ENDBRANCH  13  16
ENDBRANCH   2   5
ENDBRANCH   1   2
BRANCH   1  18
ATOM     18  C   UNL     1     -15.330 -42.812  25.855  1.00  0.00     0.067 C 
BRANCH  18  19
ATOM     19  C   UNL     1     -16.600 -42.727  25.036  1.00  0.00    -0.032 A 
ATOM     20  C   UNL     1     -17.849 -42.663  25.655  1.00  0.00     0.075 A 
ATOM     21  C   UNL     1     -16.547 -42.686  23.642  1.00  0.00     0.075 A 
ATOM     22  C   UNL     1     -19.001 -42.571  24.880  1.00  0.00     0.308 A 
ATOM     23  C   UNL     1     -17.725 -42.592  22.906  1.00  0.00     0.308 A 
ATOM     24  N   UNL     1     -18.924 -42.537  23.530  1.00  0.00    -0.201 N 
BRANCH  24  25
ATOM     25  C   UNL     1     -20.169 -42.437  22.729  1.00  0.00     0.394 C 
BRANCH  25  26
ATOM     26  C   UNL     1     -20.203 -41.137  21.989  1.00  0.00     0.027 A 
ATOM     27  C   UNL     1     -20.251 -39.844  22.617  1.00  0.00     0.022 A 
ATOM     28  C   UNL     1     -20.181 -41.006  20.611  1.00  0.00     0.075 A 
ATOM     29  C   UNL     1     -20.281 -38.811  21.705  1.00  0.00     0.065 A 
ATOM     30  S   UNL     1     -20.248 -39.377  20.095  1.00  0.00    -0.152 S 
ENDBRANCH  25  26
ENDBRANCH  24  25
ENDBRANCH  18  19
ENDBRANCH   1  18
TORSDOF 9
ENDMDL
MODEL 8
REMARK VINA RESULT:    -8.906      3.990     10.340
REMARK INTER + INTRA:         -14.103
REMARK INTER:                 -13.216
REMARK INTRA:                  -0.888
REMARK UNBOUND:                -0.771
REMARK SMILES COc1cc2c(cc1OC)S[C@@H](C(O)=CCc1cc[n+](Cc3ccsc3)cc1)C2
REMARK SMILES IDX 15 1 13 2 14 3 12 5 29 6 11 7 5 8 6 9 4 10 7 11 3 12 8 13
REMARK SMILES IDX 2 14 1 15 9 16 10 17 16 18 17 19 18 20 28 21 19 22 27 23
REMARK SMILES IDX 20 24 21 25 22 26 23 27 26 28 24 29 25 30
REMARK H PARENT 14 4
ROOT
ATOM      1  C   UNL     1     -15.889 -43.216  25.848  1.00  0.00     0.020 C 
ENDROOT
BRANCH   1   2
ATOM      2  C   UNL     1     -16.766 -42.938  24.864  1.00  0.00     0.102 C 
BRANCH   2   3
ATOM      3  O   UNL     1     -16.523 -43.397  23.580  1.00  0.00    -0.511 OA
ATOM      4  H   UNL     1     -15.703 -43.919  23.561  1.00  0.00     0.293 HD
ENDBRANCH   2   3
BRANCH   2   5
ATOM      5  C   UNL     1     -18.046 -42.125  25.020  1.00  0.00     0.121 C 
ATOM      6  C   UNL     1     -19.264 -42.648  24.224  1.00  0.00     0.059 C 
ATOM      7  S   UNL     1     -18.540 -42.130  26.786  1.00  0.00    -0.114 SA
ATOM      8  C   UNL     1     -20.092 -43.491  25.149  1.00  0.00    -0.029 A 
ATOM      9  C   UNL     1     -19.843 -43.292  26.503  1.00  0.00     0.015 A 
ATOM     10  C   UNL     1     -21.093 -44.368  24.751  1.00  0.00     0.055 A 
ATOM     11  C   UNL     1     -20.580 -43.952  27.479  1.00  0.00     0.065 A 
ATOM     12  C   UNL     1     -21.829 -45.067  25.719  1.00  0.00     0.161 A 
ATOM     13  C   UNL     1     -21.594 -44.842  27.095  1.00  0.00     0.161 A 
BRANCH  12  14
ATOM     14  O   UNL     1     -22.785 -45.891  25.180  1.00  0.00    -0.493 OA
ATOM     15  C   UNL     1     -22.304 -47.069  24.542  1.00  0.00     0.278 C 
ENDBRANCH  12  14
BRANCH  13  16
ATOM     16  O   UNL     1     -22.398 -45.501  27.988  1.00  0.00    -0.493 OA
ATOM     17  C   UNL     1     -23.360 -44.741  28.707  1.00  0.00     0.278 C 
ENDBRANCH  13  16
ENDBRANCH   2   5
ENDBRANCH   1   2
BRANCH   1  18
ATOM     18  C   UNL     1     -14.597 -43.975  25.721  1.00  0.00     0.067 C 
BRANCH  18  19
ATOM     19  C   UNL     1     -14.163 -44.575  27.040  1.00  0.00    -0.032 A 
ATOM     20  C   UNL     1     -13.212 -45.595  27.085  1.00  0.00     0.075 A 
ATOM     21  C   UNL     1     -14.685 -44.101  28.245  1.00  0.00     0.075 A 
ATOM     22  C   UNL     1     -12.818 -46.120  28.312  1.00  0.00     0.308 A 
ATOM     23  C   UNL     1     -14.262 -44.654  29.449  1.00  0.00     0.308 A 
ATOM     24  N   UNL     1     -13.344 -45.647  29.466  1.00  0.00    -0.201 N 
BRANCH  24  25
ATOM     25  C   UNL     1     -12.904 -46.225  30.760  1.00  0.00     0.394 C 
BRANCH  25  26
ATOM     26  C   UNL     1     -11.596 -45.628  31.173  1.00  0.00     0.027 A 
ATOM     27  C   UNL     1     -10.350 -46.345  31.215  1.00  0.00     0.022 A 
ATOM     28  C   UNL     1     -11.409 -44.310  31.556  1.00  0.00     0.075 A 
ATOM     29  C   UNL     1      -9.299 -45.560  31.638  1.00  0.00     0.065 A 
ATOM     30  S   UNL     1      -9.790 -43.963  31.983  1.00  0.00    -0.152 S 
ENDBRANCH  25  26
ENDBRANCH  24  25
ENDBRANCH  18  19
ENDBRANCH   1  18
TORSDOF 9
ENDMDL
MODEL 9
REMARK VINA RESULT:    -8.600      4.897     10.250
REMARK INTER + INTRA:         -13.645
REMARK INTER:                 -12.720
REMARK INTRA:                  -0.925
REMARK UNBOUND:                -0.771
REMARK SMILES COc1cc2c(cc1OC)S[C@@H](C(O)=CCc1cc[n+](Cc3ccsc3)cc1)C2
REMARK SMILES IDX 15 1 13 2 14 3 12 5 29 6 11 7 5 8 6 9 4 10 7 11 3 12 8 13
REMARK SMILES IDX 2 14 1 15 9 16 10 17 16 18 17 19 18 20 28 21 19 22 27 23
REMARK SMILES IDX 20 24 21 25 22 26 23 27 26 28 24 29 25 30
REMARK H PARENT 14 4
ROOT
ATOM      1  C   UNL     1     -17.339 -42.031  23.663  1.00  0.00     0.020 C 
ENDROOT
BRANCH   1   2
ATOM      2  C   UNL     1     -18.107 -41.596  22.646  1.00  0.00     0.102 C 
BRANCH   2   3
ATOM      3  O   UNL     1     -17.555 -40.782  21.670  1.00  0.00    -0.511 OA
ATOM      4  H   UNL     1     -17.717 -41.160  20.789  1.00  0.00     0.293 HD
ENDBRANCH   2   3
BRANCH   2   5
ATOM      5  C   UNL     1     -19.588 -41.906  22.457  1.00  0.00     0.121 C 
ATOM      6  C   UNL     1     -20.128 -43.090  23.292  1.00  0.00     0.059 C 
ATOM      7  S   UNL     1     -20.568 -40.436  22.946  1.00  0.00    -0.114 SA
ATOM      8  C   UNL     1     -20.755 -42.529  24.535  1.00  0.00    -0.029 A 
ATOM      9  C   UNL     1     -21.067 -41.175  24.473  1.00  0.00     0.015 A 
ATOM     10  C   UNL     1     -21.087 -43.265  25.664  1.00  0.00     0.055 A 
ATOM     11  C   UNL     1     -21.713 -40.533  25.522  1.00  0.00     0.065 A 
ATOM     12  C   UNL     1     -21.712 -42.630  26.747  1.00  0.00     0.161 A 
ATOM     13  C   UNL     1     -22.055 -41.260  26.672  1.00  0.00     0.161 A 
BRANCH  12  14
ATOM     14  O   UNL     1     -21.985 -43.481  27.790  1.00  0.00    -0.493 OA
ATOM     15  C   UNL     1     -21.257 -44.704  27.801  1.00  0.00     0.278 C 
ENDBRANCH  12  14
BRANCH  13  16
ATOM     16  O   UNL     1     -22.732 -40.720  27.734  1.00  0.00    -0.493 OA
ATOM     17  C   UNL     1     -23.421 -39.494  27.533  1.00  0.00     0.278 C 
ENDBRANCH  13  16
ENDBRANCH   2   5
ENDBRANCH   1   2
BRANCH   1  18
ATOM     18  C   UNL     1     -16.011 -42.728  23.560  1.00  0.00     0.067 C 
BRANCH  18  19
ATOM     19  C   UNL     1     -15.528 -43.224  24.905  1.00  0.00    -0.032 A 
ATOM     20  C   UNL     1     -16.052 -42.707  26.090  1.00  0.00     0.075 A 
ATOM     21  C   UNL     1     -14.564 -44.231  24.989  1.00  0.00     0.075 A 
ATOM     22  C   UNL     1     -15.602 -43.191  27.315  1.00  0.00     0.308 A 
ATOM     23  C   UNL     1     -14.143 -44.685  26.235  1.00  0.00     0.308 A 
ATOM     24  N   UNL     1     -14.663 -44.163  27.370  1.00  0.00    -0.201 N 
BRANCH  24  25
ATOM     25  C   UNL     1     -14.202 -44.660  28.690  1.00  0.00     0.394 C 
BRANCH  25  26
ATOM     26  C   UNL     1     -12.735 -44.953  28.647  1.00  0.00     0.027 A 
ATOM     27  C   UNL     1     -11.709 -43.954  28.512  1.00  0.00     0.022 A 
ATOM     28  C   UNL     1     -12.173 -46.215  28.742  1.00  0.00     0.075 A 
ATOM     29  C   UNL     1     -10.441 -44.493  28.491  1.00  0.00     0.065 A 
ATOM     30  S   UNL     1     -10.466 -46.194  28.638  1.00  0.00    -0.152 S 
ENDBRANCH  25  26
ENDBRANCH  24  25
ENDBRANCH  18  19
ENDBRANCH   1  18
TORSDOF 9
ENDMDL
