MODEL 1
REMARK VINA RESULT:   -12.179      0.000      0.000
REMARK INTER + INTRA:         -17.579
REMARK INTER:                 -16.807
REMARK INTRA:                  -0.773
REMARK UNBOUND:                -0.773
REMARK SMILES O=C1C(=NCCCN=c2c3c([nH]c4cc(Cl)ccc24)CCCC3)CC(=O)c2c(O)cccc21
REMARK SMILES IDX 6 1 7 2 8 3 9 4 12 5 11 6 13 7 10 8 20 9 14 10 19 11 23 12
REMARK SMILES IDX 21 13 15 14 18 15 22 16 17 17 16 19 5 20 4 21 3 22 24 23
REMARK SMILES IDX 2 24 25 25 33 26 27 27 32 28 28 29 31 30 30 31 1 32 26 33
REMARK SMILES IDX 29 34
REMARK H PARENT 12 18 29 35
ROOT
ATOM      1  C   UNL     1     -12.533 -46.150  28.778  1.00  0.00     0.047 C 
ENDROOT
BRANCH   1   2
ATOM      2  C   UNL     1     -11.191 -46.447  29.454  1.00  0.00     0.145 C 
BRANCH   2   3
ATOM      3  N   UNL     1     -11.328 -46.193  30.876  1.00  0.00    -0.284 NA
BRANCH   3   4
ATOM      4  C   UNL     1     -11.234 -45.035  31.443  1.00  0.00     0.072 A 
ATOM      5  N   UNL     1     -10.695 -43.034  33.352  1.00  0.00    -0.358 N 
ATOM      6  C   UNL     1      -9.651 -43.593  32.646  1.00  0.00     0.021 A 
ATOM      7  C   UNL     1     -12.017 -43.172  32.900  1.00  0.00     0.049 A 
ATOM      8  C   UNL     1      -9.835 -44.531  31.697  1.00  0.00    -0.003 A 
ATOM      9  C   UNL     1      -8.263 -43.106  33.006  1.00  0.00     0.054 C 
ATOM     10  C   UNL     1     -13.024 -42.358  33.434  1.00  0.00     0.047 A 
ATOM     11  C   UNL     1     -12.337 -44.133  31.920  1.00  0.00     0.024 A 
ATOM     12  C   UNL     1      -8.716 -45.160  30.909  1.00  0.00     0.039 C 
ATOM     13  C   UNL     1      -7.136 -43.994  32.477  1.00  0.00     0.007 C 
ATOM     14  C   UNL     1     -14.323 -42.441  32.939  1.00  0.00     0.043 A 
ATOM     15  C   UNL     1     -13.634 -44.162  31.394  1.00  0.00     0.014 A 
ATOM     16  C   UNL     1      -7.395 -44.399  31.033  1.00  0.00     0.005 C 
ATOM     17  C   UNL     1     -14.628 -43.325  31.909  1.00  0.00     0.021 A 
ATOM     18  H   UNL     1     -10.481 -42.226  33.926  1.00  0.00     0.166 HD
ATOM     19  Cl  UNL     1     -15.551 -41.420  33.579  1.00  0.00    -0.084 Cl
ENDBRANCH   3   4
ENDBRANCH   2   3
ENDBRANCH   1   2
BRANCH   1  20
ATOM     20  C   UNL     1     -12.440 -45.020  27.753  1.00  0.00     0.144 C 
BRANCH  20  21
ATOM     21  N   UNL     1     -13.612 -45.040  26.877  1.00  0.00    -0.285 NA
BRANCH  21  22
ATOM     22  C   UNL     1     -14.446 -44.057  26.863  1.00  0.00     0.090 C 
ATOM     23  C   UNL     1     -15.229 -43.537  28.025  1.00  0.00     0.141 C 
ATOM     24  C   UNL     1     -14.671 -43.346  25.546  1.00  0.00     0.208 C 
ATOM     25  C   UNL     1     -16.432 -42.694  27.700  1.00  0.00     0.173 C 
ATOM     26  C   UNL     1     -16.042 -42.916  25.256  1.00  0.00     0.038 A 
ATOM     27  C   UNL     1     -16.931 -42.659  26.300  1.00  0.00     0.071 A 
ATOM     28  C   UNL     1     -16.438 -42.774  23.919  1.00  0.00     0.013 A 
ATOM     29  C   UNL     1     -18.249 -42.301  25.984  1.00  0.00     0.127 A 
ATOM     30  C   UNL     1     -17.746 -42.400  23.619  1.00  0.00     0.005 A 
ATOM     31  C   UNL     1     -18.655 -42.173  24.651  1.00  0.00     0.047 A 
ATOM     32  O   UNL     1     -13.760 -43.168  24.755  1.00  0.00    -0.287 OA
ATOM     33  O   UNL     1     -16.980 -42.045  28.589  1.00  0.00    -0.294 OA
BRANCH  29  34
ATOM     34  O   UNL     1     -19.173 -42.109  26.971  1.00  0.00    -0.507 OA
ATOM     35  H   UNL     1     -18.744 -42.113  27.842  1.00  0.00     0.293 HD
ENDBRANCH  29  34
ENDBRANCH  21  22
ENDBRANCH  20  21
ENDBRANCH   1  20
TORSDOF 7
ENDMDL
MODEL 2
REMARK VINA RESULT:   -12.162      1.877      3.705
REMARK INTER + INTRA:         -17.556
REMARK INTER:                 -16.586
REMARK INTRA:                  -0.970
REMARK UNBOUND:                -0.773
REMARK SMILES O=C1C(=NCCCN=c2c3c([nH]c4cc(Cl)ccc24)CCCC3)CC(=O)c2c(O)cccc21
REMARK SMILES IDX 6 1 7 2 8 3 9 4 12 5 11 6 13 7 10 8 20 9 14 10 19 11 23 12
REMARK SMILES IDX 21 13 15 14 18 15 22 16 17 17 16 19 5 20 4 21 3 22 24 23
REMARK SMILES IDX 2 24 25 25 33 26 27 27 32 28 28 29 31 30 30 31 1 32 26 33
REMARK SMILES IDX 29 34
REMARK H PARENT 12 18 29 35
ROOT
ATOM      1  C   UNL     1     -11.718 -46.455  27.899  1.00  0.00     0.047 C 
ENDROOT
BRANCH   1   2
ATOM      2  C   UNL     1     -10.603 -45.916  28.800  1.00  0.00     0.145 C 
BRANCH   2   3
ATOM      3  N   UNL     1     -10.994 -46.117  30.183  1.00  0.00    -0.284 NA
BRANCH   3   4
ATOM      4  C   UNL     1     -10.775 -45.290  31.152  1.00  0.00     0.072 A 
ATOM      5  N   UNL     1     -10.642 -42.905  32.647  1.00  0.00    -0.358 N 
ATOM      6  C   UNL     1     -11.862 -43.524  32.470  1.00  0.00     0.021 A 
ATOM      7  C   UNL     1      -9.447 -43.604  32.416  1.00  0.00     0.049 A 
ATOM      8  C   UNL     1     -11.998 -44.682  31.795  1.00  0.00    -0.003 A 
ATOM      9  C   UNL     1     -13.063 -42.822  33.067  1.00  0.00     0.054 C 
ATOM     10  C   UNL     1      -8.234 -43.083  32.887  1.00  0.00     0.047 A 
ATOM     11  C   UNL     1      -9.460 -44.820  31.705  1.00  0.00     0.024 A 
ATOM     12  C   UNL     1     -13.314 -45.382  31.585  1.00  0.00     0.039 C 
ATOM     13  C   UNL     1     -14.406 -43.333  32.544  1.00  0.00     0.007 C 
ATOM     14  C   UNL     1      -7.056 -43.806  32.724  1.00  0.00     0.043 A 
ATOM     15  C   UNL     1      -8.276 -45.560  31.602  1.00  0.00     0.014 A 
ATOM     16  C   UNL     1     -14.425 -44.854  32.493  1.00  0.00     0.005 C 
ATOM     17  C   UNL     1      -7.074 -45.050  32.101  1.00  0.00     0.021 A 
ATOM     18  H   UNL     1     -10.611 -42.131  33.301  1.00  0.00     0.166 HD
ATOM     19  Cl  UNL     1      -5.573 -43.175  33.326  1.00  0.00    -0.084 Cl
ENDBRANCH   3   4
ENDBRANCH   2   3
ENDBRANCH   1   2
BRANCH   1  20
ATOM     20  C   UNL     1     -13.055 -45.750  28.129  1.00  0.00     0.144 C 
BRANCH  20  21
ATOM     21  N   UNL     1     -13.509 -45.119  26.889  1.00  0.00    -0.285 NA
BRANCH  21  22
ATOM     22  C   UNL     1     -14.340 -44.134  26.913  1.00  0.00     0.090 C 
ATOM     23  C   UNL     1     -15.071 -43.614  28.109  1.00  0.00     0.141 C 
ATOM     24  C   UNL     1     -14.622 -43.421  25.608  1.00  0.00     0.208 C 
ATOM     25  C   UNL     1     -16.286 -42.769  27.838  1.00  0.00     0.173 C 
ATOM     26  C   UNL     1     -16.004 -42.989  25.379  1.00  0.00     0.038 A 
ATOM     27  C   UNL     1     -16.845 -42.731  26.461  1.00  0.00     0.071 A 
ATOM     28  C   UNL     1     -16.457 -42.844  24.061  1.00  0.00     0.013 A 
ATOM     29  C   UNL     1     -18.175 -42.370  26.204  1.00  0.00     0.127 A 
ATOM     30  C   UNL     1     -17.777 -42.468  23.819  1.00  0.00     0.005 A 
ATOM     31  C   UNL     1     -18.639 -42.240  24.890  1.00  0.00     0.047 A 
ATOM     32  O   UNL     1     -13.746 -43.244  24.778  1.00  0.00    -0.287 OA
ATOM     33  O   UNL     1     -16.793 -42.120  28.751  1.00  0.00    -0.294 OA
BRANCH  29  34
ATOM     34  O   UNL     1     -19.055 -42.178  27.230  1.00  0.00    -0.507 OA
ATOM     35  H   UNL     1     -18.594 -41.826  28.010  1.00  0.00     0.293 HD
ENDBRANCH  29  34
ENDBRANCH  21  22
ENDBRANCH  20  21
ENDBRANCH   1  20
TORSDOF 7
ENDMDL
MODEL 3
REMARK VINA RESULT:   -11.756      2.179      4.212
REMARK INTER + INTRA:         -16.996
REMARK INTER:                 -16.332
REMARK INTRA:                  -0.664
REMARK UNBOUND:                -0.773
REMARK SMILES O=C1C(=NCCCN=c2c3c([nH]c4cc(Cl)ccc24)CCCC3)CC(=O)c2c(O)cccc21
REMARK SMILES IDX 6 1 7 2 8 3 9 4 12 5 11 6 13 7 10 8 20 9 14 10 19 11 23 12
REMARK SMILES IDX 21 13 15 14 18 15 22 16 17 17 16 19 5 20 4 21 3 22 24 23
REMARK SMILES IDX 2 24 25 25 33 26 27 27 32 28 28 29 31 30 30 31 1 32 26 33
REMARK SMILES IDX 29 34
REMARK H PARENT 12 18 29 35
ROOT
ATOM      1  C   UNL     1     -11.525 -43.959  28.902  1.00  0.00     0.047 C 
ENDROOT
BRANCH   1   2
ATOM      2  C   UNL     1     -11.954 -45.394  29.224  1.00  0.00     0.145 C 
BRANCH   2   3
ATOM      3  N   UNL     1     -11.351 -45.780  30.486  1.00  0.00    -0.284 NA
BRANCH   3   4
ATOM      4  C   UNL     1     -11.036 -44.972  31.444  1.00  0.00     0.072 A 
ATOM      5  N   UNL     1     -10.699 -42.608  32.941  1.00  0.00    -0.358 N 
ATOM      6  C   UNL     1     -11.955 -43.167  32.833  1.00  0.00     0.021 A 
ATOM      7  C   UNL     1      -9.555 -43.363  32.636  1.00  0.00     0.049 A 
ATOM      8  C   UNL     1     -12.187 -44.311  32.161  1.00  0.00    -0.003 A 
ATOM      9  C   UNL     1     -13.083 -42.411  33.504  1.00  0.00     0.054 C 
ATOM     10  C   UNL     1      -8.292 -42.905  33.037  1.00  0.00     0.047 A 
ATOM     11  C   UNL     1      -9.669 -44.571  31.920  1.00  0.00     0.024 A 
ATOM     12  C   UNL     1     -13.546 -44.945  32.027  1.00  0.00     0.039 C 
ATOM     13  C   UNL     1     -14.478 -42.852  33.060  1.00  0.00     0.007 C 
ATOM     14  C   UNL     1      -7.162 -43.683  32.800  1.00  0.00     0.043 A 
ATOM     15  C   UNL     1      -8.530 -45.367  31.744  1.00  0.00     0.014 A 
ATOM     16  C   UNL     1     -14.574 -44.371  33.002  1.00  0.00     0.005 C 
ATOM     17  C   UNL     1      -7.277 -44.920  32.173  1.00  0.00     0.021 A 
ATOM     18  H   UNL     1     -10.591 -41.842  33.596  1.00  0.00     0.166 HD
ATOM     19  Cl  UNL     1      -5.617 -43.129  33.317  1.00  0.00    -0.084 Cl
ENDBRANCH   3   4
ENDBRANCH   2   3
ENDBRANCH   1   2
BRANCH   1  20
ATOM     20  C   UNL     1     -11.649 -43.625  27.415  1.00  0.00     0.144 C 
BRANCH  20  21
ATOM     21  N   UNL     1     -12.758 -42.695  27.201  1.00  0.00    -0.285 NA
BRANCH  21  22
ATOM     22  C   UNL     1     -13.810 -43.057  26.549  1.00  0.00     0.090 C 
ATOM     23  C   UNL     1     -13.923 -43.235  25.069  1.00  0.00     0.141 C 
ATOM     24  C   UNL     1     -15.070 -43.331  27.342  1.00  0.00     0.208 C 
ATOM     25  C   UNL     1     -15.313 -43.235  24.496  1.00  0.00     0.173 C 
ATOM     26  C   UNL     1     -16.335 -42.902  26.737  1.00  0.00     0.038 A 
ATOM     27  C   UNL     1     -16.445 -42.789  25.351  1.00  0.00     0.071 A 
ATOM     28  C   UNL     1     -17.419 -42.609  27.574  1.00  0.00     0.013 A 
ATOM     29  C   UNL     1     -17.653 -42.327  24.811  1.00  0.00     0.127 A 
ATOM     30  C   UNL     1     -18.620 -42.168  27.024  1.00  0.00     0.005 A 
ATOM     31  C   UNL     1     -18.735 -42.016  25.643  1.00  0.00     0.047 A 
ATOM     32  O   UNL     1     -15.027 -43.854  28.443  1.00  0.00    -0.287 OA
ATOM     33  O   UNL     1     -15.496 -43.608  23.339  1.00  0.00    -0.294 OA
BRANCH  29  34
ATOM     34  O   UNL     1     -17.784 -42.131  23.466  1.00  0.00    -0.507 OA
ATOM     35  H   UNL     1     -18.685 -42.351  23.178  1.00  0.00     0.293 HD
ENDBRANCH  29  34
ENDBRANCH  21  22
ENDBRANCH  20  21
ENDBRANCH   1  20
TORSDOF 7
ENDMDL
MODEL 4
REMARK VINA RESULT:   -11.596      3.942      9.880
REMARK INTER + INTRA:         -16.776
REMARK INTER:                 -16.266
REMARK INTRA:                  -0.509
REMARK UNBOUND:                -0.773
REMARK SMILES O=C1C(=NCCCN=c2c3c([nH]c4cc(Cl)ccc24)CCCC3)CC(=O)c2c(O)cccc21
REMARK SMILES IDX 6 1 7 2 8 3 9 4 12 5 11 6 13 7 10 8 20 9 14 10 19 11 23 12
REMARK SMILES IDX 21 13 15 14 18 15 22 16 17 17 16 19 5 20 4 21 3 22 24 23
REMARK SMILES IDX 2 24 25 25 33 26 27 27 32 28 28 29 31 30 30 31 1 32 26 33
REMARK SMILES IDX 29 34
REMARK H PARENT 12 18 29 35
ROOT
ATOM      1  C   UNL     1     -13.770 -43.399  25.245  1.00  0.00     0.047 C 
ENDROOT
BRANCH   1   2
ATOM      2  C   UNL     1     -14.677 -42.414  24.500  1.00  0.00     0.145 C 
BRANCH   2   3
ATOM      3  N   UNL     1     -15.997 -43.005  24.384  1.00  0.00    -0.284 NA
BRANCH   3   4
ATOM      4  C   UNL     1     -17.116 -42.373  24.519  1.00  0.00     0.072 A 
ATOM      5  N   UNL     1     -19.853 -41.851  24.941  1.00  0.00    -0.358 N 
ATOM      6  C   UNL     1     -19.051 -42.165  26.018  1.00  0.00     0.021 A 
ATOM      7  C   UNL     1     -19.285 -41.440  23.725  1.00  0.00     0.049 A 
ATOM      8  C   UNL     1     -17.729 -42.395  25.898  1.00  0.00    -0.003 A 
ATOM      9  C   UNL     1     -19.741 -42.255  27.363  1.00  0.00     0.054 C 
ATOM     10  C   UNL     1     -20.089 -40.834  22.750  1.00  0.00     0.047 A 
ATOM     11  C   UNL     1     -17.913 -41.644  23.475  1.00  0.00     0.024 A 
ATOM     12  C   UNL     1     -16.828 -42.739  27.054  1.00  0.00     0.039 C 
ATOM     13  C   UNL     1     -18.912 -42.950  28.443  1.00  0.00     0.007 C 
ATOM     14  C   UNL     1     -19.518 -40.360  21.572  1.00  0.00     0.043 A 
ATOM     15  C   UNL     1     -17.347 -41.110  22.311  1.00  0.00     0.014 A 
ATOM     16  C   UNL     1     -17.468 -42.465  28.415  1.00  0.00     0.005 C 
ATOM     17  C   UNL     1     -18.149 -40.478  21.356  1.00  0.00     0.021 A 
ATOM     18  H   UNL     1     -20.795 -41.536  25.145  1.00  0.00     0.166 HD
ATOM     19  Cl  UNL     1     -20.506 -39.594  20.390  1.00  0.00    -0.084 Cl
ENDBRANCH   3   4
ENDBRANCH   2   3
ENDBRANCH   1   2
BRANCH   1  20
ATOM     20  C   UNL     1     -13.184 -42.807  26.527  1.00  0.00     0.144 C 
BRANCH  20  21
ATOM     21  N   UNL     1     -12.543 -43.859  27.317  1.00  0.00    -0.285 NA
BRANCH  21  22
ATOM     22  C   UNL     1     -11.631 -43.574  28.183  1.00  0.00     0.090 C 
ATOM     23  C   UNL     1     -10.438 -42.700  27.965  1.00  0.00     0.141 C 
ATOM     24  C   UNL     1     -11.760 -44.178  29.564  1.00  0.00     0.208 C 
ATOM     25  C   UNL     1      -9.306 -42.853  28.943  1.00  0.00     0.173 C 
ATOM     26  C   UNL     1     -10.519 -44.612  30.212  1.00  0.00     0.038 A 
ATOM     27  C   UNL     1      -9.305 -44.017  29.869  1.00  0.00     0.071 A 
ATOM     28  C   UNL     1     -10.577 -45.631  31.173  1.00  0.00     0.013 A 
ATOM     29  C   UNL     1      -8.132 -44.493  30.470  1.00  0.00     0.127 A 
ATOM     30  C   UNL     1      -9.406 -46.082  31.776  1.00  0.00     0.005 A 
ATOM     31  C   UNL     1      -8.181 -45.521  31.418  1.00  0.00     0.047 A 
ATOM     32  O   UNL     1     -12.848 -44.323  30.096  1.00  0.00    -0.287 OA
ATOM     33  O   UNL     1      -8.406 -42.016  28.970  1.00  0.00    -0.294 OA
BRANCH  29  34
ATOM     34  O   UNL     1      -6.913 -43.991  30.113  1.00  0.00    -0.507 OA
ATOM     35  H   UNL     1      -6.564 -44.467  29.342  1.00  0.00     0.293 HD
ENDBRANCH  29  34
ENDBRANCH  21  22
ENDBRANCH  20  21
ENDBRANCH   1  20
TORSDOF 7
ENDMDL
MODEL 5
REMARK VINA RESULT:   -11.309      4.024      9.642
REMARK INTER + INTRA:         -16.379
REMARK INTER:                 -15.907
REMARK INTRA:                  -0.473
REMARK UNBOUND:                -0.773
REMARK SMILES O=C1C(=NCCCN=c2c3c([nH]c4cc(Cl)ccc24)CCCC3)CC(=O)c2c(O)cccc21
REMARK SMILES IDX 6 1 7 2 8 3 9 4 12 5 11 6 13 7 10 8 20 9 14 10 19 11 23 12
REMARK SMILES IDX 21 13 15 14 18 15 22 16 17 17 16 19 5 20 4 21 3 22 24 23
REMARK SMILES IDX 2 24 25 25 33 26 27 27 32 28 28 29 31 30 30 31 1 32 26 33
REMARK SMILES IDX 29 34
REMARK H PARENT 12 18 29 35
ROOT
ATOM      1  C   UNL     1     -14.596 -42.185  25.751  1.00  0.00     0.047 C 
ENDROOT
BRANCH   1   2
ATOM      2  C   UNL     1     -15.046 -42.217  24.288  1.00  0.00     0.145 C 
BRANCH   2   3
ATOM      3  N   UNL     1     -16.351 -42.848  24.223  1.00  0.00    -0.284 NA
BRANCH   3   4
ATOM      4  C   UNL     1     -17.485 -42.231  24.275  1.00  0.00     0.072 A 
ATOM      5  N   UNL     1     -20.257 -41.750  24.442  1.00  0.00    -0.358 N 
ATOM      6  C   UNL     1     -19.564 -42.110  25.579  1.00  0.00     0.021 A 
ATOM      7  C   UNL     1     -19.574 -41.277  23.310  1.00  0.00     0.049 A 
ATOM      8  C   UNL     1     -18.234 -42.325  25.582  1.00  0.00    -0.003 A 
ATOM      9  C   UNL     1     -20.384 -42.270  26.841  1.00  0.00     0.054 C 
ATOM     10  C   UNL     1     -20.284 -40.630  22.289  1.00  0.00     0.047 A 
ATOM     11  C   UNL     1     -18.182 -41.459  23.191  1.00  0.00     0.024 A 
ATOM     12  C   UNL     1     -17.450 -42.718  26.805  1.00  0.00     0.039 C 
ATOM     13  C   UNL     1     -19.659 -43.011  27.965  1.00  0.00     0.007 C 
ATOM     14  C   UNL     1     -19.603 -40.096  21.198  1.00  0.00     0.043 A 
ATOM     15  C   UNL     1     -17.508 -40.864  22.117  1.00  0.00     0.014 A 
ATOM     16  C   UNL     1     -18.227 -42.515  28.106  1.00  0.00     0.005 C 
ATOM     17  C   UNL     1     -18.218 -40.193  21.117  1.00  0.00     0.021 A 
ATOM     18  H   UNL     1     -21.218 -41.452  24.565  1.00  0.00     0.166 HD
ATOM     19  Cl  UNL     1     -20.476 -39.280  19.960  1.00  0.00    -0.084 Cl
ENDBRANCH   3   4
ENDBRANCH   2   3
ENDBRANCH   1   2
BRANCH   1  20
ATOM     20  C   UNL     1     -13.540 -43.245  26.067  1.00  0.00     0.144 C 
BRANCH  20  21
ATOM     21  N   UNL     1     -14.181 -44.452  26.589  1.00  0.00    -0.285 NA
BRANCH  21  22
ATOM     22  C   UNL     1     -13.789 -44.985  27.696  1.00  0.00     0.090 C 
ATOM     23  C   UNL     1     -14.272 -44.643  29.069  1.00  0.00     0.141 C 
ATOM     24  C   UNL     1     -12.731 -46.064  27.620  1.00  0.00     0.208 C 
ATOM     25  C   UNL     1     -13.391 -45.063  30.214  1.00  0.00     0.173 C 
ATOM     26  C   UNL     1     -11.715 -46.067  28.677  1.00  0.00     0.038 A 
ATOM     27  C   UNL     1     -12.005 -45.521  29.927  1.00  0.00     0.071 A 
ATOM     28  C   UNL     1     -10.458 -46.622  28.405  1.00  0.00     0.013 A 
ATOM     29  C   UNL     1     -10.993 -45.493  30.897  1.00  0.00     0.127 A 
ATOM     30  C   UNL     1      -9.467 -46.604  29.383  1.00  0.00     0.005 A 
ATOM     31  C   UNL     1      -9.730 -46.031  30.627  1.00  0.00     0.047 A 
ATOM     32  O   UNL     1     -12.711 -46.872  26.706  1.00  0.00    -0.287 OA
ATOM     33  O   UNL     1     -13.827 -45.029  31.362  1.00  0.00    -0.294 OA
BRANCH  29  34
ATOM     34  O   UNL     1     -11.208 -44.905  32.110  1.00  0.00    -0.507 OA
ATOM     35  H   UNL     1     -11.760 -44.112  32.009  1.00  0.00     0.293 HD
ENDBRANCH  29  34
ENDBRANCH  21  22
ENDBRANCH  20  21
ENDBRANCH   1  20
TORSDOF 7
ENDMDL
MODEL 6
REMARK VINA RESULT:   -10.796      4.227     10.282
REMARK INTER + INTRA:         -15.672
REMARK INTER:                 -15.147
REMARK INTRA:                  -0.524
REMARK UNBOUND:                -0.773
REMARK SMILES O=C1C(=NCCCN=c2c3c([nH]c4cc(Cl)ccc24)CCCC3)CC(=O)c2c(O)cccc21
REMARK SMILES IDX 6 1 7 2 8 3 9 4 12 5 11 6 13 7 10 8 20 9 14 10 19 11 23 12
REMARK SMILES IDX 21 13 15 14 18 15 22 16 17 17 16 19 5 20 4 21 3 22 24 23
REMARK SMILES IDX 2 24 25 25 33 26 27 27 32 28 28 29 31 30 30 31 1 32 26 33
REMARK SMILES IDX 29 34
REMARK H PARENT 12 18 29 35
ROOT
ATOM      1  C   UNL     1     -15.514 -43.431  24.026  1.00  0.00     0.047 C 
ENDROOT
BRANCH   1   2
ATOM      2  C   UNL     1     -16.257 -42.344  23.242  1.00  0.00     0.145 C 
BRANCH   2   3
ATOM      3  N   UNL     1     -17.673 -42.658  23.255  1.00  0.00    -0.284 NA
BRANCH   3   4
ATOM      4  C   UNL     1     -18.625 -41.819  23.506  1.00  0.00     0.072 A 
ATOM      5  N   UNL     1     -21.160 -40.775  24.155  1.00  0.00    -0.358 N 
ATOM      6  C   UNL     1     -20.377 -41.317  25.152  1.00  0.00     0.021 A 
ATOM      7  C   UNL     1     -20.595 -40.410  22.923  1.00  0.00     0.049 A 
ATOM      8  C   UNL     1     -19.143 -41.806  24.923  1.00  0.00    -0.003 A 
ATOM      9  C   UNL     1     -20.986 -41.352  26.538  1.00  0.00     0.054 C 
ATOM     10  C   UNL     1     -21.313 -39.589  22.043  1.00  0.00     0.047 A 
ATOM     11  C   UNL     1     -19.314 -40.875  22.562  1.00  0.00     0.024 A 
ATOM     12  C   UNL     1     -18.264 -42.403  25.989  1.00  0.00     0.039 C 
ATOM     13  C   UNL     1     -20.256 -42.273  27.516  1.00  0.00     0.007 C 
ATOM     14  C   UNL     1     -20.729 -39.166  20.852  1.00  0.00     0.043 A 
ATOM     15  C   UNL     1     -18.722 -40.393  21.389  1.00  0.00     0.014 A 
ATOM     16  C   UNL     1     -18.748 -42.094  27.406  1.00  0.00     0.005 C 
ATOM     17  C   UNL     1     -19.431 -39.548  20.530  1.00  0.00     0.021 A 
ATOM     18  H   UNL     1     -22.000 -40.287  24.445  1.00  0.00     0.166 HD
ATOM     19  Cl  UNL     1     -21.605 -38.137  19.788  1.00  0.00    -0.084 Cl
ENDBRANCH   3   4
ENDBRANCH   2   3
ENDBRANCH   1   2
BRANCH   1  20
ATOM     20  C   UNL     1     -14.764 -42.876  25.237  1.00  0.00     0.144 C 
BRANCH  20  21
ATOM     21  N   UNL     1     -14.020 -43.949  25.899  1.00  0.00    -0.285 NA
BRANCH  21  22
ATOM     22  C   UNL     1     -13.326 -43.715  26.960  1.00  0.00     0.090 C 
ATOM     23  C   UNL     1     -12.016 -42.997  27.028  1.00  0.00     0.141 C 
ATOM     24  C   UNL     1     -13.871 -44.214  28.280  1.00  0.00     0.208 C 
ATOM     25  C   UNL     1     -11.194 -43.215  28.268  1.00  0.00     0.173 C 
ATOM     26  C   UNL     1     -12.896 -44.745  29.238  1.00  0.00     0.038 A 
ATOM     27  C   UNL     1     -11.570 -44.312  29.199  1.00  0.00     0.071 A 
ATOM     28  C   UNL     1     -13.320 -45.688  30.183  1.00  0.00     0.013 A 
ATOM     29  C   UNL     1     -10.654 -44.879  30.096  1.00  0.00     0.127 A 
ATOM     30  C   UNL     1     -12.403 -46.231  31.080  1.00  0.00     0.005 A 
ATOM     31  C   UNL     1     -11.068 -45.834  31.031  1.00  0.00     0.047 A 
ATOM     32  O   UNL     1     -15.067 -44.202  28.520  1.00  0.00    -0.287 OA
ATOM     33  O   UNL     1     -10.232 -42.485  28.498  1.00  0.00    -0.294 OA
BRANCH  29  34
ATOM     34  O   UNL     1      -9.333 -44.541  30.047  1.00  0.00    -0.507 OA
ATOM     35  H   UNL     1      -8.822 -45.077  30.675  1.00  0.00     0.293 HD
ENDBRANCH  29  34
ENDBRANCH  21  22
ENDBRANCH  20  21
ENDBRANCH   1  20
TORSDOF 7
ENDMDL
MODEL 7
REMARK VINA RESULT:   -10.762      3.458      8.338
REMARK INTER + INTRA:         -15.625
REMARK INTER:                 -14.447
REMARK INTRA:                  -1.178
REMARK UNBOUND:                -0.773
REMARK SMILES O=C1C(=NCCCN=c2c3c([nH]c4cc(Cl)ccc24)CCCC3)CC(=O)c2c(O)cccc21
REMARK SMILES IDX 6 1 7 2 8 3 9 4 12 5 11 6 13 7 10 8 20 9 14 10 19 11 23 12
REMARK SMILES IDX 21 13 15 14 18 15 22 16 17 17 16 19 5 20 4 21 3 22 24 23
REMARK SMILES IDX 2 24 25 25 33 26 27 27 32 28 28 29 31 30 30 31 1 32 26 33
REMARK SMILES IDX 29 34
REMARK H PARENT 12 18 29 35
ROOT
ATOM      1  C   UNL     1     -15.563 -43.338  30.301  1.00  0.00     0.047 C 
ENDROOT
BRANCH   1   2
ATOM      2  C   UNL     1     -16.832 -42.795  29.637  1.00  0.00     0.145 C 
BRANCH   2   3
ATOM      3  N   UNL     1     -16.455 -42.142  28.397  1.00  0.00    -0.284 NA
BRANCH   3   4
ATOM      4  C   UNL     1     -16.939 -42.413  27.229  1.00  0.00     0.072 A 
ATOM      5  N   UNL     1     -17.355 -42.395  24.442  1.00  0.00    -0.358 N 
ATOM      6  C   UNL     1     -16.262 -43.060  24.958  1.00  0.00     0.021 A 
ATOM      7  C   UNL     1     -18.432 -42.045  25.270  1.00  0.00     0.049 A 
ATOM      8  C   UNL     1     -16.016 -43.138  26.281  1.00  0.00    -0.003 A 
ATOM      9  C   UNL     1     -15.328 -43.696  23.951  1.00  0.00     0.054 C 
ATOM     10  C   UNL     1     -19.652 -41.656  24.699  1.00  0.00     0.047 A 
ATOM     11  C   UNL     1     -18.291 -42.070  26.672  1.00  0.00     0.024 A 
ATOM     12  C   UNL     1     -14.834 -43.857  26.874  1.00  0.00     0.039 C 
ATOM     13  C   UNL     1     -13.968 -44.094  24.527  1.00  0.00     0.007 C 
ATOM     14  C   UNL     1     -20.745 -41.376  25.514  1.00  0.00     0.043 A 
ATOM     15  C   UNL     1     -19.416 -41.843  27.474  1.00  0.00     0.014 A 
ATOM     16  C   UNL     1     -14.131 -44.778  25.877  1.00  0.00     0.005 C 
ATOM     17  C   UNL     1     -20.639 -41.486  26.897  1.00  0.00     0.021 A 
ATOM     18  H   UNL     1     -17.548 -42.526  23.456  1.00  0.00     0.166 HD
ATOM     19  Cl  UNL     1     -22.248 -40.926  24.807  1.00  0.00    -0.084 Cl
ENDBRANCH   3   4
ENDBRANCH   2   3
ENDBRANCH   1   2
BRANCH   1  20
ATOM     20  C   UNL     1     -15.334 -42.759  31.697  1.00  0.00     0.144 C 
BRANCH  20  21
ATOM     21  N   UNL     1     -14.542 -43.690  32.502  1.00  0.00    -0.285 NA
BRANCH  21  22
ATOM     22  C   UNL     1     -13.366 -44.058  32.123  1.00  0.00     0.090 C 
ATOM     23  C   UNL     1     -12.089 -43.306  32.323  1.00  0.00     0.141 C 
ATOM     24  C   UNL     1     -13.244 -45.381  31.398  1.00  0.00     0.208 C 
ATOM     25  C   UNL     1     -10.934 -43.697  31.443  1.00  0.00     0.173 C 
ATOM     26  C   UNL     1     -12.283 -45.438  30.291  1.00  0.00     0.038 A 
ATOM     27  C   UNL     1     -11.187 -44.576  30.270  1.00  0.00     0.071 A 
ATOM     28  C   UNL     1     -12.490 -46.368  29.264  1.00  0.00     0.013 A 
ATOM     29  C   UNL     1     -10.319 -44.624  29.170  1.00  0.00     0.127 A 
ATOM     30  C   UNL     1     -11.610 -46.418  28.186  1.00  0.00     0.005 A 
ATOM     31  C   UNL     1     -10.529 -45.538  28.133  1.00  0.00     0.047 A 
ATOM     32  O   UNL     1     -13.933 -46.340  31.702  1.00  0.00    -0.287 OA
ATOM     33  O   UNL     1      -9.803 -43.295  31.706  1.00  0.00    -0.294 OA
BRANCH  29  34
ATOM     34  O   UNL     1      -9.274 -43.750  29.071  1.00  0.00    -0.507 OA
ATOM     35  H   UNL     1      -9.334 -43.243  28.245  1.00  0.00     0.293 HD
ENDBRANCH  29  34
ENDBRANCH  21  22
ENDBRANCH  20  21
ENDBRANCH   1  20
TORSDOF 7
ENDMDL
MODEL 8
REMARK VINA RESULT:   -10.129      6.426     10.798
REMARK INTER + INTRA:         -14.751
REMARK INTER:                 -13.738
REMARK INTRA:                  -1.013
REMARK UNBOUND:                -0.773
REMARK SMILES O=C1C(=NCCCN=c2c3c([nH]c4cc(Cl)ccc24)CCCC3)CC(=O)c2c(O)cccc21
REMARK SMILES IDX 6 1 7 2 8 3 9 4 12 5 11 6 13 7 10 8 20 9 14 10 19 11 23 12
REMARK SMILES IDX 21 13 15 14 18 15 22 16 17 17 16 19 5 20 4 21 3 22 24 23
REMARK SMILES IDX 2 24 25 25 33 26 27 27 32 28 28 29 31 30 30 31 1 32 26 33
REMARK SMILES IDX 29 34
REMARK H PARENT 12 18 29 35
ROOT
ATOM      1  C   UNL     1     -22.034 -43.951  27.224  1.00  0.00     0.047 C 
ENDROOT
BRANCH   1   2
ATOM      2  C   UNL     1     -20.618 -43.480  27.567  1.00  0.00     0.145 C 
BRANCH   2   3
ATOM      3  N   UNL     1     -20.345 -42.267  26.818  1.00  0.00    -0.284 NA
BRANCH   3   4
ATOM      4  C   UNL     1     -19.357 -42.095  26.003  1.00  0.00     0.072 A 
ATOM      5  N   UNL     1     -17.645 -42.386  23.784  1.00  0.00    -0.358 N 
ATOM      6  C   UNL     1     -18.848 -41.731  23.628  1.00  0.00     0.021 A 
ATOM      7  C   UNL     1     -17.103 -42.587  25.063  1.00  0.00     0.049 A 
ATOM      8  C   UNL     1     -19.703 -41.527  24.649  1.00  0.00    -0.003 A 
ATOM      9  C   UNL     1     -19.177 -41.258  22.227  1.00  0.00     0.054 C 
ATOM     10  C   UNL     1     -15.761 -42.966  25.199  1.00  0.00     0.047 A 
ATOM     11  C   UNL     1     -17.905 -42.421  26.210  1.00  0.00     0.024 A 
ATOM     12  C   UNL     1     -21.022 -40.815  24.511  1.00  0.00     0.039 C 
ATOM     13  C   UNL     1     -20.644 -40.877  22.027  1.00  0.00     0.007 C 
ATOM     14  C   UNL     1     -15.199 -43.098  26.466  1.00  0.00     0.043 A 
ATOM     15  C   UNL     1     -17.308 -42.500  27.474  1.00  0.00     0.014 A 
ATOM     16  C   UNL     1     -21.153 -40.045  23.197  1.00  0.00     0.005 C 
ATOM     17  C   UNL     1     -15.960 -42.848  27.603  1.00  0.00     0.021 A 
ATOM     18  H   UNL     1     -16.998 -42.351  23.004  1.00  0.00     0.166 HD
ATOM     19  Cl  UNL     1     -13.543 -43.538  26.627  1.00  0.00    -0.084 Cl
ENDBRANCH   3   4
ENDBRANCH   2   3
ENDBRANCH   1   2
BRANCH   1  20
ATOM     20  C   UNL     1     -22.966 -42.798  26.851  1.00  0.00     0.144 C 
BRANCH  20  21
ATOM     21  N   UNL     1     -23.581 -42.241  28.057  1.00  0.00    -0.285 NA
BRANCH  21  22
ATOM     22  C   UNL     1     -24.021 -41.030  28.077  1.00  0.00     0.090 C 
ATOM     23  C   UNL     1     -23.691 -39.946  27.101  1.00  0.00     0.141 C 
ATOM     24  C   UNL     1     -24.966 -40.644  29.194  1.00  0.00     0.208 C 
ATOM     25  C   UNL     1     -23.958 -38.535  27.549  1.00  0.00     0.173 C 
ATOM     26  C   UNL     1     -24.806 -39.299  29.757  1.00  0.00     0.038 A 
ATOM     27  C   UNL     1     -24.255 -38.278  28.983  1.00  0.00     0.071 A 
ATOM     28  C   UNL     1     -25.214 -39.066  31.076  1.00  0.00     0.013 A 
ATOM     29  C   UNL     1     -24.069 -37.019  29.571  1.00  0.00     0.127 A 
ATOM     30  C   UNL     1     -25.041 -37.805  31.643  1.00  0.00     0.005 A 
ATOM     31  C   UNL     1     -24.459 -36.783  30.894  1.00  0.00     0.047 A 
ATOM     32  O   UNL     1     -25.798 -41.426  29.623  1.00  0.00    -0.287 OA
ATOM     33  O   UNL     1     -23.936 -37.620  26.728  1.00  0.00    -0.294 OA
BRANCH  29  34
ATOM     34  O   UNL     1     -23.467 -36.009  28.877  1.00  0.00    -0.507 OA
ATOM     35  H   UNL     1     -22.512 -36.171  28.803  1.00  0.00     0.293 HD
ENDBRANCH  29  34
ENDBRANCH  21  22
ENDBRANCH  20  21
ENDBRANCH   1  20
TORSDOF 7
ENDMDL
MODEL 9
REMARK VINA RESULT:    -9.889      3.260      8.133
REMARK INTER + INTRA:         -14.420
REMARK INTER:                 -13.445
REMARK INTRA:                  -0.975
REMARK UNBOUND:                -0.773
REMARK SMILES O=C1C(=NCCCN=c2c3c([nH]c4cc(Cl)ccc24)CCCC3)CC(=O)c2c(O)cccc21
REMARK SMILES IDX 6 1 7 2 8 3 9 4 12 5 11 6 13 7 10 8 20 9 14 10 19 11 23 12
REMARK SMILES IDX 21 13 15 14 18 15 22 16 17 17 16 19 5 20 4 21 3 22 24 23
REMARK SMILES IDX 2 24 25 25 33 26 27 27 32 28 28 29 31 30 30 31 1 32 26 33
REMARK SMILES IDX 29 34
REMARK H PARENT 12 18 29 35
ROOT
ATOM      1  C   UNL     1      -9.323 -42.255  27.356  1.00  0.00     0.047 C 
ENDROOT
BRANCH   1   2
ATOM      2  C   UNL     1     -10.838 -42.038  27.428  1.00  0.00     0.145 C 
BRANCH   2   3
ATOM      3  N   UNL     1     -11.495 -43.210  26.880  1.00  0.00    -0.284 NA
BRANCH   3   4
ATOM      4  C   UNL     1     -12.612 -43.708  27.297  1.00  0.00     0.072 A 
ATOM      5  N   UNL     1     -15.212 -43.907  28.366  1.00  0.00    -0.358 N 
ATOM      6  C   UNL     1     -15.046 -43.457  27.073  1.00  0.00     0.021 A 
ATOM      7  C   UNL     1     -14.177 -44.593  29.021  1.00  0.00     0.049 A 
ATOM      8  C   UNL     1     -13.837 -43.365  26.485  1.00  0.00    -0.003 A 
ATOM      9  C   UNL     1     -16.305 -43.048  26.339  1.00  0.00     0.054 C 
ATOM     10  C   UNL     1     -14.450 -45.308  30.195  1.00  0.00     0.047 A 
ATOM     11  C   UNL     1     -12.864 -44.557  28.511  1.00  0.00     0.024 A 
ATOM     12  C   UNL     1     -13.623 -42.879  25.077  1.00  0.00     0.039 C 
ATOM     13  C   UNL     1     -16.050 -42.227  25.075  1.00  0.00     0.007 C 
ATOM     14  C   UNL     1     -13.444 -46.049  30.809  1.00  0.00     0.043 A 
ATOM     15  C   UNL     1     -11.880 -45.354  29.108  1.00  0.00     0.014 A 
ATOM     16  C   UNL     1     -14.914 -42.827  24.258  1.00  0.00     0.005 C 
ATOM     17  C   UNL     1     -12.166 -46.091  30.261  1.00  0.00     0.021 A 
ATOM     18  H   UNL     1     -16.161 -44.096  28.668  1.00  0.00     0.166 HD
ATOM     19  Cl  UNL     1     -13.791 -46.947  32.235  1.00  0.00    -0.084 Cl
ENDBRANCH   3   4
ENDBRANCH   2   3
ENDBRANCH   1   2
BRANCH   1  20
ATOM     20  C   UNL     1      -8.851 -43.414  28.234  1.00  0.00     0.144 C 
BRANCH  20  21
ATOM     21  N   UNL     1      -8.450 -42.914  29.550  1.00  0.00    -0.285 NA
BRANCH  21  22
ATOM     22  C   UNL     1      -9.186 -43.118  30.589  1.00  0.00     0.090 C 
ATOM     23  C   UNL     1     -10.678 -43.045  30.651  1.00  0.00     0.141 C 
ATOM     24  C   UNL     1      -8.489 -43.465  31.887  1.00  0.00     0.208 C 
ATOM     25  C   UNL     1     -11.286 -42.892  32.018  1.00  0.00     0.173 C 
ATOM     26  C   UNL     1      -9.054 -42.889  33.111  1.00  0.00     0.038 A 
ATOM     27  C   UNL     1     -10.404 -42.544  33.165  1.00  0.00     0.071 A 
ATOM     28  C   UNL     1      -8.214 -42.692  34.215  1.00  0.00     0.013 A 
ATOM     29  C   UNL     1     -10.897 -41.948  34.333  1.00  0.00     0.127 A 
ATOM     30  C   UNL     1      -8.721 -42.115  35.377  1.00  0.00     0.005 A 
ATOM     31  C   UNL     1     -10.061 -41.733  35.434  1.00  0.00     0.047 A 
ATOM     32  O   UNL     1      -7.490 -44.164  31.906  1.00  0.00    -0.287 OA
ATOM     33  O   UNL     1     -12.494 -43.060  32.171  1.00  0.00    -0.294 OA
BRANCH  29  34
ATOM     34  O   UNL     1     -12.195 -41.529  34.406  1.00  0.00    -0.507 OA
ATOM     35  H   UNL     1     -12.233 -40.582  34.622  1.00  0.00     0.293 HD
ENDBRANCH  29  34
ENDBRANCH  21  22
ENDBRANCH  20  21
ENDBRANCH   1  20
TORSDOF 7
ENDMDL
