MODEL 1
REMARK VINA RESULT:    -8.743      0.000      0.000
REMARK INTER + INTRA:          -8.999
REMARK INTER:                  -8.999
REMARK INTRA:                   0.000
REMARK UNBOUND:                 0.000
REMARK SMILES Nc1c2c(nc3ccccc13)CCCC2
REMARK SMILES IDX 1 1 2 4 3 5 11 6 4 7 15 8 10 9 6 10 5 11 12 12 14 13 9 14
REMARK SMILES IDX 7 15 13 16 8 17
REMARK H PARENT 1 2 1 3
ROOT
ATOM      1  N   UNL     1     -17.788 -42.410  22.659  1.00  0.00    -0.398 N 
ATOM      2  H   UNL     1     -17.874 -43.348  22.270  1.00  0.00     0.156 HD
ATOM      3  H   UNL     1     -16.953 -41.963  22.293  1.00  0.00     0.156 HD
ENDROOT
BRANCH   1   4
ATOM      4  C   UNL     1     -17.793 -42.476  24.078  1.00  0.00     0.046 A 
ATOM      5  C   UNL     1     -16.600 -42.834  24.730  1.00  0.00    -0.003 A 
ATOM      6  C   UNL     1     -18.894 -41.993  24.836  1.00  0.00     0.023 A 
ATOM      7  C   UNL     1     -16.593 -42.824  26.125  1.00  0.00     0.046 A 
ATOM      8  C   UNL     1     -15.402 -43.317  23.948  1.00  0.00     0.039 C 
ATOM      9  C   UNL     1     -20.103 -41.509  24.276  1.00  0.00     0.012 A 
ATOM     10  C   UNL     1     -18.761 -42.004  26.240  1.00  0.00     0.073 A 
ATOM     11  N   UNL     1     -17.650 -42.415  26.865  1.00  0.00    -0.252 NA
ATOM     12  C   UNL     1     -15.370 -43.214  26.914  1.00  0.00     0.056 C 
ATOM     13  C   UNL     1     -14.115 -43.397  24.767  1.00  0.00     0.005 C 
ATOM     14  C   UNL     1     -21.150 -41.063  25.084  1.00  0.00     0.001 A 
ATOM     15  C   UNL     1     -19.818 -41.559  27.022  1.00  0.00     0.029 A 
ATOM     16  C   UNL     1     -14.380 -44.054  26.114  1.00  0.00     0.007 C 
ATOM     17  C   UNL     1     -21.008 -41.091  26.463  1.00  0.00     0.002 A 
ENDBRANCH   1   4
TORSDOF 1
ENDMDL
MODEL 2
REMARK VINA RESULT:    -8.714      6.243      8.966
REMARK INTER + INTRA:          -8.968
REMARK INTER:                  -8.968
REMARK INTRA:                   0.000
REMARK UNBOUND:                 0.000
REMARK SMILES Nc1c2c(nc3ccccc13)CCCC2
REMARK SMILES IDX 1 1 2 4 3 5 11 6 4 7 15 8 10 9 6 10 5 11 12 12 14 13 9 14
REMARK SMILES IDX 7 15 13 16 8 17
REMARK H PARENT 1 2 1 3
ROOT
ATOM      1  N   UNL     1     -11.165 -42.389  29.678  1.00  0.00    -0.398 N 
ATOM      2  H   UNL     1     -12.017 -42.324  30.233  1.00  0.00     0.156 HD
ATOM      3  H   UNL     1     -11.273 -41.854  28.823  1.00  0.00     0.156 HD
ENDROOT
BRANCH   1   4
ATOM      4  C   UNL     1     -10.855 -43.753  29.433  1.00  0.00     0.046 A 
ATOM      5  C   UNL     1      -9.887 -44.371  30.244  1.00  0.00    -0.003 A 
ATOM      6  C   UNL     1     -11.636 -44.541  28.545  1.00  0.00     0.023 A 
ATOM      7  C   UNL     1      -9.642 -45.729  30.046  1.00  0.00     0.046 A 
ATOM      8  C   UNL     1      -9.066 -43.565  31.223  1.00  0.00     0.039 C 
ATOM      9  C   UNL     1     -12.705 -44.042  27.758  1.00  0.00     0.012 A 
ATOM     10  C   UNL     1     -11.314 -45.911  28.447  1.00  0.00     0.073 A 
ATOM     11  N   UNL     1     -10.342 -46.485  29.168  1.00  0.00    -0.252 NA
ATOM     12  C   UNL     1      -8.608 -46.474  30.851  1.00  0.00     0.056 C 
ATOM     13  C   UNL     1      -8.269 -44.413  32.213  1.00  0.00     0.005 C 
ATOM     14  C   UNL     1     -13.421 -44.872  26.894  1.00  0.00     0.001 A 
ATOM     15  C   UNL     1     -12.039 -46.716  27.579  1.00  0.00     0.029 A 
ATOM     16  C   UNL     1      -7.571 -45.558  31.494  1.00  0.00     0.007 C 
ATOM     17  C   UNL     1     -13.085 -46.214  26.802  1.00  0.00     0.002 A 
ENDBRANCH   1   4
TORSDOF 1
ENDMDL
MODEL 3
REMARK VINA RESULT:    -8.581      6.415      9.059
REMARK INTER + INTRA:          -8.832
REMARK INTER:                  -8.832
REMARK INTRA:                   0.000
REMARK UNBOUND:                 0.000
REMARK SMILES Nc1c2c(nc3ccccc13)CCCC2
REMARK SMILES IDX 1 1 2 4 3 5 11 6 4 7 15 8 10 9 6 10 5 11 12 12 14 13 9 14
REMARK SMILES IDX 7 15 13 16 8 17
REMARK H PARENT 1 2 1 3
ROOT
ATOM      1  N   UNL     1      -9.228 -46.883  29.709  1.00  0.00    -0.398 N 
ATOM      2  H   UNL     1      -9.046 -47.066  28.724  1.00  0.00     0.156 HD
ATOM      3  H   UNL     1      -9.458 -47.751  30.181  1.00  0.00     0.156 HD
ENDROOT
BRANCH   1   4
ATOM      4  C   UNL     1     -10.251 -45.906  29.835  1.00  0.00     0.046 A 
ATOM      5  C   UNL     1     -10.089 -44.896  30.801  1.00  0.00    -0.003 A 
ATOM      6  C   UNL     1     -11.303 -45.810  28.885  1.00  0.00     0.023 A 
ATOM      7  C   UNL     1     -11.061 -43.898  30.868  1.00  0.00     0.046 A 
ATOM      8  C   UNL     1      -8.959 -44.953  31.801  1.00  0.00     0.039 C 
ATOM      9  C   UNL     1     -11.497 -46.712  27.808  1.00  0.00     0.012 A 
ATOM     10  C   UNL     1     -12.211 -44.741  29.037  1.00  0.00     0.073 A 
ATOM     11  N   UNL     1     -12.100 -43.820  30.003  1.00  0.00    -0.252 NA
ATOM     12  C   UNL     1     -10.988 -42.787  31.884  1.00  0.00     0.056 C 
ATOM     13  C   UNL     1      -8.761 -43.658  32.589  1.00  0.00     0.005 C 
ATOM     14  C   UNL     1     -12.564 -46.565  26.921  1.00  0.00     0.001 A 
ATOM     15  C   UNL     1     -13.266 -44.619  28.142  1.00  0.00     0.029 A 
ATOM     16  C   UNL     1     -10.098 -43.120  33.077  1.00  0.00     0.007 C 
ATOM     17  C   UNL     1     -13.454 -45.516  27.090  1.00  0.00     0.002 A 
ENDBRANCH   1   4
TORSDOF 1
ENDMDL
MODEL 4
REMARK VINA RESULT:    -8.549      0.724      2.570
REMARK INTER + INTRA:          -8.799
REMARK INTER:                  -8.799
REMARK INTRA:                   0.000
REMARK UNBOUND:                 0.000
REMARK SMILES Nc1c2c(nc3ccccc13)CCCC2
REMARK SMILES IDX 1 1 2 4 3 5 11 6 4 7 15 8 10 9 6 10 5 11 12 12 14 13 9 14
REMARK SMILES IDX 7 15 13 16 8 17
REMARK H PARENT 1 2 1 3
ROOT
ATOM      1  N   UNL     1     -17.435 -42.546  28.477  1.00  0.00    -0.398 N 
ATOM      2  H   UNL     1     -17.825 -41.727  28.939  1.00  0.00     0.156 HD
ATOM      3  H   UNL     1     -16.480 -42.691  28.787  1.00  0.00     0.156 HD
ENDROOT
BRANCH   1   4
ATOM      4  C   UNL     1     -17.533 -42.396  27.068  1.00  0.00     0.046 A 
ATOM      5  C   UNL     1     -16.487 -42.895  26.272  1.00  0.00    -0.003 A 
ATOM      6  C   UNL     1     -18.736 -41.953  26.454  1.00  0.00     0.023 A 
ATOM      7  C   UNL     1     -16.626 -42.811  24.887  1.00  0.00     0.046 A 
ATOM      8  C   UNL     1     -15.211 -43.406  26.898  1.00  0.00     0.039 C 
ATOM      9  C   UNL     1     -19.890 -41.528  27.162  1.00  0.00     0.012 A 
ATOM     10  C   UNL     1     -18.771 -41.937  25.044  1.00  0.00     0.073 A 
ATOM     11  N   UNL     1     -17.745 -42.344  24.284  1.00  0.00    -0.252 NA
ATOM     12  C   UNL     1     -15.550 -43.297  23.951  1.00  0.00     0.056 C 
ATOM     13  C   UNL     1     -14.302 -44.161  25.930  1.00  0.00     0.005 C 
ATOM     14  C   UNL     1     -21.033 -41.091  26.492  1.00  0.00     0.001 A 
ATOM     15  C   UNL     1     -19.919 -41.494  24.401  1.00  0.00     0.029 A 
ATOM     16  C   UNL     1     -14.180 -43.406  24.614  1.00  0.00     0.007 C 
ATOM     17  C   UNL     1     -21.046 -41.071  25.106  1.00  0.00     0.002 A 
ENDBRANCH   1   4
TORSDOF 1
ENDMDL
MODEL 5
REMARK VINA RESULT:    -8.501      0.269      4.727
REMARK INTER + INTRA:          -8.750
REMARK INTER:                  -8.750
REMARK INTRA:                   0.000
REMARK UNBOUND:                 0.000
REMARK SMILES Nc1c2c(nc3ccccc13)CCCC2
REMARK SMILES IDX 1 1 2 4 3 5 11 6 4 7 15 8 10 9 6 10 5 11 12 12 14 13 9 14
REMARK SMILES IDX 7 15 13 16 8 17
REMARK H PARENT 1 2 1 3
ROOT
ATOM      1  N   UNL     1     -17.940 -42.605  22.611  1.00  0.00    -0.398 N 
ATOM      2  H   UNL     1     -18.848 -43.024  22.420  1.00  0.00     0.156 HD
ATOM      3  H   UNL     1     -17.209 -43.160  22.176  1.00  0.00     0.156 HD
ENDROOT
BRANCH   1   4
ATOM      4  C   UNL     1     -17.758 -42.469  24.013  1.00  0.00     0.046 A 
ATOM      5  C   UNL     1     -18.875 -42.128  24.797  1.00  0.00    -0.003 A 
ATOM      6  C   UNL     1     -16.549 -42.868  24.644  1.00  0.00     0.023 A 
ATOM      7  C   UNL     1     -18.705 -42.070  26.181  1.00  0.00     0.046 A 
ATOM      8  C   UNL     1     -20.183 -41.735  24.155  1.00  0.00     0.039 C 
ATOM      9  C   UNL     1     -15.398 -43.328  23.956  1.00  0.00     0.012 A 
ATOM     10  C   UNL     1     -16.503 -42.793  26.052  1.00  0.00     0.073 A 
ATOM     11  N   UNL     1     -17.545 -42.397  26.796  1.00  0.00    -0.252 NA
ATOM     12  C   UNL     1     -19.835 -41.692  27.103  1.00  0.00     0.056 C 
ATOM     13  C   UNL     1     -21.359 -41.668  25.129  1.00  0.00     0.005 C 
ATOM     14  C   UNL     1     -14.237 -43.690  24.641  1.00  0.00     0.001 A 
ATOM     15  C   UNL     1     -15.335 -43.154  26.711  1.00  0.00     0.029 A 
ATOM     16  C   UNL     1     -20.958 -40.935  26.400  1.00  0.00     0.007 C 
ATOM     17  C   UNL     1     -14.205 -43.599  26.024  1.00  0.00     0.002 A 
ENDBRANCH   1   4
TORSDOF 1
ENDMDL
MODEL 6
REMARK VINA RESULT:    -8.354      7.022      9.983
REMARK INTER + INTRA:          -8.599
REMARK INTER:                  -8.599
REMARK INTRA:                   0.000
REMARK UNBOUND:                 0.000
REMARK SMILES Nc1c2c(nc3ccccc13)CCCC2
REMARK SMILES IDX 1 1 2 4 3 5 11 6 4 7 15 8 10 9 6 10 5 11 12 12 14 13 9 14
REMARK SMILES IDX 7 15 13 16 8 17
REMARK H PARENT 1 2 1 3
ROOT
ATOM      1  N   UNL     1     -13.132 -43.319  31.788  1.00  0.00    -0.398 N 
ATOM      2  H   UNL     1     -13.560 -42.807  31.018  1.00  0.00     0.156 HD
ATOM      3  H   UNL     1     -13.013 -42.701  32.585  1.00  0.00     0.156 HD
ENDROOT
BRANCH   1   4
ATOM      4  C   UNL     1     -11.908 -43.898  31.359  1.00  0.00     0.046 A 
ATOM      5  C   UNL     1     -11.900 -44.612  30.148  1.00  0.00    -0.003 A 
ATOM      6  C   UNL     1     -10.680 -43.596  32.008  1.00  0.00     0.023 A 
ATOM      7  C   UNL     1     -10.679 -45.113  29.696  1.00  0.00     0.046 A 
ATOM      8  C   UNL     1     -13.186 -44.917  29.418  1.00  0.00     0.039 C 
ATOM      9  C   UNL     1     -10.563 -42.797  33.174  1.00  0.00     0.012 A 
ATOM     10  C   UNL     1      -9.505 -44.136  31.444  1.00  0.00     0.073 A 
ATOM     11  N   UNL     1      -9.506 -44.879  30.329  1.00  0.00    -0.252 NA
ATOM     12  C   UNL     1     -10.573 -45.911  28.422  1.00  0.00     0.056 C 
ATOM     13  C   UNL     1     -12.986 -45.447  27.999  1.00  0.00     0.005 C 
ATOM     14  C   UNL     1      -9.323 -42.555  33.766  1.00  0.00     0.001 A 
ATOM     15  C   UNL     1      -8.284 -43.882  32.054  1.00  0.00     0.029 A 
ATOM     16  C   UNL     1     -11.901 -46.514  27.976  1.00  0.00     0.007 C 
ATOM     17  C   UNL     1      -8.180 -43.102  33.206  1.00  0.00     0.002 A 
ENDBRANCH   1   4
TORSDOF 1
ENDMDL
MODEL 7
REMARK VINA RESULT:    -8.302      7.382      9.837
REMARK INTER + INTRA:          -8.545
REMARK INTER:                  -8.545
REMARK INTRA:                   0.000
REMARK UNBOUND:                 0.000
REMARK SMILES Nc1c2c(nc3ccccc13)CCCC2
REMARK SMILES IDX 1 1 2 4 3 5 11 6 4 7 15 8 10 9 6 10 5 11 12 12 14 13 9 14
REMARK SMILES IDX 7 15 13 16 8 17
REMARK H PARENT 1 2 1 3
ROOT
ATOM      1  N   UNL     1     -13.065 -43.317  31.760  1.00  0.00    -0.398 N 
ATOM      2  H   UNL     1     -12.900 -42.408  32.190  1.00  0.00     0.156 HD
ATOM      3  H   UNL     1     -13.525 -43.931  32.425  1.00  0.00     0.156 HD
ENDROOT
BRANCH   1   4
ATOM      4  C   UNL     1     -11.838 -43.851  31.283  1.00  0.00     0.046 A 
ATOM      5  C   UNL     1     -10.682 -43.653  32.058  1.00  0.00    -0.003 A 
ATOM      6  C   UNL     1     -11.801 -44.740  30.175  1.00  0.00     0.023 A 
ATOM      7  C   UNL     1      -9.497 -44.246  31.620  1.00  0.00     0.046 A 
ATOM      8  C   UNL     1     -10.700 -42.743  33.262  1.00  0.00     0.039 C 
ATOM      9  C   UNL     1     -12.929 -45.092  29.390  1.00  0.00     0.012 A 
ATOM     10  C   UNL     1     -10.550 -45.301  29.842  1.00  0.00     0.073 A 
ATOM     11  N   UNL     1      -9.432 -45.054  30.537  1.00  0.00    -0.252 NA
ATOM     12  C   UNL     1      -8.201 -44.073  32.369  1.00  0.00     0.056 C 
ATOM     13  C   UNL     1      -9.458 -42.854  34.145  1.00  0.00     0.005 C 
ATOM     14  C   UNL     1     -12.815 -45.961  28.304  1.00  0.00     0.001 A 
ATOM     15  C   UNL     1     -10.463 -46.161  28.755  1.00  0.00     0.029 A 
ATOM     16  C   UNL     1      -8.196 -42.859  33.293  1.00  0.00     0.007 C 
ATOM     17  C   UNL     1     -11.576 -46.495  27.984  1.00  0.00     0.002 A 
ENDBRANCH   1   4
TORSDOF 1
ENDMDL
MODEL 8
REMARK VINA RESULT:    -8.286      5.246      7.935
REMARK INTER + INTRA:          -8.528
REMARK INTER:                  -8.528
REMARK INTRA:                   0.000
REMARK UNBOUND:                 0.000
REMARK SMILES Nc1c2c(nc3ccccc13)CCCC2
REMARK SMILES IDX 1 1 2 4 3 5 11 6 4 7 15 8 10 9 6 10 5 11 12 12 14 13 9 14
REMARK SMILES IDX 7 15 13 16 8 17
REMARK H PARENT 1 2 1 3
ROOT
ATOM      1  N   UNL     1     -13.331 -46.397  30.213  1.00  0.00    -0.398 N 
ATOM      2  H   UNL     1     -12.818 -47.274  30.283  1.00  0.00     0.156 HD
ATOM      3  H   UNL     1     -14.179 -46.538  29.675  1.00  0.00     0.156 HD
ENDROOT
BRANCH   1   4
ATOM      4  C   UNL     1     -12.494 -45.393  29.658  1.00  0.00     0.046 A 
ATOM      5  C   UNL     1     -11.167 -45.307  30.117  1.00  0.00    -0.003 A 
ATOM      6  C   UNL     1     -12.899 -44.634  28.527  1.00  0.00     0.023 A 
ATOM      7  C   UNL     1     -10.330 -44.368  29.513  1.00  0.00     0.046 A 
ATOM      8  C   UNL     1     -10.698 -46.127  31.294  1.00  0.00     0.039 C 
ATOM      9  C   UNL     1     -14.177 -44.721  27.919  1.00  0.00     0.012 A 
ATOM     10  C   UNL     1     -11.957 -43.736  27.983  1.00  0.00     0.073 A 
ATOM     11  N   UNL     1     -10.715 -43.601  28.467  1.00  0.00    -0.252 NA
ATOM     12  C   UNL     1      -8.899 -44.185  29.950  1.00  0.00     0.056 C 
ATOM     13  C   UNL     1      -9.182 -46.129  31.487  1.00  0.00     0.005 C 
ATOM     14  C   UNL     1     -14.512 -43.933  26.817  1.00  0.00     0.001 A 
ATOM     15  C   UNL     1     -12.315 -42.961  26.889  1.00  0.00     0.029 A 
ATOM     16  C   UNL     1      -8.625 -44.719  31.353  1.00  0.00     0.007 C 
ATOM     17  C   UNL     1     -13.578 -43.047  26.302  1.00  0.00     0.002 A 
ENDBRANCH   1   4
TORSDOF 1
ENDMDL
MODEL 9
REMARK VINA RESULT:    -8.280      6.731      9.374
REMARK INTER + INTRA:          -8.522
REMARK INTER:                  -8.522
REMARK INTRA:                   0.000
REMARK UNBOUND:                 0.000
REMARK SMILES Nc1c2c(nc3ccccc13)CCCC2
REMARK SMILES IDX 1 1 2 4 3 5 11 6 4 7 15 8 10 9 6 10 5 11 12 12 14 13 9 14
REMARK SMILES IDX 7 15 13 16 8 17
REMARK H PARENT 1 2 1 3
ROOT
ATOM      1  N   UNL     1      -8.750 -45.293  30.322  1.00  0.00    -0.398 N 
ATOM      2  H   UNL     1      -8.469 -45.272  29.343  1.00  0.00     0.156 HD
ATOM      3  H   UNL     1      -8.699 -46.244  30.672  1.00  0.00     0.156 HD
ENDROOT
BRANCH   1   4
ATOM      4  C   UNL     1     -10.047 -44.730  30.463  1.00  0.00     0.046 A 
ATOM      5  C   UNL     1     -11.051 -45.145  29.570  1.00  0.00    -0.003 A 
ATOM      6  C   UNL     1     -10.391 -43.939  31.592  1.00  0.00     0.023 A 
ATOM      7  C   UNL     1     -12.339 -44.645  29.761  1.00  0.00     0.046 A 
ATOM      8  C   UNL     1     -10.721 -46.016  28.381  1.00  0.00     0.039 C 
ATOM      9  C   UNL     1      -9.480 -43.552  32.609  1.00  0.00     0.012 A 
ATOM     10  C   UNL     1     -11.732 -43.513  31.695  1.00  0.00     0.073 A 
ATOM     11  N   UNL     1     -12.674 -43.848  30.803  1.00  0.00    -0.252 NA
ATOM     12  C   UNL     1     -13.476 -45.012  28.843  1.00  0.00     0.056 C 
ATOM     13  C   UNL     1     -11.947 -46.600  27.679  1.00  0.00     0.005 C 
ATOM     14  C   UNL     1      -9.886 -42.759  33.683  1.00  0.00     0.001 A 
ATOM     15  C   UNL     1     -12.109 -42.722  32.772  1.00  0.00     0.029 A 
ATOM     16  C   UNL     1     -13.012 -45.530  27.486  1.00  0.00     0.007 C 
ATOM     17  C   UNL     1     -11.205 -42.340  33.763  1.00  0.00     0.002 A 
ENDBRANCH   1   4
TORSDOF 1
ENDMDL
