MODEL 1
REMARK VINA RESULT:    -9.448      0.000      0.000
REMARK INTER + INTRA:         -14.165
REMARK INTER:                 -13.037
REMARK INTRA:                  -1.128
REMARK UNBOUND:                -1.128
REMARK SMILES COc1ccc([C@@H]2C=C(c3cc(F)cc(F)c3)NN2c2ccc(S(N)(=O)=O)cc2)c(OC)c1
REMARK SMILES IDX 20 1 21 2 22 3 23 4 28 5 29 6 19 7 18 8 9 9 8 10 7 11 10 13
REMARK SMILES IDX 11 14 17 15 12 16 15 17 14 18 13 19 16 20 6 21 5 22 30 23
REMARK SMILES IDX 4 24 33 25 3 26 31 27 32 28 2 29 1 30 24 31 26 32 27 33
REMARK SMILES IDX 25 34
REMARK H PARENT 18 12 25 35 25 36
ROOT
ATOM      1  C   UNL     1     -17.872 -42.275  24.948  1.00  0.00     0.058 A 
ATOM      2  C   UNL     1     -17.706 -42.283  26.345  1.00  0.00     0.029 A 
ATOM      3  C   UNL     1     -16.545 -42.778  26.950  1.00  0.00     0.024 A 
ATOM      4  C   UNL     1     -15.524 -43.287  26.150  1.00  0.00     0.082 A 
ATOM      5  C   UNL     1     -15.645 -43.282  24.763  1.00  0.00     0.024 A 
ATOM      6  C   UNL     1     -16.813 -42.782  24.175  1.00  0.00     0.029 A 
ENDROOT
BRANCH   1   7
ATOM      7  N   UNL     1     -19.042 -41.778  24.379  1.00  0.00    -0.276 N 
ATOM      8  N   UNL     1     -19.241 -41.526  23.031  1.00  0.00    -0.297 N 
ATOM      9  C   UNL     1     -20.452 -40.866  22.849  1.00  0.00     0.060 C 
ATOM     10  C   UNL     1     -21.093 -40.753  24.024  1.00  0.00     0.033 C 
ATOM     11  C   UNL     1     -20.256 -41.355  25.142  1.00  0.00     0.164 C 
ATOM     12  H   UNL     1     -18.477 -41.037  22.558  1.00  0.00     0.188 HD
BRANCH   9  13
ATOM     13  C   UNL     1     -20.879 -40.382  21.534  1.00  0.00     0.005 A 
ATOM     14  C   UNL     1     -20.566 -39.087  21.097  1.00  0.00     0.049 A 
ATOM     15  C   UNL     1     -21.603 -41.218  20.672  1.00  0.00     0.049 A 
ATOM     16  C   UNL     1     -20.974 -38.653  19.836  1.00  0.00     0.126 A 
ATOM     17  C   UNL     1     -22.000 -40.762  19.417  1.00  0.00     0.126 A 
ATOM     18  C   UNL     1     -21.692 -39.480  18.987  1.00  0.00     0.078 A 
ATOM     19  F   UNL     1     -20.662 -37.412  19.438  1.00  0.00    -0.207 F 
ATOM     20  F   UNL     1     -22.692 -41.577  18.611  1.00  0.00    -0.207 F 
ENDBRANCH   9  13
BRANCH  11  21
ATOM     21  C   UNL     1     -20.980 -42.504  25.827  1.00  0.00     0.023 A 
ATOM     22  C   UNL     1     -20.839 -43.823  25.359  1.00  0.00     0.014 A 
ATOM     23  C   UNL     1     -21.842 -42.264  26.916  1.00  0.00     0.128 A 
ATOM     24  C   UNL     1     -21.514 -44.876  25.973  1.00  0.00     0.047 A 
ATOM     25  C   UNL     1     -22.517 -43.332  27.528  1.00  0.00     0.093 A 
ATOM     26  C   UNL     1     -22.353 -44.639  27.061  1.00  0.00     0.122 A 
BRANCH  23  27
ATOM     27  O   UNL     1     -21.955 -40.952  27.306  1.00  0.00    -0.496 OA
ATOM     28  C   UNL     1     -23.254 -40.371  27.305  1.00  0.00     0.278 C 
ENDBRANCH  23  27
BRANCH  26  29
ATOM     29  O   UNL     1     -22.953 -45.758  27.568  1.00  0.00    -0.497 OA
ATOM     30  C   UNL     1     -23.918 -45.571  28.594  1.00  0.00     0.278 C 
ENDBRANCH  26  29
ENDBRANCH  11  21
ENDBRANCH   1   7
BRANCH   4  31
ATOM     31  S   UNL     1     -14.051 -43.913  26.912  1.00  0.00     0.238 S 
ATOM     32  O   UNL     1     -13.775 -45.225  26.374  1.00  0.00    -0.207 OA
ATOM     33  O   UNL     1     -13.066 -42.860  26.943  1.00  0.00    -0.207 OA
BRANCH  31  34
ATOM     34  N   UNL     1     -14.579 -44.177  28.490  1.00  0.00    -0.225 NA
ATOM     35  H   UNL     1     -14.048 -43.654  29.185  1.00  0.00     0.137 HD
ATOM     36  H   UNL     1     -15.579 -43.971  28.540  1.00  0.00     0.137 HD
ENDBRANCH  31  34
ENDBRANCH   4  31
TORSDOF 7
ENDMDL
MODEL 2
REMARK VINA RESULT:    -9.308      3.492      6.282
REMARK INTER + INTRA:         -13.972
REMARK INTER:                 -12.867
REMARK INTRA:                  -1.105
REMARK UNBOUND:                -1.128
REMARK SMILES COc1ccc([C@@H]2C=C(c3cc(F)cc(F)c3)NN2c2ccc(S(N)(=O)=O)cc2)c(OC)c1
REMARK SMILES IDX 20 1 21 2 22 3 23 4 28 5 29 6 19 7 18 8 9 9 8 10 7 11 10 13
REMARK SMILES IDX 11 14 17 15 12 16 15 17 14 18 13 19 16 20 6 21 5 22 30 23
REMARK SMILES IDX 4 24 33 25 3 26 31 27 32 28 2 29 1 30 24 31 26 32 27 33
REMARK SMILES IDX 25 34
REMARK H PARENT 18 12 25 35 25 36
ROOT
ATOM      1  C   UNL     1     -19.167 -41.994  26.039  1.00  0.00     0.058 A 
ATOM      2  C   UNL     1     -18.579 -42.089  27.315  1.00  0.00     0.029 A 
ATOM      3  C   UNL     1     -17.253 -42.502  27.488  1.00  0.00     0.024 A 
ATOM      4  C   UNL     1     -16.491 -42.838  26.372  1.00  0.00     0.082 A 
ATOM      5  C   UNL     1     -17.034 -42.742  25.093  1.00  0.00     0.024 A 
ATOM      6  C   UNL     1     -18.361 -42.326  24.936  1.00  0.00     0.029 A 
ENDROOT
BRANCH   1   7
ATOM      7  N   UNL     1     -20.490 -41.581  25.903  1.00  0.00    -0.276 N 
ATOM      8  N   UNL     1     -21.177 -40.766  26.789  1.00  0.00    -0.297 N 
ATOM      9  C   UNL     1     -22.521 -40.713  26.434  1.00  0.00     0.060 C 
ATOM     10  C   UNL     1     -22.722 -41.399  25.296  1.00  0.00     0.033 C 
ATOM     11  C   UNL     1     -21.419 -42.017  24.816  1.00  0.00     0.164 C 
ATOM     12  H   UNL     1     -21.062 -40.998  27.778  1.00  0.00     0.188 HD
BRANCH   9  13
ATOM     13  C   UNL     1     -23.510 -40.006  27.252  1.00  0.00     0.005 A 
ATOM     14  C   UNL     1     -24.119 -40.622  28.355  1.00  0.00     0.049 A 
ATOM     15  C   UNL     1     -23.858 -38.681  26.954  1.00  0.00     0.049 A 
ATOM     16  C   UNL     1     -25.048 -39.924  29.125  1.00  0.00     0.126 A 
ATOM     17  C   UNL     1     -24.791 -38.004  27.737  1.00  0.00     0.126 A 
ATOM     18  C   UNL     1     -25.393 -38.615  28.827  1.00  0.00     0.078 A 
ATOM     19  F   UNL     1     -25.615 -40.531  30.176  1.00  0.00    -0.207 F 
ATOM     20  F   UNL     1     -25.109 -36.740  27.433  1.00  0.00    -0.207 F 
ENDBRANCH   9  13
BRANCH  11  21
ATOM     21  C   UNL     1     -21.031 -41.504  23.437  1.00  0.00     0.023 A 
ATOM     22  C   UNL     1     -20.619 -40.172  23.256  1.00  0.00     0.014 A 
ATOM     23  C   UNL     1     -21.119 -42.341  22.307  1.00  0.00     0.128 A 
ATOM     24  C   UNL     1     -20.279 -39.693  21.992  1.00  0.00     0.047 A 
ATOM     25  C   UNL     1     -20.774 -41.849  21.038  1.00  0.00     0.093 A 
ATOM     26  C   UNL     1     -20.352 -40.527  20.878  1.00  0.00     0.122 A 
BRANCH  23  27
ATOM     27  O   UNL     1     -21.552 -43.621  22.549  1.00  0.00    -0.496 OA
ATOM     28  C   UNL     1     -22.315 -44.266  21.534  1.00  0.00     0.278 C 
ENDBRANCH  23  27
BRANCH  26  29
ATOM     29  O   UNL     1     -19.991 -39.932  19.701  1.00  0.00    -0.497 OA
ATOM     30  C   UNL     1     -20.603 -38.688  19.386  1.00  0.00     0.278 C 
ENDBRANCH  26  29
ENDBRANCH  11  21
ENDBRANCH   1   7
BRANCH   4  31
ATOM     31  S   UNL     1     -14.812 -43.361  26.588  1.00  0.00     0.238 S 
ATOM     32  O   UNL     1     -14.562 -44.486  25.717  1.00  0.00    -0.207 OA
ATOM     33  O   UNL     1     -13.966 -42.192  26.613  1.00  0.00    -0.207 OA
BRANCH  31  34
ATOM     34  N   UNL     1     -14.860 -44.001  28.146  1.00  0.00    -0.225 NA
ATOM     35  H   UNL     1     -13.980 -43.901  28.649  1.00  0.00     0.137 HD
ATOM     36  H   UNL     1     -15.640 -43.576  28.651  1.00  0.00     0.137 HD
ENDBRANCH  31  34
ENDBRANCH   4  31
TORSDOF 7
ENDMDL
MODEL 3
REMARK VINA RESULT:    -8.904      5.352      8.536
REMARK INTER + INTRA:         -13.416
REMARK INTER:                 -11.757
REMARK INTRA:                  -1.658
REMARK UNBOUND:                -1.128
REMARK SMILES COc1ccc([C@@H]2C=C(c3cc(F)cc(F)c3)NN2c2ccc(S(N)(=O)=O)cc2)c(OC)c1
REMARK SMILES IDX 20 1 21 2 22 3 23 4 28 5 29 6 19 7 18 8 9 9 8 10 7 11 10 13
REMARK SMILES IDX 11 14 17 15 12 16 15 17 14 18 13 19 16 20 6 21 5 22 30 23
REMARK SMILES IDX 4 24 33 25 3 26 31 27 32 28 2 29 1 30 24 31 26 32 27 33
REMARK SMILES IDX 25 34
REMARK H PARENT 18 12 25 35 25 36
ROOT
ATOM      1  C   UNL     1     -21.773 -43.616  22.074  1.00  0.00     0.058 A 
ATOM      2  C   UNL     1     -22.774 -44.470  22.573  1.00  0.00     0.029 A 
ATOM      3  C   UNL     1     -23.552 -45.270  21.729  1.00  0.00     0.024 A 
ATOM      4  C   UNL     1     -23.340 -45.218  20.353  1.00  0.00     0.082 A 
ATOM      5  C   UNL     1     -22.349 -44.395  19.823  1.00  0.00     0.024 A 
ATOM      6  C   UNL     1     -21.579 -43.602  20.682  1.00  0.00     0.029 A 
ENDROOT
BRANCH   1   7
ATOM      7  N   UNL     1     -21.019 -42.830  22.943  1.00  0.00    -0.276 N 
ATOM      8  N   UNL     1     -19.807 -43.191  23.511  1.00  0.00    -0.297 N 
ATOM      9  C   UNL     1     -19.434 -42.248  24.462  1.00  0.00     0.060 C 
ATOM     10  C   UNL     1     -20.319 -41.236  24.476  1.00  0.00     0.033 C 
ATOM     11  C   UNL     1     -21.431 -41.495  23.473  1.00  0.00     0.164 C 
ATOM     12  H   UNL     1     -19.766 -44.139  23.892  1.00  0.00     0.188 HD
BRANCH   9  13
ATOM     13  C   UNL     1     -18.244 -42.421  25.299  1.00  0.00     0.005 A 
ATOM     14  C   UNL     1     -16.990 -42.694  24.735  1.00  0.00     0.049 A 
ATOM     15  C   UNL     1     -18.335 -42.300  26.693  1.00  0.00     0.049 A 
ATOM     16  C   UNL     1     -15.870 -42.843  25.552  1.00  0.00     0.126 A 
ATOM     17  C   UNL     1     -17.201 -42.454  27.489  1.00  0.00     0.126 A 
ATOM     18  C   UNL     1     -15.962 -42.726  26.930  1.00  0.00     0.078 A 
ATOM     19  F   UNL     1     -14.680 -43.101  24.991  1.00  0.00    -0.207 F 
ATOM     20  F   UNL     1     -17.311 -42.335  28.818  1.00  0.00    -0.207 F 
ENDBRANCH   9  13
BRANCH  11  21
ATOM     21  C   UNL     1     -21.492 -40.407  22.412  1.00  0.00     0.023 A 
ATOM     22  C   UNL     1     -20.322 -39.755  21.984  1.00  0.00     0.014 A 
ATOM     23  C   UNL     1     -22.727 -40.001  21.868  1.00  0.00     0.128 A 
ATOM     24  C   UNL     1     -20.376 -38.745  21.024  1.00  0.00     0.047 A 
ATOM     25  C   UNL     1     -22.770 -38.983  20.901  1.00  0.00     0.093 A 
ATOM     26  C   UNL     1     -21.596 -38.356  20.476  1.00  0.00     0.122 A 
BRANCH  23  27
ATOM     27  O   UNL     1     -23.832 -40.660  22.347  1.00  0.00    -0.496 OA
ATOM     28  C   UNL     1     -24.626 -41.386  21.415  1.00  0.00     0.278 C 
ENDBRANCH  23  27
BRANCH  26  29
ATOM     29  O   UNL     1     -21.507 -37.357  19.546  1.00  0.00    -0.497 OA
ATOM     30  C   UNL     1     -22.077 -37.605  18.268  1.00  0.00     0.278 C 
ENDBRANCH  26  29
ENDBRANCH  11  21
ENDBRANCH   1   7
BRANCH   4  31
ATOM     31  S   UNL     1     -24.322 -46.231  19.281  1.00  0.00     0.238 S 
ATOM     32  O   UNL     1     -24.861 -47.329  20.050  1.00  0.00    -0.207 OA
ATOM     33  O   UNL     1     -25.146 -45.373  18.465  1.00  0.00    -0.207 OA
BRANCH  31  34
ATOM     34  N   UNL     1     -23.141 -46.913  18.292  1.00  0.00    -0.225 NA
ATOM     35  H   UNL     1     -23.275 -47.910  18.136  1.00  0.00     0.137 HD
ATOM     36  H   UNL     1     -23.106 -46.390  17.415  1.00  0.00     0.137 HD
ENDBRANCH  31  34
ENDBRANCH   4  31
TORSDOF 7
ENDMDL
MODEL 4
REMARK VINA RESULT:    -8.897      4.910      7.733
REMARK INTER + INTRA:         -13.405
REMARK INTER:                 -11.779
REMARK INTRA:                  -1.626
REMARK UNBOUND:                -1.128
REMARK SMILES COc1ccc([C@@H]2C=C(c3cc(F)cc(F)c3)NN2c2ccc(S(N)(=O)=O)cc2)c(OC)c1
REMARK SMILES IDX 20 1 21 2 22 3 23 4 28 5 29 6 19 7 18 8 9 9 8 10 7 11 10 13
REMARK SMILES IDX 11 14 17 15 12 16 15 17 14 18 13 19 16 20 6 21 5 22 30 23
REMARK SMILES IDX 4 24 33 25 3 26 31 27 32 28 2 29 1 30 24 31 26 32 27 33
REMARK SMILES IDX 25 34
REMARK H PARENT 18 12 25 35 25 36
ROOT
ATOM      1  C   UNL     1     -20.723 -40.753  21.976  1.00  0.00     0.058 A 
ATOM      2  C   UNL     1     -20.803 -39.350  22.052  1.00  0.00     0.029 A 
ATOM      3  C   UNL     1     -21.379 -38.585  21.031  1.00  0.00     0.024 A 
ATOM      4  C   UNL     1     -21.882 -39.225  19.900  1.00  0.00     0.082 A 
ATOM      5  C   UNL     1     -21.834 -40.613  19.795  1.00  0.00     0.024 A 
ATOM      6  C   UNL     1     -21.255 -41.363  20.826  1.00  0.00     0.029 A 
ENDROOT
BRANCH   1   7
ATOM      7  N   UNL     1     -20.141 -41.482  23.009  1.00  0.00    -0.276 N 
ATOM      8  N   UNL     1     -18.783 -41.557  23.279  1.00  0.00    -0.297 N 
ATOM      9  C   UNL     1     -18.551 -42.514  24.260  1.00  0.00     0.060 C 
ATOM     10  C   UNL     1     -19.719 -43.010  24.703  1.00  0.00     0.033 C 
ATOM     11  C   UNL     1     -20.879 -42.375  23.954  1.00  0.00     0.164 C 
ATOM     12  H   UNL     1     -18.181 -41.704  22.466  1.00  0.00     0.188 HD
BRANCH   9  13
ATOM     13  C   UNL     1     -17.195 -42.883  24.676  1.00  0.00     0.005 A 
ATOM     14  C   UNL     1     -16.749 -42.664  25.987  1.00  0.00     0.049 A 
ATOM     15  C   UNL     1     -16.313 -43.482  23.765  1.00  0.00     0.049 A 
ATOM     16  C   UNL     1     -15.458 -43.034  26.362  1.00  0.00     0.126 A 
ATOM     17  C   UNL     1     -15.027 -43.843  24.162  1.00  0.00     0.126 A 
ATOM     18  C   UNL     1     -14.587 -43.624  25.459  1.00  0.00     0.078 A 
ATOM     19  F   UNL     1     -15.054 -42.817  27.621  1.00  0.00    -0.207 F 
ATOM     20  F   UNL     1     -14.202 -44.412  23.276  1.00  0.00    -0.207 F 
ENDBRANCH   9  13
BRANCH  11  21
ATOM     21  C   UNL     1     -21.813 -41.630  24.896  1.00  0.00     0.023 A 
ATOM     22  C   UNL     1     -21.337 -41.100  26.109  1.00  0.00     0.014 A 
ATOM     23  C   UNL     1     -23.182 -41.495  24.593  1.00  0.00     0.128 A 
ATOM     24  C   UNL     1     -22.193 -40.433  26.983  1.00  0.00     0.047 A 
ATOM     25  C   UNL     1     -24.036 -40.820  25.480  1.00  0.00     0.093 A 
ATOM     26  C   UNL     1     -23.544 -40.286  26.673  1.00  0.00     0.122 A 
BRANCH  23  27
ATOM     27  O   UNL     1     -23.586 -42.056  23.407  1.00  0.00    -0.496 OA
ATOM     28  C   UNL     1     -24.491 -41.314  22.597  1.00  0.00     0.278 C 
ENDBRANCH  23  27
BRANCH  26  29
ATOM     29  O   UNL     1     -24.271 -39.611  27.615  1.00  0.00    -0.497 OA
ATOM     30  C   UNL     1     -23.907 -38.261  27.874  1.00  0.00     0.278 C 
ENDBRANCH  26  29
ENDBRANCH  11  21
ENDBRANCH   1   7
BRANCH   4  31
ATOM     31  S   UNL     1     -22.613 -38.261  18.606  1.00  0.00     0.238 S 
ATOM     32  O   UNL     1     -22.795 -39.105  17.447  1.00  0.00    -0.207 OA
ATOM     33  O   UNL     1     -23.679 -37.469  19.168  1.00  0.00    -0.207 OA
BRANCH  31  34
ATOM     34  N   UNL     1     -21.347 -37.222  18.209  1.00  0.00    -0.225 NA
ATOM     35  H   UNL     1     -21.124 -36.559  18.950  1.00  0.00     0.137 HD
ATOM     36  H   UNL     1     -20.536 -37.781  17.939  1.00  0.00     0.137 HD
ENDBRANCH  31  34
ENDBRANCH   4  31
TORSDOF 7
ENDMDL
MODEL 5
REMARK VINA RESULT:    -8.774      4.873      7.939
REMARK INTER + INTRA:         -13.236
REMARK INTER:                 -11.978
REMARK INTRA:                  -1.257
REMARK UNBOUND:                -1.128
REMARK SMILES COc1ccc([C@@H]2C=C(c3cc(F)cc(F)c3)NN2c2ccc(S(N)(=O)=O)cc2)c(OC)c1
REMARK SMILES IDX 20 1 21 2 22 3 23 4 28 5 29 6 19 7 18 8 9 9 8 10 7 11 10 13
REMARK SMILES IDX 11 14 17 15 12 16 15 17 14 18 13 19 16 20 6 21 5 22 30 23
REMARK SMILES IDX 4 24 33 25 3 26 31 27 32 28 2 29 1 30 24 31 26 32 27 33
REMARK SMILES IDX 25 34
REMARK H PARENT 18 12 25 35 25 36
ROOT
ATOM      1  C   UNL     1     -21.360 -40.741  25.146  1.00  0.00     0.058 A 
ATOM      2  C   UNL     1     -21.509 -40.830  26.543  1.00  0.00     0.029 A 
ATOM      3  C   UNL     1     -22.653 -40.358  27.196  1.00  0.00     0.024 A 
ATOM      4  C   UNL     1     -23.674 -39.774  26.449  1.00  0.00     0.082 A 
ATOM      5  C   UNL     1     -23.569 -39.682  25.063  1.00  0.00     0.024 A 
ATOM      6  C   UNL     1     -22.418 -40.160  24.425  1.00  0.00     0.029 A 
ENDROOT
BRANCH   1   7
ATOM      7  N   UNL     1     -20.206 -41.219  24.529  1.00  0.00    -0.276 N 
ATOM      8  N   UNL     1     -19.216 -41.971  25.141  1.00  0.00    -0.297 N 
ATOM      9  C   UNL     1     -18.134 -42.113  24.279  1.00  0.00     0.060 C 
ATOM     10  C   UNL     1     -18.416 -41.552  23.091  1.00  0.00     0.033 C 
ATOM     11  C   UNL     1     -19.804 -40.931  23.119  1.00  0.00     0.164 C 
ATOM     12  H   UNL     1     -18.917 -41.638  26.061  1.00  0.00     0.188 HD
BRANCH   9  13
ATOM     13  C   UNL     1     -16.895 -42.776  24.696  1.00  0.00     0.005 A 
ATOM     14  C   UNL     1     -16.488 -42.786  26.037  1.00  0.00     0.049 A 
ATOM     15  C   UNL     1     -16.093 -43.434  23.752  1.00  0.00     0.049 A 
ATOM     16  C   UNL     1     -15.311 -43.434  26.409  1.00  0.00     0.126 A 
ATOM     17  C   UNL     1     -14.920 -44.074  24.148  1.00  0.00     0.126 A 
ATOM     18  C   UNL     1     -14.518 -44.081  25.475  1.00  0.00     0.078 A 
ATOM     19  F   UNL     1     -14.943 -43.433  27.698  1.00  0.00    -0.207 F 
ATOM     20  F   UNL     1     -14.168 -44.694  23.230  1.00  0.00    -0.207 F 
ENDBRANCH   9  13
BRANCH  11  21
ATOM     21  C   UNL     1     -20.719 -41.561  22.080  1.00  0.00     0.023 A 
ATOM     22  C   UNL     1     -21.148 -42.894  22.214  1.00  0.00     0.014 A 
ATOM     23  C   UNL     1     -21.119 -40.836  20.939  1.00  0.00     0.128 A 
ATOM     24  C   UNL     1     -21.973 -43.480  21.255  1.00  0.00     0.047 A 
ATOM     25  C   UNL     1     -21.951 -41.436  19.980  1.00  0.00     0.093 A 
ATOM     26  C   UNL     1     -22.381 -42.756  20.137  1.00  0.00     0.122 A 
BRANCH  23  27
ATOM     27  O   UNL     1     -20.645 -39.550  20.857  1.00  0.00    -0.496 OA
ATOM     28  C   UNL     1     -19.734 -39.247  19.806  1.00  0.00     0.278 C 
ENDBRANCH  23  27
BRANCH  26  29
ATOM     29  O   UNL     1     -23.188 -43.450  19.277  1.00  0.00    -0.497 OA
ATOM     30  C   UNL     1     -23.134 -44.869  19.337  1.00  0.00     0.278 C 
ENDBRANCH  26  29
ENDBRANCH  11  21
ENDBRANCH   1   7
BRANCH   4  31
ATOM     31  S   UNL     1     -25.124 -39.176  27.272  1.00  0.00     0.238 S 
ATOM     32  O   UNL     1     -25.227 -37.752  27.051  1.00  0.00    -0.207 OA
ATOM     33  O   UNL     1     -26.211 -40.086  27.007  1.00  0.00    -0.207 OA
BRANCH  31  34
ATOM     34  N   UNL     1     -24.684 -39.349  28.889  1.00  0.00    -0.225 NA
ATOM     35  H   UNL     1     -23.691 -39.189  29.055  1.00  0.00     0.137 HD
ATOM     36  H   UNL     1     -25.270 -38.733  29.456  1.00  0.00     0.137 HD
ENDBRANCH  31  34
ENDBRANCH   4  31
TORSDOF 7
ENDMDL
MODEL 6
REMARK VINA RESULT:    -8.565      3.635      6.508
REMARK INTER + INTRA:         -12.947
REMARK INTER:                 -11.824
REMARK INTRA:                  -1.123
REMARK UNBOUND:                -1.128
REMARK SMILES COc1ccc([C@@H]2C=C(c3cc(F)cc(F)c3)NN2c2ccc(S(N)(=O)=O)cc2)c(OC)c1
REMARK SMILES IDX 20 1 21 2 22 3 23 4 28 5 29 6 19 7 18 8 9 9 8 10 7 11 10 13
REMARK SMILES IDX 11 14 17 15 12 16 15 17 14 18 13 19 16 20 6 21 5 22 30 23
REMARK SMILES IDX 4 24 33 25 3 26 31 27 32 28 2 29 1 30 24 31 26 32 27 33
REMARK SMILES IDX 25 34
REMARK H PARENT 18 12 25 35 25 36
ROOT
ATOM      1  C   UNL     1     -19.018 -42.368  25.774  1.00  0.00     0.058 A 
ATOM      2  C   UNL     1     -18.362 -42.641  24.559  1.00  0.00     0.029 A 
ATOM      3  C   UNL     1     -16.980 -42.849  24.496  1.00  0.00     0.024 A 
ATOM      4  C   UNL     1     -16.225 -42.776  25.665  1.00  0.00     0.082 A 
ATOM      5  C   UNL     1     -16.841 -42.522  26.887  1.00  0.00     0.024 A 
ATOM      6  C   UNL     1     -18.225 -42.318  26.933  1.00  0.00     0.029 A 
ENDROOT
BRANCH   1   7
ATOM      7  N   UNL     1     -20.396 -42.163  25.800  1.00  0.00    -0.276 N 
ATOM      8  N   UNL     1     -21.128 -41.738  26.898  1.00  0.00    -0.297 N 
ATOM      9  C   UNL     1     -22.488 -41.820  26.617  1.00  0.00     0.060 C 
ATOM     10  C   UNL     1     -22.670 -42.206  25.342  1.00  0.00     0.033 C 
ATOM     11  C   UNL     1     -21.329 -42.447  24.668  1.00  0.00     0.164 C 
ATOM     12  H   UNL     1     -20.902 -42.199  27.782  1.00  0.00     0.188 HD
BRANCH   9  13
ATOM     13  C   UNL     1     -23.506 -41.531  27.630  1.00  0.00     0.005 A 
ATOM     14  C   UNL     1     -23.786 -40.217  28.028  1.00  0.00     0.049 A 
ATOM     15  C   UNL     1     -24.238 -42.574  28.215  1.00  0.00     0.049 A 
ATOM     16  C   UNL     1     -24.768 -39.966  28.986  1.00  0.00     0.126 A 
ATOM     17  C   UNL     1     -25.214 -42.299  29.171  1.00  0.00     0.126 A 
ATOM     18  C   UNL     1     -25.489 -40.998  29.565  1.00  0.00     0.078 A 
ATOM     19  F   UNL     1     -25.020 -38.702  29.349  1.00  0.00    -0.207 F 
ATOM     20  F   UNL     1     -25.901 -43.310  29.717  1.00  0.00    -0.207 F 
ENDBRANCH   9  13
BRANCH  11  21
ATOM     21  C   UNL     1     -21.134 -41.530  23.469  1.00  0.00     0.023 A 
ATOM     22  C   UNL     1     -20.870 -40.161  23.647  1.00  0.00     0.014 A 
ATOM     23  C   UNL     1     -21.256 -42.028  22.156  1.00  0.00     0.128 A 
ATOM     24  C   UNL     1     -20.707 -39.315  22.551  1.00  0.00     0.047 A 
ATOM     25  C   UNL     1     -21.090 -41.168  21.059  1.00  0.00     0.093 A 
ATOM     26  C   UNL     1     -20.813 -39.812  21.253  1.00  0.00     0.122 A 
BRANCH  23  27
ATOM     27  O   UNL     1     -21.539 -43.368  22.053  1.00  0.00    -0.496 OA
ATOM     28  C   UNL     1     -21.858 -43.880  20.763  1.00  0.00     0.278 C 
ENDBRANCH  23  27
BRANCH  26  29
ATOM     29  O   UNL     1     -20.631 -38.877  20.272  1.00  0.00    -0.497 OA
ATOM     30  C   UNL     1     -21.293 -39.096  19.034  1.00  0.00     0.278 C 
ENDBRANCH  26  29
ENDBRANCH  11  21
ENDBRANCH   1   7
BRANCH   4  31
ATOM     31  S   UNL     1     -14.474 -43.040  25.589  1.00  0.00     0.238 S 
ATOM     32  O   UNL     1     -14.036 -42.842  24.226  1.00  0.00    -0.207 OA
ATOM     33  O   UNL     1     -13.859 -42.373  26.710  1.00  0.00    -0.207 OA
BRANCH  31  34
ATOM     34  N   UNL     1     -14.376 -44.701  25.854  1.00  0.00    -0.225 NA
ATOM     35  H   UNL     1     -13.512 -44.984  26.315  1.00  0.00     0.137 HD
ATOM     36  H   UNL     1     -15.203 -44.999  26.376  1.00  0.00     0.137 HD
ENDBRANCH  31  34
ENDBRANCH   4  31
TORSDOF 7
ENDMDL
MODEL 7
REMARK VINA RESULT:    -8.149      4.651      7.379
REMARK INTER + INTRA:         -12.373
REMARK INTER:                 -10.781
REMARK INTRA:                  -1.592
REMARK UNBOUND:                -1.128
REMARK SMILES COc1ccc([C@@H]2C=C(c3cc(F)cc(F)c3)NN2c2ccc(S(N)(=O)=O)cc2)c(OC)c1
REMARK SMILES IDX 20 1 21 2 22 3 23 4 28 5 29 6 19 7 18 8 9 9 8 10 7 11 10 13
REMARK SMILES IDX 11 14 17 15 12 16 15 17 14 18 13 19 16 20 6 21 5 22 30 23
REMARK SMILES IDX 4 24 33 25 3 26 31 27 32 28 2 29 1 30 24 31 26 32 27 33
REMARK SMILES IDX 25 34
REMARK H PARENT 18 12 25 35 25 36
ROOT
ATOM      1  C   UNL     1     -22.277 -44.285  26.963  1.00  0.00     0.058 A 
ATOM      2  C   UNL     1     -22.566 -44.572  28.310  1.00  0.00     0.029 A 
ATOM      3  C   UNL     1     -23.546 -45.502  28.675  1.00  0.00     0.024 A 
ATOM      4  C   UNL     1     -24.266 -46.159  27.680  1.00  0.00     0.082 A 
ATOM      5  C   UNL     1     -23.999 -45.912  26.336  1.00  0.00     0.024 A 
ATOM      6  C   UNL     1     -23.014 -44.980  25.988  1.00  0.00     0.029 A 
ENDROOT
BRANCH   1   7
ATOM      7  N   UNL     1     -21.297 -43.351  26.635  1.00  0.00    -0.276 N 
ATOM      8  N   UNL     1     -20.071 -43.638  26.055  1.00  0.00    -0.297 N 
ATOM      9  C   UNL     1     -19.279 -42.495  26.040  1.00  0.00     0.060 C 
ATOM     10  C   UNL     1     -19.975 -41.449  26.515  1.00  0.00     0.033 C 
ATOM     11  C   UNL     1     -21.369 -41.888  26.931  1.00  0.00     0.164 C 
ATOM     12  H   UNL     1     -19.570 -44.433  26.457  1.00  0.00     0.188 HD
BRANCH   9  13
ATOM     13  C   UNL     1     -17.889 -42.523  25.576  1.00  0.00     0.005 A 
ATOM     14  C   UNL     1     -17.565 -42.308  24.230  1.00  0.00     0.049 A 
ATOM     15  C   UNL     1     -16.845 -42.752  26.484  1.00  0.00     0.049 A 
ATOM     16  C   UNL     1     -16.234 -42.328  23.815  1.00  0.00     0.126 A 
ATOM     17  C   UNL     1     -15.522 -42.768  26.046  1.00  0.00     0.126 A 
ATOM     18  C   UNL     1     -15.203 -42.557  24.713  1.00  0.00     0.078 A 
ATOM     19  F   UNL     1     -15.948 -42.117  22.523  1.00  0.00    -0.207 F 
ATOM     20  F   UNL     1     -14.540 -42.990  26.929  1.00  0.00    -0.207 F 
ENDBRANCH   9  13
BRANCH  11  21
ATOM     21  C   UNL     1     -22.445 -41.157  26.141  1.00  0.00     0.023 A 
ATOM     22  C   UNL     1     -22.278 -40.898  24.769  1.00  0.00     0.014 A 
ATOM     23  C   UNL     1     -23.610 -40.686  26.779  1.00  0.00     0.128 A 
ATOM     24  C   UNL     1     -23.253 -40.213  24.046  1.00  0.00     0.047 A 
ATOM     25  C   UNL     1     -24.587 -39.998  26.042  1.00  0.00     0.093 A 
ATOM     26  C   UNL     1     -24.412 -39.763  24.675  1.00  0.00     0.122 A 
BRANCH  23  27
ATOM     27  O   UNL     1     -23.699 -40.950  28.123  1.00  0.00    -0.496 OA
ATOM     28  C   UNL     1     -24.928 -41.474  28.615  1.00  0.00     0.278 C 
ENDBRANCH  23  27
BRANCH  26  29
ATOM     29  O   UNL     1     -25.286 -39.107  23.851  1.00  0.00    -0.497 OA
ATOM     30  C   UNL     1     -25.294 -39.484  22.481  1.00  0.00     0.278 C 
ENDBRANCH  26  29
ENDBRANCH  11  21
ENDBRANCH   1   7
BRANCH   4  31
ATOM     31  S   UNL     1     -25.507 -47.338  28.138  1.00  0.00     0.238 S 
ATOM     32  O   UNL     1     -26.805 -46.715  28.013  1.00  0.00    -0.207 OA
ATOM     33  O   UNL     1     -25.188 -48.604  27.525  1.00  0.00    -0.207 OA
BRANCH  31  34
ATOM     34  N   UNL     1     -25.236 -47.480  29.795  1.00  0.00    -0.225 NA
ATOM     35  H   UNL     1     -25.025 -48.433  30.087  1.00  0.00     0.137 HD
ATOM     36  H   UNL     1     -24.499 -46.826  30.064  1.00  0.00     0.137 HD
ENDBRANCH  31  34
ENDBRANCH   4  31
TORSDOF 7
ENDMDL
MODEL 8
REMARK VINA RESULT:    -8.038      4.542      7.718
REMARK INTER + INTRA:         -12.220
REMARK INTER:                 -10.758
REMARK INTRA:                  -1.463
REMARK UNBOUND:                -1.128
REMARK SMILES COc1ccc([C@@H]2C=C(c3cc(F)cc(F)c3)NN2c2ccc(S(N)(=O)=O)cc2)c(OC)c1
REMARK SMILES IDX 20 1 21 2 22 3 23 4 28 5 29 6 19 7 18 8 9 9 8 10 7 11 10 13
REMARK SMILES IDX 11 14 17 15 12 16 15 17 14 18 13 19 16 20 6 21 5 22 30 23
REMARK SMILES IDX 4 24 33 25 3 26 31 27 32 28 2 29 1 30 24 31 26 32 27 33
REMARK SMILES IDX 25 34
REMARK H PARENT 18 12 25 35 25 36
ROOT
ATOM      1  C   UNL     1     -21.558 -41.799  26.265  1.00  0.00     0.058 A 
ATOM      2  C   UNL     1     -21.982 -40.530  26.703  1.00  0.00     0.029 A 
ATOM      3  C   UNL     1     -23.125 -40.366  27.494  1.00  0.00     0.024 A 
ATOM      4  C   UNL     1     -23.874 -41.484  27.853  1.00  0.00     0.082 A 
ATOM      5  C   UNL     1     -23.477 -42.757  27.450  1.00  0.00     0.024 A 
ATOM      6  C   UNL     1     -22.330 -42.905  26.660  1.00  0.00     0.029 A 
ENDROOT
BRANCH   1   7
ATOM      7  N   UNL     1     -20.416 -41.926  25.477  1.00  0.00    -0.276 N 
ATOM      8  N   UNL     1     -19.273 -42.632  25.820  1.00  0.00    -0.297 N 
ATOM      9  C   UNL     1     -18.274 -42.393  24.883  1.00  0.00     0.060 C 
ATOM     10  C   UNL     1     -18.750 -41.620  23.892  1.00  0.00     0.033 C 
ATOM     11  C   UNL     1     -20.201 -41.254  24.159  1.00  0.00     0.164 C 
ATOM     12  H   UNL     1     -18.934 -42.482  26.773  1.00  0.00     0.188 HD
BRANCH   9  13
ATOM     13  C   UNL     1     -16.919 -42.927  25.043  1.00  0.00     0.005 A 
ATOM     14  C   UNL     1     -16.244 -43.535  23.976  1.00  0.00     0.049 A 
ATOM     15  C   UNL     1     -16.260 -42.826  26.276  1.00  0.00     0.049 A 
ATOM     16  C   UNL     1     -14.951 -44.026  24.150  1.00  0.00     0.126 A 
ATOM     17  C   UNL     1     -14.967 -43.325  26.427  1.00  0.00     0.126 A 
ATOM     18  C   UNL     1     -14.302 -43.927  25.371  1.00  0.00     0.078 A 
ATOM     19  F   UNL     1     -14.324 -44.601  23.115  1.00  0.00    -0.207 F 
ATOM     20  F   UNL     1     -14.357 -43.219  27.614  1.00  0.00    -0.207 F 
ENDBRANCH   9  13
BRANCH  11  21
ATOM     21  C   UNL     1     -21.119 -41.761  23.056  1.00  0.00     0.023 A 
ATOM     22  C   UNL     1     -21.416 -43.130  22.941  1.00  0.00     0.014 A 
ATOM     23  C   UNL     1     -21.654 -40.872  22.102  1.00  0.00     0.128 A 
ATOM     24  C   UNL     1     -22.242 -43.600  21.922  1.00  0.00     0.047 A 
ATOM     25  C   UNL     1     -22.486 -41.356  21.080  1.00  0.00     0.093 A 
ATOM     26  C   UNL     1     -22.784 -42.718  20.989  1.00  0.00     0.122 A 
BRANCH  23  27
ATOM     27  O   UNL     1     -21.305 -39.554  22.257  1.00  0.00    -0.496 OA
ATOM     28  C   UNL     1     -20.397 -38.994  21.315  1.00  0.00     0.278 C 
ENDBRANCH  23  27
BRANCH  26  29
ATOM     29  O   UNL     1     -23.576 -43.310  20.044  1.00  0.00    -0.497 OA
ATOM     30  C   UNL     1     -24.974 -43.345  20.296  1.00  0.00     0.278 C 
ENDBRANCH  26  29
ENDBRANCH  11  21
ENDBRANCH   1   7
BRANCH   4  31
ATOM     31  S   UNL     1     -25.321 -41.279  28.854  1.00  0.00     0.238 S 
ATOM     32  O   UNL     1     -25.808 -39.928  28.691  1.00  0.00    -0.207 OA
ATOM     33  O   UNL     1     -26.164 -42.437  28.687  1.00  0.00    -0.207 OA
BRANCH  31  34
ATOM     34  N   UNL     1     -24.663 -41.335  30.405  1.00  0.00    -0.225 NA
ATOM     35  H   UNL     1     -23.681 -41.604  30.415  1.00  0.00     0.137 HD
ATOM     36  H   UNL     1     -24.817 -40.433  30.859  1.00  0.00     0.137 HD
ENDBRANCH  31  34
ENDBRANCH   4  31
TORSDOF 7
ENDMDL
MODEL 9
REMARK VINA RESULT:    -7.943      4.688      7.155
REMARK INTER + INTRA:         -12.088
REMARK INTER:                 -10.812
REMARK INTRA:                  -1.276
REMARK UNBOUND:                -1.128
REMARK SMILES COc1ccc([C@@H]2C=C(c3cc(F)cc(F)c3)NN2c2ccc(S(N)(=O)=O)cc2)c(OC)c1
REMARK SMILES IDX 20 1 21 2 22 3 23 4 28 5 29 6 19 7 18 8 9 9 8 10 7 11 10 13
REMARK SMILES IDX 11 14 17 15 12 16 15 17 14 18 13 19 16 20 6 21 5 22 30 23
REMARK SMILES IDX 4 24 33 25 3 26 31 27 32 28 2 29 1 30 24 31 26 32 27 33
REMARK SMILES IDX 25 34
REMARK H PARENT 18 12 25 35 25 36
ROOT
ATOM      1  C   UNL     1     -21.974 -44.946  25.446  1.00  0.00     0.058 A 
ATOM      2  C   UNL     1     -22.048 -45.698  24.259  1.00  0.00     0.029 A 
ATOM      3  C   UNL     1     -22.983 -46.726  24.092  1.00  0.00     0.024 A 
ATOM      4  C   UNL     1     -23.862 -47.024  25.131  1.00  0.00     0.082 A 
ATOM      5  C   UNL     1     -23.828 -46.292  26.315  1.00  0.00     0.024 A 
ATOM      6  C   UNL     1     -22.888 -45.266  26.465  1.00  0.00     0.029 A 
ENDROOT
BRANCH   1   7
ATOM      7  N   UNL     1     -21.029 -43.931  25.580  1.00  0.00    -0.276 N 
ATOM      8  N   UNL     1     -19.849 -43.827  24.858  1.00  0.00    -0.297 N 
ATOM      9  C   UNL     1     -19.070 -42.799  25.379  1.00  0.00     0.060 C 
ATOM     10  C   UNL     1     -19.736 -42.171  26.363  1.00  0.00     0.033 C 
ATOM     11  C   UNL     1     -21.090 -42.825  26.583  1.00  0.00     0.164 C 
ATOM     12  H   UNL     1     -19.312 -44.692  24.768  1.00  0.00     0.188 HD
BRANCH   9  13
ATOM     13  C   UNL     1     -17.720 -42.524  24.880  1.00  0.00     0.005 A 
ATOM     14  C   UNL     1     -17.506 -42.052  23.577  1.00  0.00     0.049 A 
ATOM     15  C   UNL     1     -16.606 -42.713  25.710  1.00  0.00     0.049 A 
ATOM     16  C   UNL     1     -16.212 -41.787  23.130  1.00  0.00     0.126 A 
ATOM     17  C   UNL     1     -15.323 -42.442  25.241  1.00  0.00     0.126 A 
ATOM     18  C   UNL     1     -15.113 -41.977  23.951  1.00  0.00     0.078 A 
ATOM     19  F   UNL     1     -16.031 -41.334  21.882  1.00  0.00    -0.207 F 
ATOM     20  F   UNL     1     -14.273 -42.631  26.050  1.00  0.00    -0.207 F 
ENDBRANCH   9  13
BRANCH  11  21
ATOM     21  C   UNL     1     -22.230 -41.845  26.345  1.00  0.00     0.023 A 
ATOM     22  C   UNL     1     -22.198 -40.958  25.254  1.00  0.00     0.014 A 
ATOM     23  C   UNL     1     -23.318 -41.776  27.237  1.00  0.00     0.128 A 
ATOM     24  C   UNL     1     -23.231 -40.047  25.042  1.00  0.00     0.047 A 
ATOM     25  C   UNL     1     -24.354 -40.855  27.015  1.00  0.00     0.093 A 
ATOM     26  C   UNL     1     -24.315 -39.992  25.917  1.00  0.00     0.122 A 
BRANCH  23  27
ATOM     27  O   UNL     1     -23.275 -42.652  28.294  1.00  0.00    -0.496 OA
ATOM     28  C   UNL     1     -24.513 -43.072  28.857  1.00  0.00     0.278 C 
ENDBRANCH  23  27
BRANCH  26  29
ATOM     29  O   UNL     1     -25.257 -39.055  25.593  1.00  0.00    -0.497 OA
ATOM     30  C   UNL     1     -26.516 -39.146  26.246  1.00  0.00     0.278 C 
ENDBRANCH  26  29
ENDBRANCH  11  21
ENDBRANCH   1   7
BRANCH   4  31
ATOM     31  S   UNL     1     -25.048 -48.324  24.923  1.00  0.00     0.238 S 
ATOM     32  O   UNL     1     -25.186 -49.028  26.178  1.00  0.00    -0.207 OA
ATOM     33  O   UNL     1     -26.177 -47.804  24.192  1.00  0.00    -0.207 OA
BRANCH  31  34
ATOM     34  N   UNL     1     -24.212 -49.378  23.908  1.00  0.00    -0.225 NA
ATOM     35  H   UNL     1     -24.571 -49.386  22.954  1.00  0.00     0.137 HD
ATOM     36  H   UNL     1     -23.218 -49.144  23.940  1.00  0.00     0.137 HD
ENDBRANCH  31  34
ENDBRANCH   4  31
TORSDOF 7
ENDMDL
