MODEL 1
REMARK VINA RESULT:    -7.584      0.000      0.000
REMARK INTER + INTRA:          -9.877
REMARK INTER:                  -9.580
REMARK INTRA:                  -0.297
REMARK UNBOUND:                -0.297
REMARK SMILES COc1ccccc1[C@H](C)NS(N)(=O)=O
REMARK SMILES IDX 9 1 10 2 8 3 3 4 4 5 5 6 7 7 6 8 2 9 1 10 11 11 12 13 14 14
REMARK SMILES IDX 15 15 13 16
REMARK H PARENT 11 12 13 17 13 18
ROOT
ATOM      1  C   UNL     1      -9.223 -45.826  30.410  1.00  0.00     0.101 C 
ATOM      2  C   UNL     1      -9.000 -47.019  31.344  1.00  0.00     0.031 C 
ENDROOT
BRANCH   1   3
ATOM      3  C   UNL     1     -10.549 -45.970  29.666  1.00  0.00     0.012 A 
ATOM      4  C   UNL     1     -11.798 -45.737  30.282  1.00  0.00     0.123 A 
ATOM      5  C   UNL     1     -12.974 -45.901  29.541  1.00  0.00     0.047 A 
ATOM      6  C   UNL     1     -12.923 -46.289  28.201  1.00  0.00     0.004 A 
ATOM      7  C   UNL     1     -10.518 -46.357  28.313  1.00  0.00     0.009 A 
ATOM      8  C   UNL     1     -11.697 -46.516  27.587  1.00  0.00     0.001 A 
BRANCH   4   9
ATOM      9  O   UNL     1     -11.764 -45.350  31.600  1.00  0.00    -0.496 OA
ATOM     10  C   UNL     1     -12.719 -44.386  32.027  1.00  0.00     0.278 C 
ENDBRANCH   4   9
ENDBRANCH   1   3
BRANCH   1  11
ATOM     11  N   UNL     1      -9.184 -44.549  31.149  1.00  0.00    -0.195 NA
ATOM     12  H   UNL     1      -9.430 -44.677  32.132  1.00  0.00     0.143 HD
BRANCH  11  13
ATOM     13  S   UNL     1      -7.920 -43.515  30.929  1.00  0.00     0.274 S 
ATOM     14  O   UNL     1      -8.194 -42.725  29.758  1.00  0.00    -0.195 OA
ATOM     15  O   UNL     1      -7.505 -42.939  32.178  1.00  0.00    -0.195 OA
BRANCH  13  16
ATOM     16  N   UNL     1      -6.765 -44.625  30.480  1.00  0.00    -0.216 NA
ATOM     17  H   UNL     1      -6.867 -45.460  31.056  1.00  0.00     0.138 HD
ATOM     18  H   UNL     1      -5.846 -44.202  30.614  1.00  0.00     0.138 HD
ENDBRANCH  13  16
ENDBRANCH  11  13
ENDBRANCH   1  11
TORSDOF 5
ENDMDL
MODEL 2
REMARK VINA RESULT:    -7.538      3.691      4.871
REMARK INTER + INTRA:          -9.819
REMARK INTER:                  -9.391
REMARK INTRA:                  -0.428
REMARK UNBOUND:                -0.297
REMARK SMILES COc1ccccc1[C@H](C)NS(N)(=O)=O
REMARK SMILES IDX 9 1 10 2 8 3 3 4 4 5 5 6 7 7 6 8 2 9 1 10 11 11 12 13 14 14
REMARK SMILES IDX 15 15 13 16
REMARK H PARENT 11 12 13 17 13 18
ROOT
ATOM      1  C   UNL     1     -12.123 -46.089  28.586  1.00  0.00     0.101 C 
ATOM      2  C   UNL     1     -12.554 -46.662  27.233  1.00  0.00     0.031 C 
ENDROOT
BRANCH   1   3
ATOM      3  C   UNL     1     -11.384 -44.767  28.396  1.00  0.00     0.012 A 
ATOM      4  C   UNL     1     -12.010 -43.609  27.885  1.00  0.00     0.123 A 
ATOM      5  C   UNL     1     -11.266 -42.435  27.725  1.00  0.00     0.047 A 
ATOM      6  C   UNL     1      -9.913 -42.397  28.069  1.00  0.00     0.004 A 
ATOM      7  C   UNL     1     -10.020 -44.708  28.741  1.00  0.00     0.009 A 
ATOM      8  C   UNL     1      -9.290 -43.531  28.577  1.00  0.00     0.001 A 
BRANCH   4   9
ATOM      9  O   UNL     1     -13.344 -43.724  27.578  1.00  0.00    -0.496 OA
ATOM     10  C   UNL     1     -13.780 -43.194  26.332  1.00  0.00     0.278 C 
ENDBRANCH   4   9
ENDBRANCH   1   3
BRANCH   1  11
ATOM     11  N   UNL     1     -13.279 -45.906  29.487  1.00  0.00    -0.195 NA
ATOM     12  H   UNL     1     -14.068 -46.491  29.207  1.00  0.00     0.143 HD
BRANCH  11  13
ATOM     13  S   UNL     1     -13.047 -45.873  31.117  1.00  0.00     0.274 S 
ATOM     14  O   UNL     1     -11.751 -46.436  31.391  1.00  0.00    -0.195 OA
ATOM     15  O   UNL     1     -13.487 -44.623  31.674  1.00  0.00    -0.195 OA
BRANCH  13  16
ATOM     16  N   UNL     1     -14.158 -47.033  31.552  1.00  0.00    -0.216 NA
ATOM     17  H   UNL     1     -14.525 -46.811  32.477  1.00  0.00     0.138 HD
ATOM     18  H   UNL     1     -13.689 -47.939  31.555  1.00  0.00     0.138 HD
ENDBRANCH  13  16
ENDBRANCH  11  13
ENDBRANCH   1  11
TORSDOF 5
ENDMDL
MODEL 3
REMARK VINA RESULT:    -7.538      4.527      5.880
REMARK INTER + INTRA:          -9.818
REMARK INTER:                  -9.610
REMARK INTRA:                  -0.208
REMARK UNBOUND:                -0.297
REMARK SMILES COc1ccccc1[C@H](C)NS(N)(=O)=O
REMARK SMILES IDX 9 1 10 2 8 3 3 4 4 5 5 6 7 7 6 8 2 9 1 10 11 11 12 13 14 14
REMARK SMILES IDX 15 15 13 16
REMARK H PARENT 11 12 13 17 13 18
ROOT
ATOM      1  C   UNL     1     -13.590 -44.549  27.689  1.00  0.00     0.101 C 
ATOM      2  C   UNL     1     -12.945 -45.868  27.254  1.00  0.00     0.031 C 
ENDROOT
BRANCH   1   3
ATOM      3  C   UNL     1     -14.494 -44.005  26.586  1.00  0.00     0.012 A 
ATOM      4  C   UNL     1     -15.610 -43.181  26.851  1.00  0.00     0.123 A 
ATOM      5  C   UNL     1     -16.402 -42.730  25.789  1.00  0.00     0.047 A 
ATOM      6  C   UNL     1     -16.098 -43.084  24.473  1.00  0.00     0.004 A 
ATOM      7  C   UNL     1     -14.201 -44.348  25.252  1.00  0.00     0.009 A 
ATOM      8  C   UNL     1     -14.999 -43.891  24.204  1.00  0.00     0.001 A 
BRANCH   4   9
ATOM      9  O   UNL     1     -15.838 -42.871  28.169  1.00  0.00    -0.496 OA
ATOM     10  C   UNL     1     -17.125 -42.373  28.514  1.00  0.00     0.278 C 
ENDBRANCH   4   9
ENDBRANCH   1   3
BRANCH   1  11
ATOM     11  N   UNL     1     -14.351 -44.710  28.944  1.00  0.00    -0.195 NA
ATOM     12  H   UNL     1     -15.095 -45.403  28.844  1.00  0.00     0.143 HD
BRANCH  11  13
ATOM     13  S   UNL     1     -13.548 -44.828  30.378  1.00  0.00     0.274 S 
ATOM     14  O   UNL     1     -13.630 -46.196  30.818  1.00  0.00    -0.195 OA
ATOM     15  O   UNL     1     -12.313 -44.095  30.337  1.00  0.00    -0.195 OA
BRANCH  13  16
ATOM     16  N   UNL     1     -14.609 -43.970  31.330  1.00  0.00    -0.216 NA
ATOM     17  H   UNL     1     -14.864 -43.109  30.849  1.00  0.00     0.138 HD
ATOM     18  H   UNL     1     -14.149 -43.767  32.218  1.00  0.00     0.138 HD
ENDBRANCH  13  16
ENDBRANCH  11  13
ENDBRANCH   1  11
TORSDOF 5
ENDMDL
MODEL 4
REMARK VINA RESULT:    -7.521      3.803      5.057
REMARK INTER + INTRA:          -9.797
REMARK INTER:                  -9.059
REMARK INTRA:                  -0.738
REMARK UNBOUND:                -0.297
REMARK SMILES COc1ccccc1[C@H](C)NS(N)(=O)=O
REMARK SMILES IDX 9 1 10 2 8 3 3 4 4 5 5 6 7 7 6 8 2 9 1 10 11 11 12 13 14 14
REMARK SMILES IDX 15 15 13 16
REMARK H PARENT 11 12 13 17 13 18
ROOT
ATOM      1  C   UNL     1     -12.771 -45.846  27.914  1.00  0.00     0.101 C 
ATOM      2  C   UNL     1     -12.480 -46.910  26.852  1.00  0.00     0.031 C 
ENDROOT
BRANCH   1   3
ATOM      3  C   UNL     1     -11.802 -45.981  29.086  1.00  0.00     0.012 A 
ATOM      4  C   UNL     1     -12.149 -45.629  30.409  1.00  0.00     0.123 A 
ATOM      5  C   UNL     1     -11.204 -45.767  31.431  1.00  0.00     0.047 A 
ATOM      6  C   UNL     1      -9.923 -46.252  31.156  1.00  0.00     0.004 A 
ATOM      7  C   UNL     1     -10.507 -46.471  28.829  1.00  0.00     0.009 A 
ATOM      8  C   UNL     1      -9.575 -46.605  29.857  1.00  0.00     0.001 A 
BRANCH   4   9
ATOM      9  O   UNL     1     -13.429 -45.168  30.599  1.00  0.00    -0.496 OA
ATOM     10  C   UNL     1     -13.703 -44.470  31.807  1.00  0.00     0.278 C 
ENDBRANCH   4   9
ENDBRANCH   1   3
BRANCH   1  11
ATOM     11  N   UNL     1     -12.704 -44.485  27.346  1.00  0.00    -0.195 NA
ATOM     12  H   UNL     1     -11.933 -44.394  26.682  1.00  0.00     0.143 HD
BRANCH  11  13
ATOM     13  S   UNL     1     -14.084 -43.742  26.838  1.00  0.00     0.274 S 
ATOM     14  O   UNL     1     -13.816 -42.332  26.739  1.00  0.00    -0.195 OA
ATOM     15  O   UNL     1     -14.713 -44.492  25.785  1.00  0.00    -0.195 OA
BRANCH  13  16
ATOM     16  N   UNL     1     -14.998 -43.945  28.213  1.00  0.00    -0.216 NA
ATOM     17  H   UNL     1     -14.389 -43.886  29.028  1.00  0.00     0.138 HD
ATOM     18  H   UNL     1     -15.451 -44.858  28.165  1.00  0.00     0.138 HD
ENDBRANCH  13  16
ENDBRANCH  11  13
ENDBRANCH   1  11
TORSDOF 5
ENDMDL
MODEL 5
REMARK VINA RESULT:    -7.483      2.396      3.534
REMARK INTER + INTRA:          -9.749
REMARK INTER:                  -9.140
REMARK INTRA:                  -0.608
REMARK UNBOUND:                -0.297
REMARK SMILES COc1ccccc1[C@H](C)NS(N)(=O)=O
REMARK SMILES IDX 9 1 10 2 8 3 3 4 4 5 5 6 7 7 6 8 2 9 1 10 11 11 12 13 14 14
REMARK SMILES IDX 15 15 13 16
REMARK H PARENT 11 12 13 17 13 18
ROOT
ATOM      1  C   UNL     1     -12.676 -45.368  31.627  1.00  0.00     0.101 C 
ATOM      2  C   UNL     1     -13.815 -46.280  32.090  1.00  0.00     0.031 C 
ENDROOT
BRANCH   1   3
ATOM      3  C   UNL     1     -12.165 -45.805  30.256  1.00  0.00     0.012 A 
ATOM      4  C   UNL     1     -10.818 -46.159  30.022  1.00  0.00     0.123 A 
ATOM      5  C   UNL     1     -10.417 -46.537  28.736  1.00  0.00     0.047 A 
ATOM      6  C   UNL     1     -11.336 -46.571  27.685  1.00  0.00     0.004 A 
ATOM      7  C   UNL     1     -13.077 -45.849  29.185  1.00  0.00     0.009 A 
ATOM      8  C   UNL     1     -12.665 -46.229  27.908  1.00  0.00     0.001 A 
BRANCH   4   9
ATOM      9  O   UNL     1      -9.978 -46.108  31.108  1.00  0.00    -0.496 OA
ATOM     10  C   UNL     1      -8.622 -46.488  30.908  1.00  0.00     0.278 C 
ENDBRANCH   4   9
ENDBRANCH   1   3
BRANCH   1  11
ATOM     11  N   UNL     1     -13.101 -43.954  31.589  1.00  0.00    -0.195 NA
ATOM     12  H   UNL     1     -14.067 -43.844  31.903  1.00  0.00     0.143 HD
BRANCH  11  13
ATOM     13  S   UNL     1     -12.097 -42.784  32.170  1.00  0.00     0.274 S 
ATOM     14  O   UNL     1     -11.619 -42.016  31.050  1.00  0.00    -0.195 OA
ATOM     15  O   UNL     1     -12.644 -42.179  33.353  1.00  0.00    -0.195 OA
BRANCH  13  16
ATOM     16  N   UNL     1     -10.829 -43.753  32.642  1.00  0.00    -0.216 NA
ATOM     17  H   UNL     1      -9.999 -43.175  32.765  1.00  0.00     0.138 HD
ATOM     18  H   UNL     1     -10.678 -44.456  31.918  1.00  0.00     0.138 HD
ENDBRANCH  13  16
ENDBRANCH  11  13
ENDBRANCH   1  11
TORSDOF 5
ENDMDL
MODEL 6
REMARK VINA RESULT:    -7.436      2.851      3.782
REMARK INTER + INTRA:          -9.689
REMARK INTER:                  -9.277
REMARK INTRA:                  -0.412
REMARK UNBOUND:                -0.297
REMARK SMILES COc1ccccc1[C@H](C)NS(N)(=O)=O
REMARK SMILES IDX 9 1 10 2 8 3 3 4 4 5 5 6 7 7 6 8 2 9 1 10 11 11 12 13 14 14
REMARK SMILES IDX 15 15 13 16
REMARK H PARENT 11 12 13 17 13 18
ROOT
ATOM      1  C   UNL     1     -11.024 -42.937  28.888  1.00  0.00     0.101 C 
ATOM      2  C   UNL     1     -10.032 -42.283  27.923  1.00  0.00     0.031 C 
ENDROOT
BRANCH   1   3
ATOM      3  C   UNL     1     -11.621 -44.198  28.269  1.00  0.00     0.012 A 
ATOM      4  C   UNL     1     -12.818 -44.187  27.520  1.00  0.00     0.123 A 
ATOM      5  C   UNL     1     -13.313 -45.385  26.993  1.00  0.00     0.047 A 
ATOM      6  C   UNL     1     -12.634 -46.588  27.198  1.00  0.00     0.004 A 
ATOM      7  C   UNL     1     -10.949 -45.420  28.462  1.00  0.00     0.009 A 
ATOM      8  C   UNL     1     -11.453 -46.606  27.930  1.00  0.00     0.001 A 
BRANCH   4   9
ATOM      9  O   UNL     1     -13.422 -42.964  27.357  1.00  0.00    -0.496 OA
ATOM     10  C   UNL     1     -14.360 -42.832  26.295  1.00  0.00     0.278 C 
ENDBRANCH   4   9
ENDBRANCH   1   3
BRANCH   1  11
ATOM     11  N   UNL     1     -10.388 -43.252  30.183  1.00  0.00    -0.195 NA
ATOM     12  H   UNL     1      -9.490 -42.775  30.285  1.00  0.00     0.143 HD
BRANCH  11  13
ATOM     13  S   UNL     1     -11.288 -43.234  31.562  1.00  0.00     0.274 S 
ATOM     14  O   UNL     1     -11.992 -41.980  31.614  1.00  0.00    -0.195 OA
ATOM     15  O   UNL     1     -11.935 -44.500  31.770  1.00  0.00    -0.195 OA
BRANCH  13  16
ATOM     16  N   UNL     1     -10.050 -43.116  32.668  1.00  0.00    -0.216 NA
ATOM     17  H   UNL     1      -9.198 -42.835  32.183  1.00  0.00     0.138 HD
ATOM     18  H   UNL     1      -9.930 -44.027  33.112  1.00  0.00     0.138 HD
ENDBRANCH  13  16
ENDBRANCH  11  13
ENDBRANCH   1  11
TORSDOF 5
ENDMDL
MODEL 7
REMARK VINA RESULT:    -7.430      3.325      5.043
REMARK INTER + INTRA:          -9.682
REMARK INTER:                  -9.220
REMARK INTRA:                  -0.462
REMARK UNBOUND:                -0.297
REMARK SMILES COc1ccccc1[C@H](C)NS(N)(=O)=O
REMARK SMILES IDX 9 1 10 2 8 3 3 4 4 5 5 6 7 7 6 8 2 9 1 10 11 11 12 13 14 14
REMARK SMILES IDX 15 15 13 16
REMARK H PARENT 11 12 13 17 13 18
ROOT
ATOM      1  C   UNL     1     -12.441 -45.118  31.805  1.00  0.00     0.101 C 
ATOM      2  C   UNL     1     -13.060 -45.967  30.691  1.00  0.00     0.031 C 
ENDROOT
BRANCH   1   3
ATOM      3  C   UNL     1     -10.917 -45.180  31.741  1.00  0.00     0.012 A 
ATOM      4  C   UNL     1     -10.087 -44.190  32.313  1.00  0.00     0.123 A 
ATOM      5  C   UNL     1      -8.697 -44.307  32.203  1.00  0.00     0.047 A 
ATOM      6  C   UNL     1      -8.124 -45.392  31.538  1.00  0.00     0.004 A 
ATOM      7  C   UNL     1     -10.320 -46.269  31.077  1.00  0.00     0.009 A 
ATOM      8  C   UNL     1      -8.933 -46.373  30.976  1.00  0.00     0.001 A 
BRANCH   4   9
ATOM      9  O   UNL     1     -10.727 -43.159  32.956  1.00  0.00    -0.496 OA
ATOM     10  C   UNL     1     -10.017 -42.489  33.991  1.00  0.00     0.278 C 
ENDBRANCH   4   9
ENDBRANCH   1   3
BRANCH   1  11
ATOM     11  N   UNL     1     -12.900 -43.716  31.732  1.00  0.00    -0.195 NA
ATOM     12  H   UNL     1     -12.929 -43.381  30.767  1.00  0.00     0.143 HD
BRANCH  11  13
ATOM     13  S   UNL     1     -14.202 -43.236  32.621  1.00  0.00     0.274 S 
ATOM     14  O   UNL     1     -15.118 -42.566  31.736  1.00  0.00    -0.195 OA
ATOM     15  O   UNL     1     -14.612 -44.270  33.531  1.00  0.00    -0.195 OA
BRANCH  13  16
ATOM     16  N   UNL     1     -13.466 -42.042  33.517  1.00  0.00    -0.216 NA
ATOM     17  H   UNL     1     -13.058 -41.357  32.883  1.00  0.00     0.138 HD
ATOM     18  H   UNL     1     -12.747 -42.475  34.096  1.00  0.00     0.138 HD
ENDBRANCH  13  16
ENDBRANCH  11  13
ENDBRANCH   1  11
TORSDOF 5
ENDMDL
MODEL 8
REMARK VINA RESULT:    -7.429      3.462      4.427
REMARK INTER + INTRA:          -9.680
REMARK INTER:                  -8.834
REMARK INTRA:                  -0.847
REMARK UNBOUND:                -0.297
REMARK SMILES COc1ccccc1[C@H](C)NS(N)(=O)=O
REMARK SMILES IDX 9 1 10 2 8 3 3 4 4 5 5 6 7 7 6 8 2 9 1 10 11 11 12 13 14 14
REMARK SMILES IDX 15 15 13 16
REMARK H PARENT 11 12 13 17 13 18
ROOT
ATOM      1  C   UNL     1     -11.623 -43.914  31.230  1.00  0.00     0.101 C 
ATOM      2  C   UNL     1     -10.397 -43.695  32.122  1.00  0.00     0.031 C 
ENDROOT
BRANCH   1   3
ATOM      3  C   UNL     1     -11.293 -44.882  30.096  1.00  0.00     0.012 A 
ATOM      4  C   UNL     1     -12.135 -45.062  28.977  1.00  0.00     0.123 A 
ATOM      5  C   UNL     1     -11.774 -45.976  27.981  1.00  0.00     0.047 A 
ATOM      6  C   UNL     1     -10.590 -46.710  28.083  1.00  0.00     0.004 A 
ATOM      7  C   UNL     1     -10.101 -45.627  30.179  1.00  0.00     0.009 A 
ATOM      8  C   UNL     1      -9.754 -46.535  29.180  1.00  0.00     0.001 A 
BRANCH   4   9
ATOM      9  O   UNL     1     -13.277 -44.299  28.946  1.00  0.00    -0.496 OA
ATOM     10  C   UNL     1     -14.133 -44.442  27.819  1.00  0.00     0.278 C 
ENDBRANCH   4   9
ENDBRANCH   1   3
BRANCH   1  11
ATOM     11  N   UNL     1     -12.774 -44.411  32.010  1.00  0.00    -0.195 NA
ATOM     12  H   UNL     1     -12.476 -45.041  32.758  1.00  0.00     0.143 HD
BRANCH  11  13
ATOM     13  S   UNL     1     -13.955 -43.364  32.481  1.00  0.00     0.274 S 
ATOM     14  O   UNL     1     -14.651 -43.954  33.595  1.00  0.00    -0.195 OA
ATOM     15  O   UNL     1     -13.468 -42.012  32.495  1.00  0.00    -0.195 OA
BRANCH  13  16
ATOM     16  N   UNL     1     -14.965 -43.520  31.168  1.00  0.00    -0.216 NA
ATOM     17  H   UNL     1     -14.484 -44.048  30.441  1.00  0.00     0.138 HD
ATOM     18  H   UNL     1     -15.207 -42.586  30.838  1.00  0.00     0.138 HD
ENDBRANCH  13  16
ENDBRANCH  11  13
ENDBRANCH   1  11
TORSDOF 5
ENDMDL
MODEL 9
REMARK VINA RESULT:    -7.301      6.088      7.284
REMARK INTER + INTRA:          -9.519
REMARK INTER:                  -8.672
REMARK INTRA:                  -0.847
REMARK UNBOUND:                -0.297
REMARK SMILES COc1ccccc1[C@H](C)NS(N)(=O)=O
REMARK SMILES IDX 9 1 10 2 8 3 3 4 4 5 5 6 7 7 6 8 2 9 1 10 11 11 12 13 14 14
REMARK SMILES IDX 15 15 13 16
REMARK H PARENT 11 12 13 17 13 18
ROOT
ATOM      1  C   UNL     1     -14.810 -43.029  25.973  1.00  0.00     0.101 C 
ATOM      2  C   UNL     1     -14.211 -42.961  24.565  1.00  0.00     0.031 C 
ENDROOT
BRANCH   1   3
ATOM      3  C   UNL     1     -16.311 -42.755  25.929  1.00  0.00     0.012 A 
ATOM      4  C   UNL     1     -17.077 -42.513  27.091  1.00  0.00     0.123 A 
ATOM      5  C   UNL     1     -18.453 -42.282  26.975  1.00  0.00     0.047 A 
ATOM      6  C   UNL     1     -19.072 -42.285  25.723  1.00  0.00     0.004 A 
ATOM      7  C   UNL     1     -16.953 -42.750  24.676  1.00  0.00     0.009 A 
ATOM      8  C   UNL     1     -18.324 -42.518  24.575  1.00  0.00     0.001 A 
BRANCH   4   9
ATOM      9  O   UNL     1     -16.394 -42.519  28.282  1.00  0.00    -0.496 OA
ATOM     10  C   UNL     1     -17.143 -42.755  29.468  1.00  0.00     0.278 C 
ENDBRANCH   4   9
ENDBRANCH   1   3
BRANCH   1  11
ATOM     11  N   UNL     1     -14.545 -44.335  26.609  1.00  0.00    -0.195 NA
ATOM     12  H   UNL     1     -14.622 -45.101  25.937  1.00  0.00     0.143 HD
BRANCH  11  13
ATOM     13  S   UNL     1     -13.265 -44.501  27.632  1.00  0.00     0.274 S 
ATOM     14  O   UNL     1     -12.690 -45.803  27.413  1.00  0.00    -0.195 OA
ATOM     15  O   UNL     1     -12.478 -43.299  27.670  1.00  0.00    -0.195 OA
BRANCH  13  16
ATOM     16  N   UNL     1     -14.102 -44.599  29.066  1.00  0.00    -0.216 NA
ATOM     17  H   UNL     1     -14.961 -44.057  28.986  1.00  0.00     0.138 HD
ATOM     18  H   UNL     1     -13.508 -44.230  29.809  1.00  0.00     0.138 HD
ENDBRANCH  13  16
ENDBRANCH  11  13
ENDBRANCH   1  11
TORSDOF 5
ENDMDL
