MODEL 1
REMARK VINA RESULT:   -12.138      0.000      0.000
REMARK INTER + INTRA:         -16.234
REMARK INTER:                 -15.687
REMARK INTRA:                  -0.547
REMARK UNBOUND:                -0.547
REMARK SMILES O=C1Cc2c(ccc3c(CC[C@H]4CC[N@@H+](Cc5ccccc5)CC4)noc23)N1
REMARK SMILES IDX 11 1 12 2 14 3 15 4 13 5 23 6 24 7 16 9 17 10 18 11 22 12
REMARK SMILES IDX 19 13 21 14 20 15 10 16 9 17 8 18 25 19 7 20 27 21 26 22
REMARK SMILES IDX 6 23 4 24 5 25 3 26 28 27 2 28 1 30
REMARK H PARENT 15 8 28 29
ROOT
ATOM      1  C   UNL     1     -14.151 -44.325  27.604  1.00  0.00     0.010 C 
ENDROOT
BRANCH   1   2
ATOM      2  C   UNL     1     -12.737 -44.897  27.364  1.00  0.00     0.000 C 
ATOM      3  C   UNL     1     -11.541 -43.860  29.368  1.00  0.00     0.262 C 
ATOM      4  N   UNL     1     -11.396 -45.232  29.974  1.00  0.00    -0.331 N 
ATOM      5  C   UNL     1     -11.608 -43.974  27.849  1.00  0.00     0.065 C 
ATOM      6  C   UNL     1     -12.509 -46.171  29.571  1.00  0.00     0.262 C 
ATOM      7  C   UNL     1     -12.581 -46.265  28.050  1.00  0.00     0.065 C 
ATOM      8  H   UNL     1     -10.521 -45.638  29.621  1.00  0.00     0.348 HD
BRANCH   4   9
ATOM      9  C   UNL     1     -11.231 -45.143  31.480  1.00  0.00     0.299 C 
BRANCH   9  10
ATOM     10  C   UNL     1      -9.852 -44.713  31.898  1.00  0.00     0.006 A 
ATOM     11  C   UNL     1      -8.731 -45.485  31.554  1.00  0.00     0.009 A 
ATOM     12  C   UNL     1      -9.663 -43.525  32.623  1.00  0.00     0.009 A 
ATOM     13  C   UNL     1      -7.448 -45.070  31.920  1.00  0.00     0.001 A 
ATOM     14  C   UNL     1      -8.380 -43.115  32.985  1.00  0.00     0.001 A 
ATOM     15  C   UNL     1      -7.275 -43.885  32.633  1.00  0.00     0.000 A 
ENDBRANCH   9  10
ENDBRANCH   4   9
ENDBRANCH   1   2
BRANCH   1  16
ATOM     16  C   UNL     1     -14.671 -43.436  26.463  1.00  0.00     0.061 C 
BRANCH  16  17
ATOM     17  C   UNL     1     -16.040 -42.921  26.750  1.00  0.00     0.091 A 
ATOM     18  C   UNL     1     -17.075 -42.579  25.844  1.00  0.00     0.045 A 
ATOM     19  N   UNL     1     -16.410 -42.728  28.027  1.00  0.00    -0.084 NA
ATOM     20  C   UNL     1     -17.276 -42.566  24.443  1.00  0.00     0.016 A 
ATOM     21  C   UNL     1     -18.106 -42.164  26.678  1.00  0.00     0.172 A 
ATOM     22  O   UNL     1     -17.711 -42.252  27.973  1.00  0.00    -0.356 OA
ATOM     23  C   UNL     1     -18.511 -42.133  23.927  1.00  0.00     0.027 A 
ATOM     24  C   UNL     1     -19.327 -41.737  26.199  1.00  0.00     0.031 A 
ATOM     25  C   UNL     1     -19.491 -41.735  24.814  1.00  0.00     0.048 A 
ATOM     26  C   UNL     1     -20.579 -41.247  26.865  1.00  0.00     0.142 C 
ATOM     27  N   UNL     1     -20.765 -41.281  24.509  1.00  0.00    -0.325 N 
ATOM     28  C   UNL     1     -21.484 -40.967  25.659  1.00  0.00     0.229 C 
ATOM     29  H   UNL     1     -21.154 -41.174  23.584  1.00  0.00     0.169 HD
ATOM     30  O   UNL     1     -22.628 -40.549  25.690  1.00  0.00    -0.274 OA
ENDBRANCH  16  17
ENDBRANCH   1  16
TORSDOF 5
ENDMDL
MODEL 2
REMARK VINA RESULT:   -11.923      1.779      2.359
REMARK INTER + INTRA:         -15.955
REMARK INTER:                 -15.445
REMARK INTRA:                  -0.510
REMARK UNBOUND:                -0.547
REMARK SMILES O=C1Cc2c(ccc3c(CC[C@H]4CC[N@@H+](Cc5ccccc5)CC4)noc23)N1
REMARK SMILES IDX 11 1 12 2 14 3 15 4 13 5 23 6 24 7 16 9 17 10 18 11 22 12
REMARK SMILES IDX 19 13 21 14 20 15 10 16 9 17 8 18 25 19 7 20 27 21 26 22
REMARK SMILES IDX 6 23 4 24 5 25 3 26 28 27 2 28 1 30
REMARK H PARENT 15 8 28 29
ROOT
ATOM      1  C   UNL     1     -13.854 -44.499  27.476  1.00  0.00     0.010 C 
ENDROOT
BRANCH   1   2
ATOM      2  C   UNL     1     -12.669 -45.470  27.661  1.00  0.00     0.000 C 
ATOM      3  C   UNL     1     -11.309 -44.124  29.353  1.00  0.00     0.262 C 
ATOM      4  N   UNL     1     -11.611 -45.163  30.402  1.00  0.00    -0.331 N 
ATOM      5  C   UNL     1     -11.337 -44.767  27.971  1.00  0.00     0.065 C 
ATOM      6  C   UNL     1     -12.935 -45.855  30.176  1.00  0.00     0.262 C 
ATOM      7  C   UNL     1     -12.962 -46.479  28.784  1.00  0.00     0.065 C 
ATOM      8  H   UNL     1     -10.884 -45.886  30.344  1.00  0.00     0.348 HD
BRANCH   4   9
ATOM      9  C   UNL     1     -11.496 -44.574  31.796  1.00  0.00     0.299 C 
BRANCH   9  10
ATOM     10  C   UNL     1     -10.081 -44.242  32.181  1.00  0.00     0.006 A 
ATOM     11  C   UNL     1      -9.813 -43.181  33.060  1.00  0.00     0.009 A 
ATOM     12  C   UNL     1      -9.009 -44.999  31.681  1.00  0.00     0.009 A 
ATOM     13  C   UNL     1      -8.500 -42.891  33.438  1.00  0.00     0.001 A 
ATOM     14  C   UNL     1      -7.699 -44.704  32.062  1.00  0.00     0.001 A 
ATOM     15  C   UNL     1      -7.446 -43.654  32.940  1.00  0.00     0.000 A 
ENDBRANCH   9  10
ENDBRANCH   4   9
ENDBRANCH   1   2
BRANCH   1  16
ATOM     16  C   UNL     1     -13.536 -43.281  26.595  1.00  0.00     0.061 C 
BRANCH  16  17
ATOM     17  C   UNL     1     -14.578 -43.076  25.548  1.00  0.00     0.091 A 
ATOM     18  C   UNL     1     -15.959 -42.798  25.703  1.00  0.00     0.045 A 
ATOM     19  N   UNL     1     -14.226 -43.154  24.254  1.00  0.00    -0.084 NA
ATOM     20  C   UNL     1     -16.875 -42.609  26.766  1.00  0.00     0.016 A 
ATOM     21  C   UNL     1     -16.416 -42.712  24.393  1.00  0.00     0.172 A 
ATOM     22  O   UNL     1     -15.388 -42.923  23.534  1.00  0.00    -0.356 OA
ATOM     23  C   UNL     1     -18.225 -42.341  26.474  1.00  0.00     0.027 A 
ATOM     24  C   UNL     1     -17.734 -42.448  24.079  1.00  0.00     0.031 A 
ATOM     25  C   UNL     1     -18.610 -42.269  25.149  1.00  0.00     0.048 A 
ATOM     26  C   UNL     1     -18.473 -42.307  22.782  1.00  0.00     0.142 C 
ATOM     27  N   UNL     1     -19.880 -42.015  24.657  1.00  0.00    -0.325 N 
ATOM     28  C   UNL     1     -19.899 -42.017  23.265  1.00  0.00     0.229 C 
ATOM     29  H   UNL     1     -20.711 -41.849  25.207  1.00  0.00     0.169 HD
ATOM     30  O   UNL     1     -20.878 -41.820  22.567  1.00  0.00    -0.274 OA
ENDBRANCH  16  17
ENDBRANCH   1  16
TORSDOF 5
ENDMDL
MODEL 3
REMARK VINA RESULT:   -11.895      1.261      1.722
REMARK INTER + INTRA:         -15.920
REMARK INTER:                 -15.296
REMARK INTRA:                  -0.624
REMARK UNBOUND:                -0.547
REMARK SMILES O=C1Cc2c(ccc3c(CC[C@H]4CC[N@@H+](Cc5ccccc5)CC4)noc23)N1
REMARK SMILES IDX 11 1 12 2 14 3 15 4 13 5 23 6 24 7 16 9 17 10 18 11 22 12
REMARK SMILES IDX 19 13 21 14 20 15 10 16 9 17 8 18 25 19 7 20 27 21 26 22
REMARK SMILES IDX 6 23 4 24 5 25 3 26 28 27 2 28 1 30
REMARK H PARENT 15 8 28 29
ROOT
ATOM      1  C   UNL     1     -14.162 -44.394  27.622  1.00  0.00     0.010 C 
ENDROOT
BRANCH   1   2
ATOM      2  C   UNL     1     -12.760 -45.000  27.404  1.00  0.00     0.000 C 
ATOM      3  C   UNL     1     -11.538 -43.890  29.353  1.00  0.00     0.262 C 
ATOM      4  N   UNL     1     -11.413 -45.235  30.022  1.00  0.00    -0.331 N 
ATOM      5  C   UNL     1     -11.613 -44.074  27.842  1.00  0.00     0.065 C 
ATOM      6  C   UNL     1     -12.543 -46.173  29.667  1.00  0.00     0.262 C 
ATOM      7  C   UNL     1     -12.623 -46.337  28.152  1.00  0.00     0.065 C 
ATOM      8  H   UNL     1     -10.547 -45.672  29.685  1.00  0.00     0.348 HD
BRANCH   4   9
ATOM      9  C   UNL     1     -11.240 -45.079  31.522  1.00  0.00     0.299 C 
BRANCH   9  10
ATOM     10  C   UNL     1      -9.856 -44.638  31.913  1.00  0.00     0.006 A 
ATOM     11  C   UNL     1      -9.667 -43.459  32.650  1.00  0.00     0.009 A 
ATOM     12  C   UNL     1      -8.736 -45.410  31.564  1.00  0.00     0.009 A 
ATOM     13  C   UNL     1      -8.384 -43.065  33.035  1.00  0.00     0.001 A 
ATOM     14  C   UNL     1      -7.457 -45.012  31.952  1.00  0.00     0.001 A 
ATOM     15  C   UNL     1      -7.281 -43.843  32.688  1.00  0.00     0.000 A 
ENDBRANCH   9  10
ENDBRANCH   4   9
ENDBRANCH   1   2
BRANCH   1  16
ATOM     16  C   UNL     1     -14.354 -43.008  26.986  1.00  0.00     0.061 C 
BRANCH  16  17
ATOM     17  C   UNL     1     -15.770 -42.782  26.579  1.00  0.00     0.091 A 
ATOM     18  C   UNL     1     -16.334 -42.761  25.278  1.00  0.00     0.045 A 
ATOM     19  N   UNL     1     -16.694 -42.558  27.528  1.00  0.00    -0.084 NA
ATOM     20  C   UNL     1     -15.890 -42.922  23.944  1.00  0.00     0.016 A 
ATOM     21  C   UNL     1     -17.679 -42.508  25.518  1.00  0.00     0.172 A 
ATOM     22  O   UNL     1     -17.892 -42.387  26.851  1.00  0.00    -0.356 OA
ATOM     23  C   UNL     1     -16.818 -42.821  22.891  1.00  0.00     0.027 A 
ATOM     24  C   UNL     1     -18.610 -42.405  24.504  1.00  0.00     0.031 A 
ATOM     25  C   UNL     1     -18.140 -42.567  23.202  1.00  0.00     0.048 A 
ATOM     26  C   UNL     1     -20.087 -42.143  24.488  1.00  0.00     0.142 C 
ATOM     27  N   UNL     1     -19.199 -42.434  22.318  1.00  0.00    -0.325 N 
ATOM     28  C   UNL     1     -20.394 -42.182  22.986  1.00  0.00     0.229 C 
ATOM     29  H   UNL     1     -19.149 -42.502  21.312  1.00  0.00     0.169 HD
ATOM     30  O   UNL     1     -21.482 -42.024  22.462  1.00  0.00    -0.274 OA
ENDBRANCH  16  17
ENDBRANCH   1  16
TORSDOF 5
ENDMDL
MODEL 4
REMARK VINA RESULT:   -11.387      3.873      8.432
REMARK INTER + INTRA:         -15.263
REMARK INTER:                 -14.674
REMARK INTRA:                  -0.589
REMARK UNBOUND:                -0.547
REMARK SMILES O=C1Cc2c(ccc3c(CC[C@H]4CC[N@@H+](Cc5ccccc5)CC4)noc23)N1
REMARK SMILES IDX 11 1 12 2 14 3 15 4 13 5 23 6 24 7 16 9 17 10 18 11 22 12
REMARK SMILES IDX 19 13 21 14 20 15 10 16 9 17 8 18 25 19 7 20 27 21 26 22
REMARK SMILES IDX 6 23 4 24 5 25 3 26 28 27 2 28 1 30
REMARK H PARENT 15 8 28 29
ROOT
ATOM      1  C   UNL     1     -10.625 -46.319  30.015  1.00  0.00     0.010 C 
ENDROOT
BRANCH   1   2
ATOM      2  C   UNL     1     -10.482 -45.998  28.512  1.00  0.00     0.000 C 
ATOM      3  C   UNL     1     -12.935 -46.190  27.828  1.00  0.00     0.262 C 
ATOM      4  N   UNL     1     -12.968 -44.704  27.580  1.00  0.00    -0.331 N 
ATOM      5  C   UNL     1     -11.517 -46.712  27.628  1.00  0.00     0.065 C 
ATOM      6  C   UNL     1     -12.004 -43.942  28.459  1.00  0.00     0.262 C 
ATOM      7  C   UNL     1     -10.590 -44.483  28.267  1.00  0.00     0.065 C 
ATOM      8  H   UNL     1     -12.676 -44.542  26.609  1.00  0.00     0.348 HD
BRANCH   4   9
ATOM      9  C   UNL     1     -14.385 -44.170  27.679  1.00  0.00     0.299 C 
BRANCH   9  10
ATOM     10  C   UNL     1     -14.955 -43.761  26.348  1.00  0.00     0.006 A 
ATOM     11  C   UNL     1     -14.439 -44.296  25.158  1.00  0.00     0.009 A 
ATOM     12  C   UNL     1     -16.025 -42.854  26.278  1.00  0.00     0.009 A 
ATOM     13  C   UNL     1     -14.987 -43.936  23.925  1.00  0.00     0.001 A 
ATOM     14  C   UNL     1     -16.569 -42.498  25.044  1.00  0.00     0.001 A 
ATOM     15  C   UNL     1     -16.052 -43.039  23.870  1.00  0.00     0.000 A 
ENDBRANCH   9  10
ENDBRANCH   4   9
ENDBRANCH   1   2
BRANCH   1  16
ATOM     16  C   UNL     1      -9.589 -45.619  30.908  1.00  0.00     0.061 C 
BRANCH  16  17
ATOM     17  C   UNL     1     -10.226 -44.601  31.792  1.00  0.00     0.091 A 
ATOM     18  C   UNL     1     -11.602 -44.330  31.998  1.00  0.00     0.045 A 
ATOM     19  N   UNL     1      -9.443 -43.790  32.522  1.00  0.00    -0.084 NA
ATOM     20  C   UNL     1     -12.845 -44.824  31.534  1.00  0.00     0.016 A 
ATOM     21  C   UNL     1     -11.589 -43.288  32.916  1.00  0.00     0.172 A 
ATOM     22  O   UNL     1     -10.308 -42.967  33.227  1.00  0.00    -0.356 OA
ATOM     23  C   UNL     1     -14.037 -44.249  32.011  1.00  0.00     0.027 A 
ATOM     24  C   UNL     1     -12.743 -42.707  33.402  1.00  0.00     0.031 A 
ATOM     25  C   UNL     1     -13.949 -43.216  32.924  1.00  0.00     0.048 A 
ATOM     26  C   UNL     1     -13.003 -41.595  34.374  1.00  0.00     0.142 C 
ATOM     27  N   UNL     1     -14.997 -42.524  33.511  1.00  0.00    -0.325 N 
ATOM     28  C   UNL     1     -14.536 -41.544  34.385  1.00  0.00     0.229 C 
ATOM     29  H   UNL     1     -15.981 -42.680  33.347  1.00  0.00     0.169 HD
ATOM     30  O   UNL     1     -15.234 -40.789  35.039  1.00  0.00    -0.274 OA
ENDBRANCH  16  17
ENDBRANCH   1  16
TORSDOF 5
ENDMDL
MODEL 5
REMARK VINA RESULT:   -11.206      3.388     10.610
REMARK INTER + INTRA:         -15.029
REMARK INTER:                 -14.243
REMARK INTRA:                  -0.786
REMARK UNBOUND:                -0.547
REMARK SMILES O=C1Cc2c(ccc3c(CC[C@H]4CC[N@@H+](Cc5ccccc5)CC4)noc23)N1
REMARK SMILES IDX 11 1 12 2 14 3 15 4 13 5 23 6 24 7 16 9 17 10 18 11 22 12
REMARK SMILES IDX 19 13 21 14 20 15 10 16 9 17 8 18 25 19 7 20 27 21 26 22
REMARK SMILES IDX 6 23 4 24 5 25 3 26 28 27 2 28 1 30
REMARK H PARENT 15 8 28 29
ROOT
ATOM      1  C   UNL     1     -14.396 -44.426  27.332  1.00  0.00     0.010 C 
ENDROOT
BRANCH   1   2
ATOM      2  C   UNL     1     -14.187 -43.054  26.656  1.00  0.00     0.000 C 
ATOM      3  C   UNL     1     -14.929 -43.657  24.289  1.00  0.00     0.262 C 
ATOM      4  N   UNL     1     -16.139 -42.774  24.457  1.00  0.00    -0.331 N 
ATOM      5  C   UNL     1     -13.796 -43.149  25.172  1.00  0.00     0.065 C 
ATOM      6  C   UNL     1     -16.601 -42.681  25.893  1.00  0.00     0.262 C 
ATOM      7  C   UNL     1     -15.455 -42.191  26.774  1.00  0.00     0.065 C 
ATOM      8  H   UNL     1     -15.876 -41.824  24.167  1.00  0.00     0.348 HD
BRANCH   4   9
ATOM      9  C   UNL     1     -17.253 -43.197  23.517  1.00  0.00     0.299 C 
BRANCH   9  10
ATOM     10  C   UNL     1     -18.179 -42.068  23.154  1.00  0.00     0.006 A 
ATOM     11  C   UNL     1     -17.828 -41.155  22.148  1.00  0.00     0.009 A 
ATOM     12  C   UNL     1     -19.415 -41.922  23.804  1.00  0.00     0.009 A 
ATOM     13  C   UNL     1     -18.701 -40.124  21.794  1.00  0.00     0.001 A 
ATOM     14  C   UNL     1     -20.283 -40.891  23.446  1.00  0.00     0.001 A 
ATOM     15  C   UNL     1     -19.928 -39.995  22.442  1.00  0.00     0.000 A 
ENDBRANCH   9  10
ENDBRANCH   4   9
ENDBRANCH   1   2
BRANCH   1  16
ATOM     16  C   UNL     1     -13.240 -45.414  27.118  1.00  0.00     0.061 C 
BRANCH  16  17
ATOM     17  C   UNL     1     -12.341 -45.472  28.306  1.00  0.00     0.091 A 
ATOM     18  C   UNL     1     -11.218 -44.664  28.618  1.00  0.00     0.045 A 
ATOM     19  N   UNL     1     -12.569 -46.398  29.251  1.00  0.00    -0.084 NA
ATOM     20  C   UNL     1     -10.519 -43.578  28.040  1.00  0.00     0.016 A 
ATOM     21  C   UNL     1     -10.785 -45.177  29.834  1.00  0.00     0.172 A 
ATOM     22  O   UNL     1     -11.585 -46.205  30.210  1.00  0.00    -0.356 OA
ATOM     23  C   UNL     1      -9.401 -43.044  28.707  1.00  0.00     0.027 A 
ATOM     24  C   UNL     1      -9.693 -44.671  30.511  1.00  0.00     0.031 A 
ATOM     25  C   UNL     1      -9.026 -43.602  29.913  1.00  0.00     0.048 A 
ATOM     26  C   UNL     1      -9.029 -45.031  31.806  1.00  0.00     0.142 C 
ATOM     27  N   UNL     1      -7.965 -43.222  30.720  1.00  0.00    -0.325 N 
ATOM     28  C   UNL     1      -7.886 -44.011  31.864  1.00  0.00     0.229 C 
ATOM     29  H   UNL     1      -7.310 -42.477  30.532  1.00  0.00     0.169 HD
ATOM     30  O   UNL     1      -7.055 -43.898  32.749  1.00  0.00    -0.274 OA
ENDBRANCH  16  17
ENDBRANCH   1  16
TORSDOF 5
ENDMDL
MODEL 6
REMARK VINA RESULT:   -10.173      3.069     10.488
REMARK INTER + INTRA:         -13.694
REMARK INTER:                 -14.064
REMARK INTRA:                   0.370
REMARK UNBOUND:                -0.547
REMARK SMILES O=C1Cc2c(ccc3c(CC[C@H]4CC[N@@H+](Cc5ccccc5)CC4)noc23)N1
REMARK SMILES IDX 11 1 12 2 14 3 15 4 13 5 23 6 24 7 16 9 17 10 18 11 22 12
REMARK SMILES IDX 19 13 21 14 20 15 10 16 9 17 8 18 25 19 7 20 27 21 26 22
REMARK SMILES IDX 6 23 4 24 5 25 3 26 28 27 2 28 1 30
REMARK H PARENT 15 8 28 29
ROOT
ATOM      1  C   UNL     1     -14.316 -44.534  26.978  1.00  0.00     0.010 C 
ENDROOT
BRANCH   1   2
ATOM      2  C   UNL     1     -14.303 -43.098  26.412  1.00  0.00     0.000 C 
ATOM      3  C   UNL     1     -15.610 -43.507  24.257  1.00  0.00     0.262 C 
ATOM      4  N   UNL     1     -16.751 -42.691  24.809  1.00  0.00    -0.331 N 
ATOM      5  C   UNL     1     -14.298 -43.041  24.876  1.00  0.00     0.065 C 
ATOM      6  C   UNL     1     -16.836 -42.749  26.317  1.00  0.00     0.262 C 
ATOM      7  C   UNL     1     -15.512 -42.299  26.928  1.00  0.00     0.065 C 
ATOM      8  H   UNL     1     -16.582 -41.709  24.559  1.00  0.00     0.348 HD
BRANCH   4   9
ATOM      9  C   UNL     1     -18.060 -43.067  24.141  1.00  0.00     0.299 C 
BRANCH   9  10
ATOM     10  C   UNL     1     -19.260 -42.811  25.010  1.00  0.00     0.006 A 
ATOM     11  C   UNL     1     -20.130 -43.860  25.350  1.00  0.00     0.009 A 
ATOM     12  C   UNL     1     -19.519 -41.525  25.510  1.00  0.00     0.009 A 
ATOM     13  C   UNL     1     -21.229 -43.625  26.179  1.00  0.00     0.001 A 
ATOM     14  C   UNL     1     -20.618 -41.297  26.338  1.00  0.00     0.001 A 
ATOM     15  C   UNL     1     -21.470 -42.345  26.673  1.00  0.00     0.000 A 
ENDBRANCH   9  10
ENDBRANCH   4   9
ENDBRANCH   1   2
BRANCH   1  16
ATOM     16  C   UNL     1     -12.937 -45.212  27.003  1.00  0.00     0.061 C 
BRANCH  16  17
ATOM     17  C   UNL     1     -12.041 -44.595  28.022  1.00  0.00     0.091 A 
ATOM     18  C   UNL     1     -11.028 -45.201  28.808  1.00  0.00     0.045 A 
ATOM     19  N   UNL     1     -12.158 -43.282  28.284  1.00  0.00    -0.084 NA
ATOM     20  C   UNL     1     -10.467 -46.490  28.975  1.00  0.00     0.016 A 
ATOM     21  C   UNL     1     -10.539 -44.146  29.568  1.00  0.00     0.172 A 
ATOM     22  O   UNL     1     -11.208 -43.008  29.257  1.00  0.00    -0.356 OA
ATOM     23  C   UNL     1      -9.428 -46.673  29.906  1.00  0.00     0.027 A 
ATOM     24  C   UNL     1      -9.520 -44.298  30.486  1.00  0.00     0.031 A 
ATOM     25  C   UNL     1      -8.990 -45.580  30.627  1.00  0.00     0.048 A 
ATOM     26  C   UNL     1      -8.822 -43.349  31.414  1.00  0.00     0.142 C 
ATOM     27  N   UNL     1      -7.986 -45.553  31.582  1.00  0.00    -0.325 N 
ATOM     28  C   UNL     1      -7.813 -44.274  32.105  1.00  0.00     0.229 C 
ATOM     29  H   UNL     1      -7.431 -46.339  31.888  1.00  0.00     0.169 HD
ATOM     30  O   UNL     1      -7.001 -43.958  32.956  1.00  0.00    -0.274 OA
ENDBRANCH  16  17
ENDBRANCH   1  16
TORSDOF 5
ENDMDL
MODEL 7
REMARK VINA RESULT:   -10.004      2.913      4.507
REMARK INTER + INTRA:         -13.476
REMARK INTER:                 -12.838
REMARK INTRA:                  -0.638
REMARK UNBOUND:                -0.547
REMARK SMILES O=C1Cc2c(ccc3c(CC[C@H]4CC[N@@H+](Cc5ccccc5)CC4)noc23)N1
REMARK SMILES IDX 11 1 12 2 14 3 15 4 13 5 23 6 24 7 16 9 17 10 18 11 22 12
REMARK SMILES IDX 19 13 21 14 20 15 10 16 9 17 8 18 25 19 7 20 27 21 26 22
REMARK SMILES IDX 6 23 4 24 5 25 3 26 28 27 2 28 1 30
REMARK H PARENT 15 8 28 29
ROOT
ATOM      1  C   UNL     1     -16.859 -42.987  24.855  1.00  0.00     0.010 C 
ENDROOT
BRANCH   1   2
ATOM      2  C   UNL     1     -15.455 -42.448  25.202  1.00  0.00     0.000 C 
ATOM      3  C   UNL     1     -14.894 -44.013  27.140  1.00  0.00     0.262 C 
ATOM      4  N   UNL     1     -13.833 -44.664  26.291  1.00  0.00    -0.331 N 
ATOM      5  C   UNL     1     -15.098 -42.571  26.693  1.00  0.00     0.065 C 
ATOM      6  C   UNL     1     -14.155 -44.617  24.815  1.00  0.00     0.262 C 
ATOM      7  C   UNL     1     -14.376 -43.172  24.379  1.00  0.00     0.065 C 
ATOM      8  H   UNL     1     -12.961 -44.136  26.421  1.00  0.00     0.348 HD
BRANCH   4   9
ATOM      9  C   UNL     1     -13.539 -46.072  26.774  1.00  0.00     0.299 C 
BRANCH   9  10
ATOM     10  C   UNL     1     -12.629 -46.107  27.971  1.00  0.00     0.006 A 
ATOM     11  C   UNL     1     -11.238 -46.198  27.805  1.00  0.00     0.009 A 
ATOM     12  C   UNL     1     -13.155 -46.029  29.270  1.00  0.00     0.009 A 
ATOM     13  C   UNL     1     -10.393 -46.203  28.916  1.00  0.00     0.001 A 
ATOM     14  C   UNL     1     -12.305 -46.035  30.377  1.00  0.00     0.001 A 
ATOM     15  C   UNL     1     -10.927 -46.119  30.200  1.00  0.00     0.000 A 
ENDBRANCH   9  10
ENDBRANCH   4   9
ENDBRANCH   1   2
BRANCH   1  16
ATOM     16  C   UNL     1     -18.004 -42.019  25.191  1.00  0.00     0.061 C 
BRANCH  16  17
ATOM     17  C   UNL     1     -18.945 -42.607  26.188  1.00  0.00     0.091 A 
ATOM     18  C   UNL     1     -20.108 -43.387  25.968  1.00  0.00     0.045 A 
ATOM     19  N   UNL     1     -18.718 -42.405  27.496  1.00  0.00    -0.084 NA
ATOM     20  C   UNL     1     -20.826 -43.905  24.864  1.00  0.00     0.016 A 
ATOM     21  C   UNL     1     -20.567 -43.643  27.254  1.00  0.00     0.172 A 
ATOM     22  O   UNL     1     -19.743 -43.061  28.160  1.00  0.00    -0.356 OA
ATOM     23  C   UNL     1     -21.987 -44.665  25.092  1.00  0.00     0.027 A 
ATOM     24  C   UNL     1     -21.702 -44.387  27.506  1.00  0.00     0.031 A 
ATOM     25  C   UNL     1     -22.386 -44.882  26.397  1.00  0.00     0.048 A 
ATOM     26  C   UNL     1     -22.400 -44.802  28.767  1.00  0.00     0.142 C 
ATOM     27  N   UNL     1     -23.491 -45.599  26.828  1.00  0.00    -0.325 N 
ATOM     28  C   UNL     1     -23.583 -45.609  28.217  1.00  0.00     0.229 C 
ATOM     29  H   UNL     1     -24.166 -46.066  26.240  1.00  0.00     0.169 HD
ATOM     30  O   UNL     1     -24.450 -46.164  28.868  1.00  0.00    -0.274 OA
ENDBRANCH  16  17
ENDBRANCH   1  16
TORSDOF 5
ENDMDL
MODEL 8
REMARK VINA RESULT:    -9.695      5.372     13.278
REMARK INTER + INTRA:         -13.077
REMARK INTER:                 -12.460
REMARK INTRA:                  -0.617
REMARK UNBOUND:                -0.547
REMARK SMILES O=C1Cc2c(ccc3c(CC[C@H]4CC[N@@H+](Cc5ccccc5)CC4)noc23)N1
REMARK SMILES IDX 11 1 12 2 14 3 15 4 13 5 23 6 24 7 16 9 17 10 18 11 22 12
REMARK SMILES IDX 19 13 21 14 20 15 10 16 9 17 8 18 25 19 7 20 27 21 26 22
REMARK SMILES IDX 6 23 4 24 5 25 3 26 28 27 2 28 1 30
REMARK H PARENT 15 8 28 29
ROOT
ATOM      1  C   UNL     1     -19.709 -41.389  21.939  1.00  0.00     0.010 C 
ENDROOT
BRANCH   1   2
ATOM      2  C   UNL     1     -19.487 -39.930  21.488  1.00  0.00     0.000 C 
ATOM      3  C   UNL     1     -20.997 -39.916  19.428  1.00  0.00     0.262 C 
ATOM      4  N   UNL     1     -21.935 -38.974  20.138  1.00  0.00    -0.331 N 
ATOM      5  C   UNL     1     -19.583 -39.734  19.966  1.00  0.00     0.065 C 
ATOM      6  C   UNL     1     -21.921 -39.155  21.639  1.00  0.00     0.262 C 
ATOM      7  C   UNL     1     -20.499 -38.991  22.166  1.00  0.00     0.065 C 
ATOM      8  H   UNL     1     -21.616 -38.015  19.952  1.00  0.00     0.348 HD
BRANCH   4   9
ATOM      9  C   UNL     1     -23.334 -39.063  19.558  1.00  0.00     0.299 C 
BRANCH   9  10
ATOM     10  C   UNL     1     -23.414 -38.583  18.135  1.00  0.00     0.006 A 
ATOM     11  C   UNL     1     -22.996 -37.286  17.797  1.00  0.00     0.009 A 
ATOM     12  C   UNL     1     -23.891 -39.430  17.121  1.00  0.00     0.009 A 
ATOM     13  C   UNL     1     -23.047 -36.852  16.471  1.00  0.00     0.001 A 
ATOM     14  C   UNL     1     -23.938 -38.990  15.798  1.00  0.00     0.001 A 
ATOM     15  C   UNL     1     -23.515 -37.705  15.473  1.00  0.00     0.000 A 
ENDBRANCH   9  10
ENDBRANCH   4   9
ENDBRANCH   1   2
BRANCH   1  16
ATOM     16  C   UNL     1     -19.549 -41.610  23.451  1.00  0.00     0.061 C 
BRANCH  16  17
ATOM     17  C   UNL     1     -18.207 -42.169  23.784  1.00  0.00     0.091 A 
ATOM     18  C   UNL     1     -17.629 -42.409  25.057  1.00  0.00     0.045 A 
ATOM     19  N   UNL     1     -17.377 -42.511  22.786  1.00  0.00    -0.084 NA
ATOM     20  C   UNL     1     -17.994 -42.259  26.416  1.00  0.00     0.016 A 
ATOM     21  C   UNL     1     -16.379 -42.929  24.746  1.00  0.00     0.172 A 
ATOM     22  O   UNL     1     -16.229 -42.989  23.399  1.00  0.00    -0.356 OA
ATOM     23  C   UNL     1     -17.085 -42.637  27.420  1.00  0.00     0.027 A 
ATOM     24  C   UNL     1     -15.468 -43.309  25.711  1.00  0.00     0.031 A 
ATOM     25  C   UNL     1     -15.859 -43.146  27.040  1.00  0.00     0.048 A 
ATOM     26  C   UNL     1     -14.084 -43.883  25.649  1.00  0.00     0.142 C 
ATOM     27  N   UNL     1     -14.834 -43.574  27.869  1.00  0.00    -0.325 N 
ATOM     28  C   UNL     1     -13.740 -44.028  27.136  1.00  0.00     0.229 C 
ATOM     29  H   UNL     1     -14.841 -43.568  28.878  1.00  0.00     0.169 HD
ATOM     30  O   UNL     1     -12.703 -44.463  27.605  1.00  0.00    -0.274 OA
ENDBRANCH  16  17
ENDBRANCH   1  16
TORSDOF 5
ENDMDL
MODEL 9
REMARK VINA RESULT:    -9.589      3.018      4.806
REMARK INTER + INTRA:         -12.940
REMARK INTER:                 -12.437
REMARK INTRA:                  -0.503
REMARK UNBOUND:                -0.547
REMARK SMILES O=C1Cc2c(ccc3c(CC[C@H]4CC[N@@H+](Cc5ccccc5)CC4)noc23)N1
REMARK SMILES IDX 11 1 12 2 14 3 15 4 13 5 23 6 24 7 16 9 17 10 18 11 22 12
REMARK SMILES IDX 19 13 21 14 20 15 10 16 9 17 8 18 25 19 7 20 27 21 26 22
REMARK SMILES IDX 6 23 4 24 5 25 3 26 28 27 2 28 1 30
REMARK H PARENT 15 8 28 29
ROOT
ATOM      1  C   UNL     1     -16.615 -43.167  24.552  1.00  0.00     0.010 C 
ENDROOT
BRANCH   1   2
ATOM      2  C   UNL     1     -15.169 -42.682  24.790  1.00  0.00     0.000 C 
ATOM      3  C   UNL     1     -15.034 -43.049  27.313  1.00  0.00     0.262 C 
ATOM      4  N   UNL     1     -14.041 -44.159  27.086  1.00  0.00    -0.331 N 
ATOM      5  C   UNL     1     -14.951 -42.043  26.171  1.00  0.00     0.065 C 
ATOM      6  C   UNL     1     -14.238 -44.858  25.761  1.00  0.00     0.262 C 
ATOM      7  C   UNL     1     -14.173 -43.842  24.625  1.00  0.00     0.065 C 
ATOM      8  H   UNL     1     -13.103 -43.740  27.064  1.00  0.00     0.348 HD
BRANCH   4   9
ATOM      9  C   UNL     1     -14.032 -45.126  28.255  1.00  0.00     0.299 C 
BRANCH   9  10
ATOM     10  C   UNL     1     -12.646 -45.535  28.672  1.00  0.00     0.006 A 
ATOM     11  C   UNL     1     -12.172 -45.234  29.959  1.00  0.00     0.009 A 
ATOM     12  C   UNL     1     -11.813 -46.240  27.788  1.00  0.00     0.009 A 
ATOM     13  C   UNL     1     -10.895 -45.638  30.353  1.00  0.00     0.001 A 
ATOM     14  C   UNL     1     -10.538 -46.641  28.188  1.00  0.00     0.001 A 
ATOM     15  C   UNL     1     -10.081 -46.342  29.469  1.00  0.00     0.000 A 
ENDBRANCH   9  10
ENDBRANCH   4   9
ENDBRANCH   1   2
BRANCH   1  16
ATOM     16  C   UNL     1     -17.693 -42.147  24.951  1.00  0.00     0.061 C 
BRANCH  16  17
ATOM     17  C   UNL     1     -18.873 -42.212  24.042  1.00  0.00     0.091 A 
ATOM     18  C   UNL     1     -19.115 -41.503  22.838  1.00  0.00     0.045 A 
ATOM     19  N   UNL     1     -19.887 -43.038  24.349  1.00  0.00    -0.084 NA
ATOM     20  C   UNL     1     -18.452 -40.539  22.042  1.00  0.00     0.016 A 
ATOM     21  C   UNL     1     -20.361 -41.969  22.439  1.00  0.00     0.172 A 
ATOM     22  O   UNL     1     -20.819 -42.879  23.334  1.00  0.00    -0.356 OA
ATOM     23  C   UNL     1     -19.069 -40.074  20.866  1.00  0.00     0.027 A 
ATOM     24  C   UNL     1     -20.988 -41.531  21.290  1.00  0.00     0.031 A 
ATOM     25  C   UNL     1     -20.309 -40.581  20.529  1.00  0.00     0.048 A 
ATOM     26  C   UNL     1     -22.302 -41.862  20.645  1.00  0.00     0.142 C 
ATOM     27  N   UNL     1     -21.075 -40.256  19.420  1.00  0.00    -0.325 N 
ATOM     28  C   UNL     1     -22.273 -40.965  19.403  1.00  0.00     0.229 C 
ATOM     29  H   UNL     1     -20.830 -39.593  18.699  1.00  0.00     0.169 HD
ATOM     30  O   UNL     1     -23.136 -40.880  18.546  1.00  0.00    -0.274 OA
ENDBRANCH  16  17
ENDBRANCH   1  16
TORSDOF 5
ENDMDL
