MODEL 1
REMARK VINA RESULT:   -11.892      0.000      0.000
REMARK INTER + INTRA:         -15.814
REMARK INTER:                 -15.368
REMARK INTRA:                  -0.446
REMARK UNBOUND:                -0.446
REMARK SMILES O=C(NCCN=c1c2c([nH]c3ccccc13)CCCC2)c1ccc(F)cc1
REMARK SMILES IDX 5 1 6 2 7 3 10 4 9 5 11 6 8 7 17 8 12 9 16 10 20 11 18 12
REMARK SMILES IDX 13 13 15 14 19 15 14 16 4 18 3 19 2 20 1 22 21 23 22 24
REMARK SMILES IDX 27 25 23 26 26 27 24 28 25 29
REMARK H PARENT 10 17 3 21
ROOT
ATOM      1  C   UNL     1     -13.222 -45.797  29.335  1.00  0.00     0.164 C 
ENDROOT
BRANCH   1   2
ATOM      2  N   UNL     1     -12.204 -46.128  30.324  1.00  0.00    -0.282 NA
BRANCH   2   3
ATOM      3  C   UNL     1     -11.763 -45.322  31.234  1.00  0.00     0.072 A 
ATOM      4  N   UNL     1     -10.451 -43.139  32.435  1.00  0.00    -0.358 N 
ATOM      5  C   UNL     1      -9.706 -44.214  31.993  1.00  0.00     0.021 A 
ATOM      6  C   UNL     1     -11.833 -43.275  32.646  1.00  0.00     0.048 A 
ATOM      7  C   UNL     1     -10.267 -45.305  31.435  1.00  0.00    -0.003 A 
ATOM      8  C   UNL     1      -8.206 -44.103  32.156  1.00  0.00     0.054 C 
ATOM      9  C   UNL     1     -12.524 -42.305  33.387  1.00  0.00     0.027 A 
ATOM     10  C   UNL     1     -12.536 -44.365  32.096  1.00  0.00     0.024 A 
ATOM     11  C   UNL     1      -9.486 -46.494  30.948  1.00  0.00     0.039 C 
ATOM     12  C   UNL     1      -7.415 -45.128  31.342  1.00  0.00     0.007 C 
ATOM     13  C   UNL     1     -13.883 -42.457  33.655  1.00  0.00     0.002 A 
ATOM     14  C   UNL     1     -13.886 -44.535  32.421  1.00  0.00     0.012 A 
ATOM     15  C   UNL     1      -8.042 -46.512  31.452  1.00  0.00     0.005 C 
ATOM     16  C   UNL     1     -14.558 -43.581  33.191  1.00  0.00     0.001 A 
ATOM     17  H   UNL     1      -9.968 -42.463  33.017  1.00  0.00     0.166 HD
ENDBRANCH   2   3
ENDBRANCH   1   2
BRANCH   1  18
ATOM     18  C   UNL     1     -12.549 -45.717  27.958  1.00  0.00     0.139 C 
BRANCH  18  19
ATOM     19  N   UNL     1     -13.475 -45.238  26.946  1.00  0.00    -0.350 N 
ATOM     20  C   UNL     1     -13.653 -43.886  26.739  1.00  0.00     0.251 C 
ATOM     21  H   UNL     1     -14.280 -45.839  26.819  1.00  0.00     0.163 HD
ATOM     22  O   UNL     1     -12.949 -43.022  27.249  1.00  0.00    -0.269 OA
BRANCH  20  23
ATOM     23  C   UNL     1     -14.805 -43.499  25.874  1.00  0.00     0.040 A 
ATOM     24  C   UNL     1     -14.734 -43.785  24.502  1.00  0.00     0.017 A 
ATOM     25  C   UNL     1     -15.954 -42.885  26.397  1.00  0.00     0.017 A 
ATOM     26  C   UNL     1     -15.791 -43.441  23.657  1.00  0.00     0.040 A 
ATOM     27  C   UNL     1     -17.009 -42.543  25.547  1.00  0.00     0.040 A 
ATOM     28  C   UNL     1     -16.916 -42.820  24.188  1.00  0.00     0.123 A 
ATOM     29  F   UNL     1     -17.931 -42.491  23.377  1.00  0.00    -0.207 F 
ENDBRANCH  20  23
ENDBRANCH  18  19
ENDBRANCH   1  18
TORSDOF 5
ENDMDL
MODEL 2
REMARK VINA RESULT:   -11.235      2.226      3.709
REMARK INTER + INTRA:         -14.965
REMARK INTER:                 -13.955
REMARK INTRA:                  -1.011
REMARK UNBOUND:                -0.446
REMARK SMILES O=C(NCCN=c1c2c([nH]c3ccccc13)CCCC2)c1ccc(F)cc1
REMARK SMILES IDX 5 1 6 2 7 3 10 4 9 5 11 6 8 7 17 8 12 9 16 10 20 11 18 12
REMARK SMILES IDX 13 13 15 14 19 15 14 16 4 18 3 19 2 20 1 22 21 23 22 24
REMARK SMILES IDX 27 25 23 26 26 27 24 28 25 29
REMARK H PARENT 10 17 3 21
ROOT
ATOM      1  C   UNL     1     -13.258 -44.523  31.890  1.00  0.00     0.164 C 
ENDROOT
BRANCH   1   2
ATOM      2  N   UNL     1     -12.724 -43.240  31.449  1.00  0.00    -0.282 NA
BRANCH   2   3
ATOM      3  C   UNL     1     -11.470 -42.980  31.275  1.00  0.00     0.072 A 
ATOM      4  N   UNL     1      -8.669 -43.265  31.321  1.00  0.00    -0.358 N 
ATOM      5  C   UNL     1      -9.331 -42.915  32.481  1.00  0.00     0.021 A 
ATOM      6  C   UNL     1      -9.295 -43.107  30.074  1.00  0.00     0.048 A 
ATOM      7  C   UNL     1     -10.665 -42.733  32.528  1.00  0.00    -0.003 A 
ATOM      8  C   UNL     1      -8.476 -42.755  33.719  1.00  0.00     0.054 C 
ATOM      9  C   UNL     1      -8.530 -43.153  28.899  1.00  0.00     0.027 A 
ATOM     10  C   UNL     1     -10.690 -42.928  29.993  1.00  0.00     0.024 A 
ATOM     11  C   UNL     1     -11.416 -42.346  33.773  1.00  0.00     0.039 C 
ATOM     12  C   UNL     1      -9.271 -42.726  35.025  1.00  0.00     0.007 C 
ATOM     13  C   UNL     1      -9.128 -42.937  27.658  1.00  0.00     0.002 A 
ATOM     14  C   UNL     1     -11.267 -42.655  28.748  1.00  0.00     0.012 A 
ATOM     15  C   UNL     1     -10.504 -41.841  34.891  1.00  0.00     0.005 C 
ATOM     16  C   UNL     1     -10.491 -42.668  27.585  1.00  0.00     0.001 A 
ATOM     17  H   UNL     1      -7.658 -43.182  31.335  1.00  0.00     0.166 HD
ENDBRANCH   2   3
ENDBRANCH   1   2
BRANCH   1  18
ATOM     18  C   UNL     1     -13.314 -45.465  30.679  1.00  0.00     0.139 C 
BRANCH  18  19
ATOM     19  N   UNL     1     -14.118 -44.899  29.608  1.00  0.00    -0.350 N 
ATOM     20  C   UNL     1     -13.772 -45.099  28.289  1.00  0.00     0.251 C 
ATOM     21  H   UNL     1     -14.545 -44.013  29.850  1.00  0.00     0.163 HD
ATOM     22  O   UNL     1     -12.898 -45.879  27.926  1.00  0.00    -0.269 OA
BRANCH  20  23
ATOM     23  C   UNL     1     -14.498 -44.268  27.285  1.00  0.00     0.040 A 
ATOM     24  C   UNL     1     -14.148 -44.400  25.933  1.00  0.00     0.017 A 
ATOM     25  C   UNL     1     -15.527 -43.388  27.654  1.00  0.00     0.017 A 
ATOM     26  C   UNL     1     -14.804 -43.642  24.960  1.00  0.00     0.040 A 
ATOM     27  C   UNL     1     -16.180 -42.631  26.677  1.00  0.00     0.040 A 
ATOM     28  C   UNL     1     -15.810 -42.763  25.343  1.00  0.00     0.123 A 
ATOM     29  F   UNL     1     -16.441 -42.037  24.410  1.00  0.00    -0.207 F 
ENDBRANCH  20  23
ENDBRANCH  18  19
ENDBRANCH   1  18
TORSDOF 5
ENDMDL
MODEL 3
REMARK VINA RESULT:   -10.888      1.683      4.175
REMARK INTER + INTRA:         -14.517
REMARK INTER:                 -14.105
REMARK INTRA:                  -0.411
REMARK UNBOUND:                -0.446
REMARK SMILES O=C(NCCN=c1c2c([nH]c3ccccc13)CCCC2)c1ccc(F)cc1
REMARK SMILES IDX 5 1 6 2 7 3 10 4 9 5 11 6 8 7 17 8 12 9 16 10 20 11 18 12
REMARK SMILES IDX 13 13 15 14 19 15 14 16 4 18 3 19 2 20 1 22 21 23 22 24
REMARK SMILES IDX 27 25 23 26 26 27 24 28 25 29
REMARK H PARENT 10 17 3 21
ROOT
ATOM      1  C   UNL     1     -12.280 -45.948  31.249  1.00  0.00     0.164 C 
ENDROOT
BRANCH   1   2
ATOM      2  N   UNL     1     -12.963 -44.680  31.474  1.00  0.00    -0.282 NA
BRANCH   2   3
ATOM      3  C   UNL     1     -12.504 -43.708  32.191  1.00  0.00     0.072 A 
ATOM      4  N   UNL     1     -11.945 -42.097  34.433  1.00  0.00    -0.358 N 
ATOM      5  C   UNL     1     -13.203 -42.052  33.866  1.00  0.00     0.021 A 
ATOM      6  C   UNL     1     -10.860 -42.616  33.707  1.00  0.00     0.048 A 
ATOM      7  C   UNL     1     -13.534 -42.773  32.776  1.00  0.00    -0.003 A 
ATOM      8  C   UNL     1     -14.212 -41.152  34.545  1.00  0.00     0.054 C 
ATOM      9  C   UNL     1      -9.550 -42.372  34.143  1.00  0.00     0.027 A 
ATOM     10  C   UNL     1     -11.080 -43.402  32.558  1.00  0.00     0.024 A 
ATOM     11  C   UNL     1     -14.893 -42.743  32.131  1.00  0.00     0.039 C 
ATOM     12  C   UNL     1     -15.658 -41.404  34.115  1.00  0.00     0.007 C 
ATOM     13  C   UNL     1      -8.462 -42.829  33.399  1.00  0.00     0.002 A 
ATOM     14  C   UNL     1      -9.981 -43.804  31.791  1.00  0.00     0.012 A 
ATOM     15  C   UNL     1     -15.756 -41.572  32.604  1.00  0.00     0.005 C 
ATOM     16  C   UNL     1      -8.678 -43.526  32.215  1.00  0.00     0.001 A 
ATOM     17  H   UNL     1     -11.731 -41.380  35.116  1.00  0.00     0.166 HD
ENDBRANCH   2   3
ENDBRANCH   1   2
BRANCH   1  18
ATOM     18  C   UNL     1     -12.090 -46.133  29.737  1.00  0.00     0.139 C 
BRANCH  18  19
ATOM     19  N   UNL     1     -13.111 -45.422  28.986  1.00  0.00    -0.350 N 
ATOM     20  C   UNL     1     -13.247 -45.614  27.628  1.00  0.00     0.251 C 
ATOM     21  H   UNL     1     -13.308 -44.497  29.349  1.00  0.00     0.163 HD
ATOM     22  O   UNL     1     -12.657 -46.488  27.003  1.00  0.00    -0.269 OA
BRANCH  20  23
ATOM     23  C   UNL     1     -14.137 -44.654  26.913  1.00  0.00     0.040 A 
ATOM     24  C   UNL     1     -14.172 -44.694  25.511  1.00  0.00     0.017 A 
ATOM     25  C   UNL     1     -14.948 -43.739  27.602  1.00  0.00     0.017 A 
ATOM     26  C   UNL     1     -14.993 -43.814  24.803  1.00  0.00     0.040 A 
ATOM     27  C   UNL     1     -15.768 -42.860  26.889  1.00  0.00     0.040 A 
ATOM     28  C   UNL     1     -15.779 -42.904  25.499  1.00  0.00     0.123 A 
ATOM     29  F   UNL     1     -16.568 -42.060  24.820  1.00  0.00    -0.207 F 
ENDBRANCH  20  23
ENDBRANCH  18  19
ENDBRANCH   1  18
TORSDOF 5
ENDMDL
MODEL 4
REMARK VINA RESULT:   -10.543      1.108      3.787
REMARK INTER + INTRA:         -14.071
REMARK INTER:                 -13.650
REMARK INTRA:                  -0.421
REMARK UNBOUND:                -0.446
REMARK SMILES O=C(NCCN=c1c2c([nH]c3ccccc13)CCCC2)c1ccc(F)cc1
REMARK SMILES IDX 5 1 6 2 7 3 10 4 9 5 11 6 8 7 17 8 12 9 16 10 20 11 18 12
REMARK SMILES IDX 13 13 15 14 19 15 14 16 4 18 3 19 2 20 1 22 21 23 22 24
REMARK SMILES IDX 27 25 23 26 26 27 24 28 25 29
REMARK H PARENT 10 17 3 21
ROOT
ATOM      1  C   UNL     1     -11.343 -46.290  29.332  1.00  0.00     0.164 C 
ENDROOT
BRANCH   1   2
ATOM      2  N   UNL     1     -11.474 -46.051  30.764  1.00  0.00    -0.282 NA
BRANCH   2   3
ATOM      3  C   UNL     1     -11.131 -44.961  31.368  1.00  0.00     0.072 A 
ATOM      4  N   UNL     1     -10.738 -43.077  33.424  1.00  0.00    -0.358 N 
ATOM      5  C   UNL     1     -12.004 -43.251  32.902  1.00  0.00     0.021 A 
ATOM      6  C   UNL     1      -9.611 -43.520  32.711  1.00  0.00     0.048 A 
ATOM      7  C   UNL     1     -12.262 -44.113  31.898  1.00  0.00    -0.003 A 
ATOM      8  C   UNL     1     -13.106 -42.426  33.527  1.00  0.00     0.054 C 
ATOM      9  C   UNL     1      -8.334 -43.066  33.074  1.00  0.00     0.027 A 
ATOM     10  C   UNL     1      -9.752 -44.438  31.652  1.00  0.00     0.024 A 
ATOM     11  C   UNL     1     -13.627 -44.324  31.303  1.00  0.00     0.039 C 
ATOM     12  C   UNL     1     -14.516 -42.905  33.177  1.00  0.00     0.007 C 
ATOM     13  C   UNL     1      -7.214 -43.451  32.339  1.00  0.00     0.002 A 
ATOM     14  C   UNL     1      -8.628 -44.768  30.887  1.00  0.00     0.012 A 
ATOM     15  C   UNL     1     -14.626 -43.233  31.693  1.00  0.00     0.005 C 
ATOM     16  C   UNL     1      -7.363 -44.283  31.235  1.00  0.00     0.001 A 
ATOM     17  H   UNL     1     -10.605 -42.273  34.027  1.00  0.00     0.166 HD
ENDBRANCH   2   3
ENDBRANCH   1   2
BRANCH   1  18
ATOM     18  C   UNL     1     -11.238 -44.932  28.623  1.00  0.00     0.139 C 
BRANCH  18  19
ATOM     19  N   UNL     1     -12.344 -44.732  27.701  1.00  0.00    -0.350 N 
ATOM     20  C   UNL     1     -12.670 -43.467  27.260  1.00  0.00     0.251 C 
ATOM     21  H   UNL     1     -13.101 -45.391  27.832  1.00  0.00     0.163 HD
ATOM     22  O   UNL     1     -11.978 -42.476  27.463  1.00  0.00    -0.269 OA
BRANCH  20  23
ATOM     23  C   UNL     1     -13.968 -43.338  26.535  1.00  0.00     0.040 A 
ATOM     24  C   UNL     1     -15.092 -42.903  27.255  1.00  0.00     0.017 A 
ATOM     25  C   UNL     1     -14.085 -43.614  25.165  1.00  0.00     0.017 A 
ATOM     26  C   UNL     1     -16.326 -42.767  26.614  1.00  0.00     0.040 A 
ATOM     27  C   UNL     1     -15.321 -43.475  24.528  1.00  0.00     0.040 A 
ATOM     28  C   UNL     1     -16.428 -43.058  25.259  1.00  0.00     0.123 A 
ATOM     29  F   UNL     1     -17.612 -42.926  24.645  1.00  0.00    -0.207 F 
ENDBRANCH  20  23
ENDBRANCH  18  19
ENDBRANCH   1  18
TORSDOF 5
ENDMDL
MODEL 5
REMARK VINA RESULT:   -10.417      4.390     10.330
REMARK INTER + INTRA:         -13.908
REMARK INTER:                 -13.384
REMARK INTRA:                  -0.524
REMARK UNBOUND:                -0.446
REMARK SMILES O=C(NCCN=c1c2c([nH]c3ccccc13)CCCC2)c1ccc(F)cc1
REMARK SMILES IDX 5 1 6 2 7 3 10 4 9 5 11 6 8 7 17 8 12 9 16 10 20 11 18 12
REMARK SMILES IDX 13 13 15 14 19 15 14 16 4 18 3 19 2 20 1 22 21 23 22 24
REMARK SMILES IDX 27 25 23 26 26 27 24 28 25 29
REMARK H PARENT 10 17 3 21
ROOT
ATOM      1  C   UNL     1     -16.148 -42.791  23.498  1.00  0.00     0.164 C 
ENDROOT
BRANCH   1   2
ATOM      2  N   UNL     1     -17.090 -41.709  23.243  1.00  0.00    -0.282 NA
BRANCH   2   3
ATOM      3  C   UNL     1     -18.347 -41.733  23.544  1.00  0.00     0.072 A 
ATOM      4  N   UNL     1     -21.057 -42.499  23.562  1.00  0.00    -0.358 N 
ATOM      5  C   UNL     1     -20.575 -41.747  22.510  1.00  0.00     0.021 A 
ATOM      6  C   UNL     1     -20.347 -42.558  24.773  1.00  0.00     0.048 A 
ATOM      7  C   UNL     1     -19.298 -41.321  22.447  1.00  0.00    -0.003 A 
ATOM      8  C   UNL     1     -21.561 -41.430  21.406  1.00  0.00     0.054 C 
ATOM      9  C   UNL     1     -20.977 -43.044  25.928  1.00  0.00     0.027 A 
ATOM     10  C   UNL     1     -18.998 -42.157  24.830  1.00  0.00     0.024 A 
ATOM     11  C   UNL     1     -18.743 -40.496  21.318  1.00  0.00     0.039 C 
ATOM     12  C   UNL     1     -20.910 -40.921  20.119  1.00  0.00     0.007 C 
ATOM     13  C   UNL     1     -20.304 -43.052  27.149  1.00  0.00     0.002 A 
ATOM     14  C   UNL     1     -18.354 -42.116  26.071  1.00  0.00     0.012 A 
ATOM     15  C   UNL     1     -19.829 -39.893  20.426  1.00  0.00     0.005 C 
ATOM     16  C   UNL     1     -19.002 -42.569  27.224  1.00  0.00     0.001 A 
ATOM     17  H   UNL     1     -22.064 -42.600  23.622  1.00  0.00     0.166 HD
ENDBRANCH   2   3
ENDBRANCH   1   2
BRANCH   1  18
ATOM     18  C   UNL     1     -14.975 -42.229  24.314  1.00  0.00     0.139 C 
BRANCH  18  19
ATOM     19  N   UNL     1     -14.262 -43.286  25.011  1.00  0.00    -0.350 N 
ATOM     20  C   UNL     1     -14.256 -43.340  26.388  1.00  0.00     0.251 C 
ATOM     21  H   UNL     1     -13.428 -43.596  24.528  1.00  0.00     0.163 HD
ATOM     22  O   UNL     1     -14.962 -42.633  27.099  1.00  0.00    -0.269 OA
BRANCH  20  23
ATOM     23  C   UNL     1     -13.290 -44.295  27.005  1.00  0.00     0.040 A 
ATOM     24  C   UNL     1     -12.265 -43.778  27.812  1.00  0.00     0.017 A 
ATOM     25  C   UNL     1     -13.396 -45.681  26.820  1.00  0.00     0.017 A 
ATOM     26  C   UNL     1     -11.341 -44.637  28.410  1.00  0.00     0.040 A 
ATOM     27  C   UNL     1     -12.468 -46.538  27.420  1.00  0.00     0.040 A 
ATOM     28  C   UNL     1     -11.450 -46.007  28.205  1.00  0.00     0.123 A 
ATOM     29  F   UNL     1     -10.564 -46.832  28.780  1.00  0.00    -0.207 F 
ENDBRANCH  20  23
ENDBRANCH  18  19
ENDBRANCH   1  18
TORSDOF 5
ENDMDL
MODEL 6
REMARK VINA RESULT:   -10.194      1.770      2.774
REMARK INTER + INTRA:         -13.620
REMARK INTER:                 -13.103
REMARK INTRA:                  -0.517
REMARK UNBOUND:                -0.446
REMARK SMILES O=C(NCCN=c1c2c([nH]c3ccccc13)CCCC2)c1ccc(F)cc1
REMARK SMILES IDX 5 1 6 2 7 3 10 4 9 5 11 6 8 7 17 8 12 9 16 10 20 11 18 12
REMARK SMILES IDX 13 13 15 14 19 15 14 16 4 18 3 19 2 20 1 22 21 23 22 24
REMARK SMILES IDX 27 25 23 26 26 27 24 28 25 29
REMARK H PARENT 10 17 3 21
ROOT
ATOM      1  C   UNL     1     -13.245 -43.855  31.827  1.00  0.00     0.164 C 
ENDROOT
BRANCH   1   2
ATOM      2  N   UNL     1     -11.885 -43.596  31.372  1.00  0.00    -0.282 NA
BRANCH   2   3
ATOM      3  C   UNL     1     -10.829 -43.665  32.114  1.00  0.00     0.072 A 
ATOM      4  N   UNL     1      -8.140 -43.474  32.928  1.00  0.00    -0.358 N 
ATOM      5  C   UNL     1      -8.526 -44.519  32.113  1.00  0.00     0.021 A 
ATOM      6  C   UNL     1      -9.101 -42.749  33.653  1.00  0.00     0.048 A 
ATOM      7  C   UNL     1      -9.799 -44.691  31.707  1.00  0.00    -0.003 A 
ATOM      8  C   UNL     1      -7.432 -45.470  31.680  1.00  0.00     0.054 C 
ATOM      9  C   UNL     1      -8.698 -41.917  34.707  1.00  0.00     0.027 A 
ATOM     10  C   UNL     1     -10.465 -42.832  33.310  1.00  0.00     0.024 A 
ATOM     11  C   UNL     1     -10.253 -45.821  30.824  1.00  0.00     0.039 C 
ATOM     12  C   UNL     1      -7.823 -46.378  30.513  1.00  0.00     0.007 C 
ATOM     13  C   UNL     1      -9.646 -41.240  35.473  1.00  0.00     0.002 A 
ATOM     14  C   UNL     1     -11.409 -42.194  34.123  1.00  0.00     0.012 A 
ATOM     15  C   UNL     1      -9.223 -46.945  30.711  1.00  0.00     0.005 C 
ATOM     16  C   UNL     1     -10.999 -41.394  35.194  1.00  0.00     0.001 A 
ATOM     17  H   UNL     1      -7.216 -43.539  33.341  1.00  0.00     0.166 HD
ENDBRANCH   2   3
ENDBRANCH   1   2
BRANCH   1  18
ATOM     18  C   UNL     1     -13.788 -45.069  31.059  1.00  0.00     0.139 C 
BRANCH  18  19
ATOM     19  N   UNL     1     -14.454 -44.663  29.833  1.00  0.00    -0.350 N 
ATOM     20  C   UNL     1     -13.907 -44.962  28.604  1.00  0.00     0.251 C 
ATOM     21  H   UNL     1     -14.959 -43.789  29.919  1.00  0.00     0.163 HD
ATOM     22  O   UNL     1     -12.948 -45.711  28.450  1.00  0.00    -0.269 OA
BRANCH  20  23
ATOM     23  C   UNL     1     -14.520 -44.281  27.427  1.00  0.00     0.040 A 
ATOM     24  C   UNL     1     -15.525 -43.328  27.657  1.00  0.00     0.017 A 
ATOM     25  C   UNL     1     -14.105 -44.548  26.114  1.00  0.00     0.017 A 
ATOM     26  C   UNL     1     -16.124 -42.666  26.584  1.00  0.00     0.040 A 
ATOM     27  C   UNL     1     -14.708 -43.882  25.043  1.00  0.00     0.040 A 
ATOM     28  C   UNL     1     -15.712 -42.952  25.288  1.00  0.00     0.123 A 
ATOM     29  F   UNL     1     -16.287 -42.316  24.258  1.00  0.00    -0.207 F 
ENDBRANCH  20  23
ENDBRANCH  18  19
ENDBRANCH   1  18
TORSDOF 5
ENDMDL
MODEL 7
REMARK VINA RESULT:   -10.072      5.664      8.736
REMARK INTER + INTRA:         -13.463
REMARK INTER:                 -12.413
REMARK INTRA:                  -1.050
REMARK UNBOUND:                -0.446
REMARK SMILES O=C(NCCN=c1c2c([nH]c3ccccc13)CCCC2)c1ccc(F)cc1
REMARK SMILES IDX 5 1 6 2 7 3 10 4 9 5 11 6 8 7 17 8 12 9 16 10 20 11 18 12
REMARK SMILES IDX 13 13 15 14 19 15 14 16 4 18 3 19 2 20 1 22 21 23 22 24
REMARK SMILES IDX 27 25 23 26 26 27 24 28 25 29
REMARK H PARENT 10 17 3 21
ROOT
ATOM      1  C   UNL     1     -16.099 -41.280  22.622  1.00  0.00     0.164 C 
ENDROOT
BRANCH   1   2
ATOM      2  N   UNL     1     -16.894 -42.395  23.125  1.00  0.00    -0.282 NA
BRANCH   2   3
ATOM      3  C   UNL     1     -17.188 -42.594  24.368  1.00  0.00     0.072 A 
ATOM      4  N   UNL     1     -17.170 -42.345  27.172  1.00  0.00    -0.358 N 
ATOM      5  C   UNL     1     -16.144 -43.027  26.549  1.00  0.00     0.021 A 
ATOM      6  C   UNL     1     -18.381 -42.117  26.498  1.00  0.00     0.048 A 
ATOM      7  C   UNL     1     -16.102 -43.211  25.215  1.00  0.00    -0.003 A 
ATOM      8  C   UNL     1     -15.048 -43.556  27.447  1.00  0.00     0.054 C 
ATOM      9  C   UNL     1     -19.516 -41.720  27.220  1.00  0.00     0.027 A 
ATOM     10  C   UNL     1     -18.456 -42.258  25.099  1.00  0.00     0.024 A 
ATOM     11  C   UNL     1     -15.003 -43.953  24.505  1.00  0.00     0.039 C 
ATOM     12  C   UNL     1     -13.781 -43.976  26.700  1.00  0.00     0.007 C 
ATOM     13  C   UNL     1     -20.739 -41.548  26.573  1.00  0.00     0.002 A 
ATOM     14  C   UNL     1     -19.701 -42.140  24.471  1.00  0.00     0.012 A 
ATOM     15  C   UNL     1     -14.126 -44.776  25.450  1.00  0.00     0.005 C 
ATOM     16  C   UNL     1     -20.836 -41.779  25.205  1.00  0.00     0.001 A 
ATOM     17  H   UNL     1     -17.222 -42.431  28.182  1.00  0.00     0.166 HD
ENDBRANCH   2   3
ENDBRANCH   1   2
BRANCH   1  18
ATOM     18  C   UNL     1     -16.942 -40.512  21.595  1.00  0.00     0.139 C 
BRANCH  18  19
ATOM     19  N   UNL     1     -18.363 -40.706  21.827  1.00  0.00    -0.350 N 
ATOM     20  C   UNL     1     -19.294 -40.233  20.927  1.00  0.00     0.251 C 
ATOM     21  H   UNL     1     -18.616 -40.697  22.808  1.00  0.00     0.163 HD
ATOM     22  O   UNL     1     -19.005 -39.785  19.823  1.00  0.00    -0.269 OA
BRANCH  20  23
ATOM     23  C   UNL     1     -20.715 -40.248  21.380  1.00  0.00     0.040 A 
ATOM     24  C   UNL     1     -21.452 -41.432  21.223  1.00  0.00     0.017 A 
ATOM     25  C   UNL     1     -21.317 -39.129  21.974  1.00  0.00     0.017 A 
ATOM     26  C   UNL     1     -22.785 -41.489  21.636  1.00  0.00     0.040 A 
ATOM     27  C   UNL     1     -22.651 -39.191  22.385  1.00  0.00     0.040 A 
ATOM     28  C   UNL     1     -23.371 -40.368  22.209  1.00  0.00     0.123 A 
ATOM     29  F   UNL     1     -24.650 -40.423  22.606  1.00  0.00    -0.207 F 
ENDBRANCH  20  23
ENDBRANCH  18  19
ENDBRANCH   1  18
TORSDOF 5
ENDMDL
MODEL 8
REMARK VINA RESULT:   -10.016      3.504      9.152
REMARK INTER + INTRA:         -13.390
REMARK INTER:                 -13.271
REMARK INTRA:                  -0.119
REMARK UNBOUND:                -0.446
REMARK SMILES O=C(NCCN=c1c2c([nH]c3ccccc13)CCCC2)c1ccc(F)cc1
REMARK SMILES IDX 5 1 6 2 7 3 10 4 9 5 11 6 8 7 17 8 12 9 16 10 20 11 18 12
REMARK SMILES IDX 13 13 15 14 19 15 14 16 4 18 3 19 2 20 1 22 21 23 22 24
REMARK SMILES IDX 27 25 23 26 26 27 24 28 25 29
REMARK H PARENT 10 17 3 21
ROOT
ATOM      1  C   UNL     1     -14.788 -44.038  25.084  1.00  0.00     0.164 C 
ENDROOT
BRANCH   1   2
ATOM      2  N   UNL     1     -15.578 -43.004  24.428  1.00  0.00    -0.282 NA
BRANCH   2   3
ATOM      3  C   UNL     1     -16.699 -42.536  24.869  1.00  0.00     0.072 A 
ATOM      4  N   UNL     1     -19.468 -42.236  25.289  1.00  0.00    -0.358 N 
ATOM      5  C   UNL     1     -18.914 -41.801  24.101  1.00  0.00     0.021 A 
ATOM      6  C   UNL     1     -18.651 -42.460  26.410  1.00  0.00     0.048 A 
ATOM      7  C   UNL     1     -17.594 -41.886  23.842  1.00  0.00    -0.003 A 
ATOM      8  C   UNL     1     -19.876 -41.227  23.084  1.00  0.00     0.054 C 
ATOM      9  C   UNL     1     -19.231 -42.585  27.680  1.00  0.00     0.027 A 
ATOM     10  C   UNL     1     -17.256 -42.586  26.263  1.00  0.00     0.024 A 
ATOM     11  C   UNL     1     -16.959 -41.417  22.561  1.00  0.00     0.039 C 
ATOM     12  C   UNL     1     -19.289 -41.098  21.677  1.00  0.00     0.007 C 
ATOM     13  C   UNL     1     -18.429 -42.748  28.809  1.00  0.00     0.002 A 
ATOM     14  C   UNL     1     -16.460 -42.691  27.409  1.00  0.00     0.012 A 
ATOM     15  C   UNL     1     -17.879 -40.525  21.727  1.00  0.00     0.005 C 
ATOM     16  C   UNL     1     -17.045 -42.780  28.676  1.00  0.00     0.001 A 
ATOM     17  H   UNL     1     -20.423 -41.950  25.474  1.00  0.00     0.166 HD
ENDBRANCH   2   3
ENDBRANCH   1   2
BRANCH   1  18
ATOM     18  C   UNL     1     -13.554 -43.376  25.714  1.00  0.00     0.139 C 
BRANCH  18  19
ATOM     19  N   UNL     1     -13.107 -44.105  26.890  1.00  0.00    -0.350 N 
ATOM     20  C   UNL     1     -12.163 -43.563  27.736  1.00  0.00     0.251 C 
ATOM     21  H   UNL     1     -13.097 -45.109  26.761  1.00  0.00     0.163 HD
ATOM     22  O   UNL     1     -11.771 -42.404  27.663  1.00  0.00    -0.269 OA
BRANCH  20  23
ATOM     23  C   UNL     1     -11.584 -44.487  28.753  1.00  0.00     0.040 A 
ATOM     24  C   UNL     1     -11.941 -44.306  30.098  1.00  0.00     0.017 A 
ATOM     25  C   UNL     1     -10.721 -45.535  28.399  1.00  0.00     0.017 A 
ATOM     26  C   UNL     1     -11.422 -45.150  31.082  1.00  0.00     0.040 A 
ATOM     27  C   UNL     1     -10.204 -46.378  29.387  1.00  0.00     0.040 A 
ATOM     28  C   UNL     1     -10.557 -46.174  30.717  1.00  0.00     0.123 A 
ATOM     29  F   UNL     1     -10.060 -46.985  31.661  1.00  0.00    -0.207 F 
ENDBRANCH  20  23
ENDBRANCH  18  19
ENDBRANCH   1  18
TORSDOF 5
ENDMDL
MODEL 9
REMARK VINA RESULT:    -9.631      6.220      9.465
REMARK INTER + INTRA:         -12.892
REMARK INTER:                 -12.122
REMARK INTRA:                  -0.770
REMARK UNBOUND:                -0.446
REMARK SMILES O=C(NCCN=c1c2c([nH]c3ccccc13)CCCC2)c1ccc(F)cc1
REMARK SMILES IDX 5 1 6 2 7 3 10 4 9 5 11 6 8 7 17 8 12 9 16 10 20 11 18 12
REMARK SMILES IDX 13 13 15 14 19 15 14 16 4 18 3 19 2 20 1 22 21 23 22 24
REMARK SMILES IDX 27 25 23 26 26 27 24 28 25 29
REMARK H PARENT 10 17 3 21
ROOT
ATOM      1  C   UNL     1     -17.090 -40.951  22.192  1.00  0.00     0.164 C 
ENDROOT
BRANCH   1   2
ATOM      2  N   UNL     1     -17.565 -42.204  22.767  1.00  0.00    -0.282 NA
BRANCH   2   3
ATOM      3  C   UNL     1     -17.723 -42.427  24.030  1.00  0.00     0.072 A 
ATOM      4  N   UNL     1     -17.449 -42.186  26.823  1.00  0.00    -0.358 N 
ATOM      5  C   UNL     1     -16.446 -42.795  26.097  1.00  0.00     0.021 A 
ATOM      6  C   UNL     1     -18.733 -42.038  26.271  1.00  0.00     0.048 A 
ATOM      7  C   UNL     1     -16.521 -42.971  24.762  1.00  0.00    -0.003 A 
ATOM      8  C   UNL     1     -15.235 -43.252  26.879  1.00  0.00     0.054 C 
ATOM      9  C   UNL     1     -19.817 -41.722  27.102  1.00  0.00     0.027 A 
ATOM     10  C   UNL     1     -18.934 -42.180  24.884  1.00  0.00     0.024 A 
ATOM     11  C   UNL     1     -15.448 -43.635  23.942  1.00  0.00     0.039 C 
ATOM     12  C   UNL     1     -14.021 -43.583  26.009  1.00  0.00     0.007 C 
ATOM     13  C   UNL     1     -21.106 -41.631  26.578  1.00  0.00     0.002 A 
ATOM     14  C   UNL     1     -20.239 -42.145  24.381  1.00  0.00     0.012 A 
ATOM     15  C   UNL     1     -14.431 -44.400  24.791  1.00  0.00     0.005 C 
ATOM     16  C   UNL     1     -21.319 -41.863  25.224  1.00  0.00     0.001 A 
ATOM     17  H   UNL     1     -17.398 -42.279  27.831  1.00  0.00     0.166 HD
ENDBRANCH   2   3
ENDBRANCH   1   2
BRANCH   1  18
ATOM     18  C   UNL     1     -18.306 -40.158  21.692  1.00  0.00     0.139 C 
BRANCH  18  19
ATOM     19  N   UNL     1     -19.326 -41.042  21.153  1.00  0.00    -0.350 N 
ATOM     20  C   UNL     1     -20.110 -40.645  20.092  1.00  0.00     0.251 C 
ATOM     21  H   UNL     1     -19.753 -41.638  21.852  1.00  0.00     0.163 HD
ATOM     22  O   UNL     1     -19.903 -39.630  19.436  1.00  0.00    -0.269 OA
BRANCH  20  23
ATOM     23  C   UNL     1     -21.290 -41.505  19.787  1.00  0.00     0.040 A 
ATOM     24  C   UNL     1     -22.396 -40.919  19.152  1.00  0.00     0.017 A 
ATOM     25  C   UNL     1     -21.310 -42.874  20.094  1.00  0.00     0.017 A 
ATOM     26  C   UNL     1     -23.520 -41.690  18.847  1.00  0.00     0.040 A 
ATOM     27  C   UNL     1     -22.438 -43.641  19.786  1.00  0.00     0.040 A 
ATOM     28  C   UNL     1     -23.531 -43.041  19.171  1.00  0.00     0.123 A 
ATOM     29  F   UNL     1     -24.609 -43.781  18.878  1.00  0.00    -0.207 F 
ENDBRANCH  20  23
ENDBRANCH  18  19
ENDBRANCH   1  18
TORSDOF 5
ENDMDL
