MODEL 1
REMARK VINA RESULT:   -10.194      0.000      0.000
REMARK INTER + INTRA:         -11.373
REMARK INTER:                 -11.088
REMARK INTRA:                  -0.285
REMARK UNBOUND:                -0.285
REMARK SMILES O=c1c(O)c(-c2ccc(F)cc2)oc2cc(F)c(I)cc12
REMARK SMILES IDX 1 1 2 2 3 3 5 4 13 5 14 6 15 7 16 8 17 9 18 10 19 11 20 12
REMARK SMILES IDX 21 13 4 14 6 16 7 17 12 18 8 19 11 20 9 21 10 22
REMARK H PARENT 4 15
ROOT
ATOM      1  O   UNL     1     -16.672 -43.106  22.793  1.00  0.00    -0.285 OA
ATOM      2  C   UNL     1     -16.553 -43.032  24.011  1.00  0.00     0.235 A 
ATOM      3  C   UNL     1     -15.288 -43.454  24.660  1.00  0.00     0.208 A 
ATOM      4  C   UNL     1     -15.186 -43.366  25.999  1.00  0.00     0.180 A 
ATOM      5  O   UNL     1     -16.205 -42.909  26.826  1.00  0.00    -0.452 OA
ATOM      6  C   UNL     1     -17.385 -42.501  26.261  1.00  0.00     0.141 A 
ATOM      7  C   UNL     1     -18.376 -42.036  27.123  1.00  0.00     0.088 A 
ATOM      8  C   UNL     1     -19.595 -41.610  26.599  1.00  0.00     0.140 A 
ATOM      9  F   UNL     1     -20.531 -41.167  27.450  1.00  0.00    -0.206 F 
ATOM     10  C   UNL     1     -19.833 -41.644  25.223  1.00  0.00     0.050 A 
ATOM     11  I   UNL     1     -21.652 -41.008  24.444  1.00  0.00    -0.041 I 
ATOM     12  C   UNL     1     -18.842 -42.108  24.357  1.00  0.00     0.034 A 
ATOM     13  C   UNL     1     -17.619 -42.535  24.889  1.00  0.00     0.070 A 
ENDROOT
BRANCH   3  14
ATOM     14  O   UNL     1     -14.290 -43.933  23.831  1.00  0.00    -0.502 OA
ATOM     15  H   UNL     1     -13.556 -43.287  23.915  1.00  0.00     0.293 HD
ENDBRANCH   3  14
BRANCH   4  16
ATOM     16  C   UNL     1     -13.976 -43.770  26.747  1.00  0.00     0.021 A 
ATOM     17  C   UNL     1     -12.929 -42.848  26.926  1.00  0.00     0.015 A 
ATOM     18  C   UNL     1     -13.822 -45.070  27.253  1.00  0.00     0.015 A 
ATOM     19  C   UNL     1     -11.766 -43.216  27.608  1.00  0.00     0.040 A 
ATOM     20  C   UNL     1     -12.658 -45.437  27.935  1.00  0.00     0.040 A 
ATOM     21  C   UNL     1     -11.642 -44.506  28.108  1.00  0.00     0.123 A 
ATOM     22  F   UNL     1     -10.528 -44.858  28.760  1.00  0.00    -0.207 F 
ENDBRANCH   4  16
TORSDOF 2
ENDMDL
MODEL 2
REMARK VINA RESULT:    -9.672      2.606      3.407
REMARK INTER + INTRA:         -10.806
REMARK INTER:                 -10.712
REMARK INTRA:                  -0.094
REMARK UNBOUND:                -0.285
REMARK SMILES O=c1c(O)c(-c2ccc(F)cc2)oc2cc(F)c(I)cc12
REMARK SMILES IDX 1 1 2 2 3 3 5 4 13 5 14 6 15 7 16 8 17 9 18 10 19 11 20 12
REMARK SMILES IDX 21 13 4 14 6 16 7 17 12 18 8 19 11 20 9 21 10 22
REMARK H PARENT 4 15
ROOT
ATOM      1  O   UNL     1     -16.240 -40.343  21.301  1.00  0.00    -0.285 OA
ATOM      2  C   UNL     1     -16.781 -41.009  22.177  1.00  0.00     0.235 A 
ATOM      3  C   UNL     1     -15.962 -41.640  23.240  1.00  0.00     0.208 A 
ATOM      4  C   UNL     1     -16.581 -42.369  24.187  1.00  0.00     0.180 A 
ATOM      5  O   UNL     1     -17.954 -42.581  24.229  1.00  0.00    -0.452 OA
ATOM      6  C   UNL     1     -18.744 -42.004  23.269  1.00  0.00     0.141 A 
ATOM      7  C   UNL     1     -20.116 -42.227  23.355  1.00  0.00     0.088 A 
ATOM      8  C   UNL     1     -20.963 -41.665  22.402  1.00  0.00     0.140 A 
ATOM      9  F   UNL     1     -22.279 -41.895  22.507  1.00  0.00    -0.206 F 
ATOM     10  C   UNL     1     -20.452 -40.880  21.365  1.00  0.00     0.050 A 
ATOM     11  I   UNL     1     -21.717 -40.042  19.945  1.00  0.00    -0.041 I 
ATOM     12  C   UNL     1     -19.077 -40.654  21.277  1.00  0.00     0.034 A 
ATOM     13  C   UNL     1     -18.231 -41.222  22.237  1.00  0.00     0.070 A 
ENDROOT
BRANCH   3  14
ATOM     14  O   UNL     1     -14.594 -41.447  23.174  1.00  0.00    -0.502 OA
ATOM     15  H   UNL     1     -14.472 -40.473  23.191  1.00  0.00     0.293 HD
ENDBRANCH   3  14
BRANCH   4  16
ATOM     16  C   UNL     1     -15.860 -43.050  25.284  1.00  0.00     0.021 A 
ATOM     17  C   UNL     1     -16.178 -42.746  26.620  1.00  0.00     0.015 A 
ATOM     18  C   UNL     1     -14.831 -43.971  25.030  1.00  0.00     0.015 A 
ATOM     19  C   UNL     1     -15.493 -43.359  27.672  1.00  0.00     0.040 A 
ATOM     20  C   UNL     1     -14.146 -44.584  26.084  1.00  0.00     0.040 A 
ATOM     21  C   UNL     1     -14.485 -44.273  27.394  1.00  0.00     0.123 A 
ATOM     22  F   UNL     1     -13.828 -44.859  28.403  1.00  0.00    -0.207 F 
ENDBRANCH   4  16
TORSDOF 2
ENDMDL
MODEL 3
REMARK VINA RESULT:    -9.538      2.053      3.281
REMARK INTER + INTRA:         -10.660
REMARK INTER:                 -10.377
REMARK INTRA:                  -0.283
REMARK UNBOUND:                -0.285
REMARK SMILES O=c1c(O)c(-c2ccc(F)cc2)oc2cc(F)c(I)cc12
REMARK SMILES IDX 1 1 2 2 3 3 5 4 13 5 14 6 15 7 16 8 17 9 18 10 19 11 20 12
REMARK SMILES IDX 21 13 4 14 6 16 7 17 12 18 8 19 11 20 9 21 10 22
REMARK H PARENT 4 15
ROOT
ATOM      1  O   UNL     1     -17.609 -42.691  28.486  1.00  0.00    -0.285 OA
ATOM      2  C   UNL     1     -16.740 -43.002  27.679  1.00  0.00     0.235 A 
ATOM      3  C   UNL     1     -15.472 -43.608  28.151  1.00  0.00     0.208 A 
ATOM      4  C   UNL     1     -14.533 -43.936  27.243  1.00  0.00     0.180 A 
ATOM      5  O   UNL     1     -14.672 -43.731  25.875  1.00  0.00    -0.452 OA
ATOM      6  C   UNL     1     -15.835 -43.183  25.402  1.00  0.00     0.141 A 
ATOM      7  C   UNL     1     -15.941 -43.008  24.024  1.00  0.00     0.088 A 
ATOM      8  C   UNL     1     -17.103 -42.452  23.491  1.00  0.00     0.140 A 
ATOM      9  F   UNL     1     -17.179 -42.294  22.162  1.00  0.00    -0.206 F 
ATOM     10  C   UNL     1     -18.159 -42.070  24.322  1.00  0.00     0.050 A 
ATOM     11  I   UNL     1     -19.891 -41.242  23.525  1.00  0.00    -0.041 I 
ATOM     12  C   UNL     1     -18.056 -42.245  25.703  1.00  0.00     0.034 A 
ATOM     13  C   UNL     1     -16.886 -42.804  26.233  1.00  0.00     0.070 A 
ENDROOT
BRANCH   3  14
ATOM     14  O   UNL     1     -15.332 -43.783  29.516  1.00  0.00    -0.502 OA
ATOM     15  H   UNL     1     -16.233 -43.659  29.883  1.00  0.00     0.293 HD
ENDBRANCH   3  14
BRANCH   4  16
ATOM     16  C   UNL     1     -13.231 -44.535  27.606  1.00  0.00     0.021 A 
ATOM     17  C   UNL     1     -13.070 -45.931  27.560  1.00  0.00     0.015 A 
ATOM     18  C   UNL     1     -12.151 -43.747  28.037  1.00  0.00     0.015 A 
ATOM     19  C   UNL     1     -11.856 -46.521  27.922  1.00  0.00     0.040 A 
ATOM     20  C   UNL     1     -10.937 -44.337  28.398  1.00  0.00     0.040 A 
ATOM     21  C   UNL     1     -10.800 -45.718  28.336  1.00  0.00     0.123 A 
ATOM     22  F   UNL     1      -9.637 -46.283  28.683  1.00  0.00    -0.207 F 
ENDBRANCH   4  16
TORSDOF 2
ENDMDL
MODEL 4
REMARK VINA RESULT:    -8.614      2.187      3.359
REMARK INTER + INTRA:          -9.654
REMARK INTER:                 -10.029
REMARK INTRA:                   0.375
REMARK UNBOUND:                -0.285
REMARK SMILES O=c1c(O)c(-c2ccc(F)cc2)oc2cc(F)c(I)cc12
REMARK SMILES IDX 1 1 2 2 3 3 5 4 13 5 14 6 15 7 16 8 17 9 18 10 19 11 20 12
REMARK SMILES IDX 21 13 4 14 6 16 7 17 12 18 8 19 11 20 9 21 10 22
REMARK H PARENT 4 15
ROOT
ATOM      1  O   UNL     1     -20.209 -41.676  22.124  1.00  0.00    -0.285 OA
ATOM      2  C   UNL     1     -19.819 -41.745  23.285  1.00  0.00     0.235 A 
ATOM      3  C   UNL     1     -18.470 -42.283  23.583  1.00  0.00     0.208 A 
ATOM      4  C   UNL     1     -18.070 -42.351  24.867  1.00  0.00     0.180 A 
ATOM      5  O   UNL     1     -18.852 -41.955  25.945  1.00  0.00    -0.452 OA
ATOM      6  C   UNL     1     -20.100 -41.442  25.707  1.00  0.00     0.141 A 
ATOM      7  C   UNL     1     -20.846 -41.042  26.812  1.00  0.00     0.088 A 
ATOM      8  C   UNL     1     -22.123 -40.516  26.625  1.00  0.00     0.140 A 
ATOM      9  F   UNL     1     -22.819 -40.139  27.706  1.00  0.00    -0.206 F 
ATOM     10  C   UNL     1     -22.660 -40.385  25.341  1.00  0.00     0.050 A 
ATOM     11  I   UNL     1     -24.565 -39.600  25.063  1.00  0.00    -0.041 I 
ATOM     12  C   UNL     1     -21.915 -40.784  24.231  1.00  0.00     0.034 A 
ATOM     13  C   UNL     1     -20.632 -41.312  24.426  1.00  0.00     0.070 A 
ENDROOT
BRANCH   3  14
ATOM     14  O   UNL     1     -17.710 -42.701  22.506  1.00  0.00    -0.502 OA
ATOM     15  H   UNL     1     -17.635 -41.913  21.926  1.00  0.00     0.293 HD
ENDBRANCH   3  14
BRANCH   4  16
ATOM     16  C   UNL     1     -16.751 -42.880  25.276  1.00  0.00     0.021 A 
ATOM     17  C   UNL     1     -16.401 -42.901  26.638  1.00  0.00     0.015 A 
ATOM     18  C   UNL     1     -15.812 -43.330  24.333  1.00  0.00     0.015 A 
ATOM     19  C   UNL     1     -15.151 -43.374  27.045  1.00  0.00     0.040 A 
ATOM     20  C   UNL     1     -14.562 -43.803  24.741  1.00  0.00     0.040 A 
ATOM     21  C   UNL     1     -14.244 -43.822  26.093  1.00  0.00     0.123 A 
ATOM     22  F   UNL     1     -13.046 -44.274  26.483  1.00  0.00    -0.207 F 
ENDBRANCH   4  16
TORSDOF 2
ENDMDL
MODEL 5
REMARK VINA RESULT:    -8.599      3.278      4.646
REMARK INTER + INTRA:          -9.638
REMARK INTER:                  -9.832
REMARK INTRA:                   0.194
REMARK UNBOUND:                -0.285
REMARK SMILES O=c1c(O)c(-c2ccc(F)cc2)oc2cc(F)c(I)cc12
REMARK SMILES IDX 1 1 2 2 3 3 5 4 13 5 14 6 15 7 16 8 17 9 18 10 19 11 20 12
REMARK SMILES IDX 21 13 4 14 6 16 7 17 12 18 8 19 11 20 9 21 10 22
REMARK H PARENT 4 15
ROOT
ATOM      1  O   UNL     1     -21.324 -41.167  25.306  1.00  0.00    -0.285 OA
ATOM      2  C   UNL     1     -20.280 -41.272  24.671  1.00  0.00     0.235 A 
ATOM      3  C   UNL     1     -19.111 -41.955  25.275  1.00  0.00     0.208 A 
ATOM      4  C   UNL     1     -17.976 -42.053  24.558  1.00  0.00     0.180 A 
ATOM      5  O   UNL     1     -17.822 -41.539  23.276  1.00  0.00    -0.452 OA
ATOM      6  C   UNL     1     -18.885 -40.911  22.681  1.00  0.00     0.141 A 
ATOM      7  C   UNL     1     -18.696 -40.424  21.390  1.00  0.00     0.088 A 
ATOM      8  C   UNL     1     -19.745 -39.774  20.742  1.00  0.00     0.140 A 
ATOM      9  F   UNL     1     -19.536 -39.315  19.500  1.00  0.00    -0.206 F 
ATOM     10  C   UNL     1     -20.981 -39.608  21.371  1.00  0.00     0.050 A 
ATOM     11  I   UNL     1     -22.544 -38.640  20.402  1.00  0.00    -0.041 I 
ATOM     12  C   UNL     1     -21.174 -40.096  22.664  1.00  0.00     0.034 A 
ATOM     13  C   UNL     1     -20.116 -40.748  23.311  1.00  0.00     0.070 A 
ENDROOT
BRANCH   3  14
ATOM     14  O   UNL     1     -19.265 -42.439  26.562  1.00  0.00    -0.502 OA
ATOM     15  H   UNL     1     -18.382 -42.341  26.979  1.00  0.00     0.293 HD
ENDBRANCH   3  14
BRANCH   4  16
ATOM     16  C   UNL     1     -16.750 -42.703  25.068  1.00  0.00     0.021 A 
ATOM     17  C   UNL     1     -15.893 -43.370  24.175  1.00  0.00     0.015 A 
ATOM     18  C   UNL     1     -16.433 -42.709  26.436  1.00  0.00     0.015 A 
ATOM     19  C   UNL     1     -14.741 -44.013  24.638  1.00  0.00     0.040 A 
ATOM     20  C   UNL     1     -15.281 -43.351  26.898  1.00  0.00     0.040 A 
ATOM     21  C   UNL     1     -14.446 -43.995  25.995  1.00  0.00     0.123 A 
ATOM     22  F   UNL     1     -13.343 -44.612  26.439  1.00  0.00    -0.207 F 
ENDBRANCH   4  16
TORSDOF 2
ENDMDL
MODEL 6
REMARK VINA RESULT:    -8.504      2.994      6.819
REMARK INTER + INTRA:          -9.535
REMARK INTER:                  -9.894
REMARK INTRA:                   0.359
REMARK UNBOUND:                -0.285
REMARK SMILES O=c1c(O)c(-c2ccc(F)cc2)oc2cc(F)c(I)cc12
REMARK SMILES IDX 1 1 2 2 3 3 5 4 13 5 14 6 15 7 16 8 17 9 18 10 19 11 20 12
REMARK SMILES IDX 21 13 4 14 6 16 7 17 12 18 8 19 11 20 9 21 10 22
REMARK H PARENT 4 15
ROOT
ATOM      1  O   UNL     1     -14.265 -43.616  24.078  1.00  0.00    -0.285 OA
ATOM      2  C   UNL     1     -15.042 -43.433  25.009  1.00  0.00     0.235 A 
ATOM      3  C   UNL     1     -16.368 -42.819  24.757  1.00  0.00     0.208 A 
ATOM      4  C   UNL     1     -17.200 -42.626  25.798  1.00  0.00     0.180 A 
ATOM      5  O   UNL     1     -16.889 -42.959  27.111  1.00  0.00    -0.452 OA
ATOM      6  C   UNL     1     -15.677 -43.538  27.380  1.00  0.00     0.141 A 
ATOM      7  C   UNL     1     -15.410 -43.871  28.706  1.00  0.00     0.088 A 
ATOM      8  C   UNL     1     -14.190 -44.460  29.033  1.00  0.00     0.140 A 
ATOM      9  F   UNL     1     -13.959 -44.770  30.316  1.00  0.00    -0.206 F 
ATOM     10  C   UNL     1     -13.235 -44.721  28.047  1.00  0.00     0.050 A 
ATOM     11  I   UNL     1     -11.417 -45.602  28.536  1.00  0.00    -0.041 I 
ATOM     12  C   UNL     1     -13.501 -44.390  26.717  1.00  0.00     0.034 A 
ATOM     13  C   UNL     1     -14.728 -43.798  26.394  1.00  0.00     0.070 A 
ENDROOT
BRANCH   3  14
ATOM     14  O   UNL     1     -16.657 -42.466  23.452  1.00  0.00    -0.502 OA
ATOM     15  H   UNL     1     -16.914 -41.520  23.494  1.00  0.00     0.293 HD
ENDBRANCH   3  14
BRANCH   4  16
ATOM     16  C   UNL     1     -18.539 -42.013  25.661  1.00  0.00     0.021 A 
ATOM     17  C   UNL     1     -19.298 -41.734  26.811  1.00  0.00     0.015 A 
ATOM     18  C   UNL     1     -19.096 -41.734  24.403  1.00  0.00     0.015 A 
ATOM     19  C   UNL     1     -20.575 -41.177  26.704  1.00  0.00     0.040 A 
ATOM     20  C   UNL     1     -20.374 -41.177  24.296  1.00  0.00     0.040 A 
ATOM     21  C   UNL     1     -21.100 -40.902  25.448  1.00  0.00     0.123 A 
ATOM     22  F   UNL     1     -22.324 -40.370  25.346  1.00  0.00    -0.207 F 
ENDBRANCH   4  16
TORSDOF 2
ENDMDL
MODEL 7
REMARK VINA RESULT:    -8.417      4.128      8.167
REMARK INTER + INTRA:          -9.440
REMARK INTER:                  -9.166
REMARK INTRA:                  -0.274
REMARK UNBOUND:                -0.285
REMARK SMILES O=c1c(O)c(-c2ccc(F)cc2)oc2cc(F)c(I)cc12
REMARK SMILES IDX 1 1 2 2 3 3 5 4 13 5 14 6 15 7 16 8 17 9 18 10 19 11 20 12
REMARK SMILES IDX 21 13 4 14 6 16 7 17 12 18 8 19 11 20 9 21 10 22
REMARK H PARENT 4 15
ROOT
ATOM      1  O   UNL     1     -19.422 -42.101  26.715  1.00  0.00    -0.285 OA
ATOM      2  C   UNL     1     -18.963 -41.994  25.583  1.00  0.00     0.235 A 
ATOM      3  C   UNL     1     -19.797 -41.425  24.497  1.00  0.00     0.208 A 
ATOM      4  C   UNL     1     -19.270 -41.323  23.262  1.00  0.00     0.180 A 
ATOM      5  O   UNL     1     -17.983 -41.730  22.932  1.00  0.00    -0.452 OA
ATOM      6  C   UNL     1     -17.180 -42.251  23.913  1.00  0.00     0.141 A 
ATOM      7  C   UNL     1     -15.892 -42.633  23.545  1.00  0.00     0.088 A 
ATOM      8  C   UNL     1     -15.036 -43.170  24.505  1.00  0.00     0.140 A 
ATOM      9  F   UNL     1     -13.802 -43.529  24.124  1.00  0.00    -0.206 F 
ATOM     10  C   UNL     1     -15.454 -43.328  25.828  1.00  0.00     0.050 A 
ATOM     11  I   UNL     1     -14.175 -44.128  27.258  1.00  0.00    -0.041 I 
ATOM     12  C   UNL     1     -16.744 -42.945  26.200  1.00  0.00     0.034 A 
ATOM     13  C   UNL     1     -17.600 -42.406  25.231  1.00  0.00     0.070 A 
ENDROOT
BRANCH   3  14
ATOM     14  O   UNL     1     -21.086 -41.049  24.829  1.00  0.00    -0.502 OA
ATOM     15  H   UNL     1     -21.481 -40.724  23.991  1.00  0.00     0.293 HD
ENDBRANCH   3  14
BRANCH   4  16
ATOM     16  C   UNL     1     -20.016 -40.782  22.106  1.00  0.00     0.021 A 
ATOM     17  C   UNL     1     -20.550 -41.662  21.148  1.00  0.00     0.015 A 
ATOM     18  C   UNL     1     -20.175 -39.400  21.913  1.00  0.00     0.015 A 
ATOM     19  C   UNL     1     -21.238 -41.171  20.035  1.00  0.00     0.040 A 
ATOM     20  C   UNL     1     -20.863 -38.910  20.800  1.00  0.00     0.040 A 
ATOM     21  C   UNL     1     -21.390 -39.800  19.873  1.00  0.00     0.123 A 
ATOM     22  F   UNL     1     -22.048 -39.330  18.806  1.00  0.00    -0.207 F 
ENDBRANCH   4  16
TORSDOF 2
ENDMDL
MODEL 8
REMARK VINA RESULT:    -8.369      3.701      7.204
REMARK INTER + INTRA:          -9.389
REMARK INTER:                  -9.439
REMARK INTRA:                   0.050
REMARK UNBOUND:                -0.285
REMARK SMILES O=c1c(O)c(-c2ccc(F)cc2)oc2cc(F)c(I)cc12
REMARK SMILES IDX 1 1 2 2 3 3 5 4 13 5 14 6 15 7 16 8 17 9 18 10 19 11 20 12
REMARK SMILES IDX 21 13 4 14 6 16 7 17 12 18 8 19 11 20 9 21 10 22
REMARK H PARENT 4 15
ROOT
ATOM      1  O   UNL     1     -11.596 -43.001  26.539  1.00  0.00    -0.285 OA
ATOM      2  C   UNL     1     -12.624 -43.332  27.120  1.00  0.00     0.235 A 
ATOM      3  C   UNL     1     -13.941 -42.877  26.614  1.00  0.00     0.208 A 
ATOM      4  C   UNL     1     -15.053 -43.252  27.274  1.00  0.00     0.180 A 
ATOM      5  O   UNL     1     -15.047 -44.039  28.419  1.00  0.00    -0.452 OA
ATOM      6  C   UNL     1     -13.848 -44.488  28.909  1.00  0.00     0.141 A 
ATOM      7  C   UNL     1     -13.886 -45.287  30.049  1.00  0.00     0.088 A 
ATOM      8  C   UNL     1     -12.695 -45.767  30.589  1.00  0.00     0.140 A 
ATOM      9  F   UNL     1     -12.759 -46.534  31.687  1.00  0.00    -0.206 F 
ATOM     10  C   UNL     1     -11.466 -45.457  30.000  1.00  0.00     0.050 A 
ATOM     11  I   UNL     1      -9.690 -46.176  30.807  1.00  0.00    -0.041 I 
ATOM     12  C   UNL     1     -11.426 -44.658  28.857  1.00  0.00     0.034 A 
ATOM     13  C   UNL     1     -12.626 -44.177  28.319  1.00  0.00     0.070 A 
ENDROOT
BRANCH   3  14
ATOM     14  O   UNL     1     -13.935 -42.071  25.490  1.00  0.00    -0.502 OA
ATOM     15  H   UNL     1     -14.099 -42.680  24.738  1.00  0.00     0.293 HD
ENDBRANCH   3  14
BRANCH   4  16
ATOM     16  C   UNL     1     -16.414 -42.845  26.862  1.00  0.00     0.021 A 
ATOM     17  C   UNL     1     -17.358 -42.482  27.839  1.00  0.00     0.015 A 
ATOM     18  C   UNL     1     -16.808 -42.849  25.514  1.00  0.00     0.015 A 
ATOM     19  C   UNL     1     -18.657 -42.119  27.475  1.00  0.00     0.040 A 
ATOM     20  C   UNL     1     -18.107 -42.484  25.150  1.00  0.00     0.040 A 
ATOM     21  C   UNL     1     -19.018 -42.121  26.134  1.00  0.00     0.123 A 
ATOM     22  F   UNL     1     -20.263 -41.773  25.785  1.00  0.00    -0.207 F 
ENDBRANCH   4  16
TORSDOF 2
ENDMDL
MODEL 9
REMARK VINA RESULT:    -7.866      4.204      6.047
REMARK INTER + INTRA:          -8.841
REMARK INTER:                  -8.586
REMARK INTRA:                  -0.256
REMARK UNBOUND:                -0.285
REMARK SMILES O=c1c(O)c(-c2ccc(F)cc2)oc2cc(F)c(I)cc12
REMARK SMILES IDX 1 1 2 2 3 3 5 4 13 5 14 6 15 7 16 8 17 9 18 10 19 11 20 12
REMARK SMILES IDX 21 13 4 14 6 16 7 17 12 18 8 19 11 20 9 21 10 22
REMARK H PARENT 4 15
ROOT
ATOM      1  O   UNL     1     -22.576 -43.389  22.029  1.00  0.00    -0.285 OA
ATOM      2  C   UNL     1     -21.705 -42.580  22.333  1.00  0.00     0.235 A 
ATOM      3  C   UNL     1     -20.769 -42.880  23.442  1.00  0.00     0.208 A 
ATOM      4  C   UNL     1     -19.826 -41.973  23.757  1.00  0.00     0.180 A 
ATOM      5  O   UNL     1     -19.677 -40.752  23.109  1.00  0.00    -0.452 OA
ATOM      6  C   UNL     1     -20.517 -40.445  22.071  1.00  0.00     0.141 A 
ATOM      7  C   UNL     1     -20.325 -39.220  21.438  1.00  0.00     0.088 A 
ATOM      8  C   UNL     1     -21.155 -38.858  20.378  1.00  0.00     0.140 A 
ATOM      9  F   UNL     1     -20.949 -37.673  19.786  1.00  0.00    -0.206 F 
ATOM     10  C   UNL     1     -22.174 -39.711  19.945  1.00  0.00     0.050 A 
ATOM     11  I   UNL     1     -23.409 -39.170  18.363  1.00  0.00    -0.041 I 
ATOM     12  C   UNL     1     -22.368 -40.940  20.577  1.00  0.00     0.034 A 
ATOM     13  C   UNL     1     -21.531 -41.298  21.642  1.00  0.00     0.070 A 
ENDROOT
BRANCH   3  14
ATOM     14  O   UNL     1     -20.943 -44.085  24.099  1.00  0.00    -0.502 OA
ATOM     15  H   UNL     1     -20.061 -44.515  24.083  1.00  0.00     0.293 HD
ENDBRANCH   3  14
BRANCH   4  16
ATOM     16  C   UNL     1     -18.850 -42.166  24.852  1.00  0.00     0.021 A 
ATOM     17  C   UNL     1     -17.529 -42.539  24.548  1.00  0.00     0.015 A 
ATOM     18  C   UNL     1     -19.217 -42.026  26.200  1.00  0.00     0.015 A 
ATOM     19  C   UNL     1     -16.597 -42.751  25.568  1.00  0.00     0.040 A 
ATOM     20  C   UNL     1     -18.284 -42.237  27.219  1.00  0.00     0.040 A 
ATOM     21  C   UNL     1     -16.983 -42.596  26.893  1.00  0.00     0.123 A 
ATOM     22  F   UNL     1     -16.090 -42.800  27.869  1.00  0.00    -0.207 F 
ENDBRANCH   4  16
TORSDOF 2
ENDMDL
