MODEL 1
REMARK VINA RESULT:    -9.937      0.000      0.000
REMARK INTER + INTRA:         -10.228
REMARK INTER:                 -10.228
REMARK INTRA:                   0.000
REMARK UNBOUND:                 0.000
REMARK SMILES CC1=C[C@H]2Cc3nc4cc(Cl)ccc4c(N)c3[C@@H](C1)C2
REMARK SMILES IDX 15 1 17 2 6 3 7 4 8 5 9 6 10 7 11 8 12 9 13 10 14 11 5 12
REMARK SMILES IDX 4 13 3 14 2 15 1 16 19 17 18 18 20 19 16 20
REMARK H PARENT 16 21 16 22
ROOT
ATOM      1  C   UNL     1     -13.162 -45.573  27.676  1.00  0.00     0.046 A 
ATOM      2  C   UNL     1     -13.307 -45.468  29.075  1.00  0.00     0.001 A 
ATOM      3  C   UNL     1     -14.191 -44.499  29.568  1.00  0.00     0.047 A 
ATOM      4  N   UNL     1     -14.945 -43.709  28.768  1.00  0.00    -0.252 NA
ATOM      5  C   UNL     1     -14.870 -43.866  27.442  1.00  0.00     0.074 A 
ATOM      6  C   UNL     1     -15.692 -43.072  26.658  1.00  0.00     0.049 A 
ATOM      7  C   UNL     1     -15.702 -43.188  25.272  1.00  0.00     0.043 A 
ATOM      8  Cl  UNL     1     -16.740 -42.187  24.333  1.00  0.00    -0.084 Cl
ATOM      9  C   UNL     1     -14.885 -44.114  24.642  1.00  0.00     0.021 A 
ATOM     10  C   UNL     1     -14.047 -44.918  25.416  1.00  0.00     0.014 A 
ATOM     11  C   UNL     1     -14.010 -44.803  26.829  1.00  0.00     0.024 A 
ATOM     12  C   UNL     1     -14.428 -44.303  31.050  1.00  0.00     0.064 C 
ATOM     13  C   UNL     1     -13.421 -45.036  31.945  1.00  0.00     0.018 C 
ATOM     14  C   UNL     1     -12.109 -44.283  32.009  1.00  0.00    -0.024 C 
ATOM     15  C   UNL     1     -11.038 -44.612  31.264  1.00  0.00    -0.076 C 
ATOM     16  C   UNL     1      -9.739 -43.867  31.355  1.00  0.00     0.039 C 
ATOM     17  C   UNL     1     -11.088 -45.754  30.271  1.00  0.00     0.039 C 
ATOM     18  C   UNL     1     -12.506 -46.332  30.044  1.00  0.00     0.028 C 
ATOM     19  C   UNL     1     -13.220 -46.449  31.396  1.00  0.00     0.017 C 
ENDROOT
BRANCH   1  20
ATOM     20  N   UNL     1     -12.330 -46.578  27.124  1.00  0.00    -0.398 N 
ATOM     21  H   UNL     1     -12.177 -46.473  26.128  1.00  0.00     0.156 HD
ATOM     22  H   UNL     1     -11.446 -46.697  27.606  1.00  0.00     0.156 HD
ENDBRANCH   1  20
TORSDOF 1
ENDMDL
MODEL 2
REMARK VINA RESULT:    -9.741      4.454      8.066
REMARK INTER + INTRA:         -10.026
REMARK INTER:                 -10.026
REMARK INTRA:                   0.000
REMARK UNBOUND:                 0.000
REMARK SMILES CC1=C[C@H]2Cc3nc4cc(Cl)ccc4c(N)c3[C@@H](C1)C2
REMARK SMILES IDX 15 1 17 2 6 3 7 4 8 5 9 6 10 7 11 8 12 9 13 10 14 11 5 12
REMARK SMILES IDX 4 13 3 14 2 15 1 16 19 17 18 18 20 19 16 20
REMARK H PARENT 16 21 16 22
ROOT
ATOM      1  C   UNL     1     -17.818 -42.713  24.137  1.00  0.00     0.046 A 
ATOM      2  C   UNL     1     -18.906 -42.221  24.886  1.00  0.00     0.001 A 
ATOM      3  C   UNL     1     -18.739 -42.088  26.270  1.00  0.00     0.047 A 
ATOM      4  N   UNL     1     -17.572 -42.354  26.904  1.00  0.00    -0.252 NA
ATOM      5  C   UNL     1     -16.515 -42.741  26.183  1.00  0.00     0.074 A 
ATOM      6  C   UNL     1     -15.326 -42.958  26.861  1.00  0.00     0.049 A 
ATOM      7  C   UNL     1     -14.167 -43.333  26.188  1.00  0.00     0.043 A 
ATOM      8  Cl  UNL     1     -12.709 -43.589  27.064  1.00  0.00    -0.084 Cl
ATOM      9  C   UNL     1     -14.180 -43.493  24.811  1.00  0.00     0.021 A 
ATOM     10  C   UNL     1     -15.370 -43.284  24.113  1.00  0.00     0.014 A 
ATOM     11  C   UNL     1     -16.564 -42.917  24.783  1.00  0.00     0.024 A 
ATOM     12  C   UNL     1     -19.838 -41.566  27.170  1.00  0.00     0.064 C 
ATOM     13  C   UNL     1     -21.211 -41.477  26.491  1.00  0.00     0.018 C 
ATOM     14  C   UNL     1     -21.862 -42.842  26.413  1.00  0.00    -0.024 C 
ATOM     15  C   UNL     1     -21.837 -43.603  25.303  1.00  0.00    -0.076 C 
ATOM     16  C   UNL     1     -22.505 -44.945  25.237  1.00  0.00     0.039 C 
ATOM     17  C   UNL     1     -21.114 -43.151  24.051  1.00  0.00     0.039 C 
ATOM     18  C   UNL     1     -20.249 -41.882  24.245  1.00  0.00     0.028 C 
ATOM     19  C   UNL     1     -21.027 -40.872  25.098  1.00  0.00     0.017 C 
ENDROOT
BRANCH   1  20
ATOM     20  N   UNL     1     -17.913 -42.806  22.726  1.00  0.00    -0.398 N 
ATOM     21  H   UNL     1     -18.831 -43.086  22.401  1.00  0.00     0.156 HD
ATOM     22  H   UNL     1     -17.603 -41.977  22.233  1.00  0.00     0.156 HD
ENDBRANCH   1  20
TORSDOF 1
ENDMDL
MODEL 3
REMARK VINA RESULT:    -9.390      1.928      2.807
REMARK INTER + INTRA:          -9.664
REMARK INTER:                  -9.664
REMARK INTRA:                   0.000
REMARK UNBOUND:                 0.000
REMARK SMILES CC1=C[C@H]2Cc3nc4cc(Cl)ccc4c(N)c3[C@@H](C1)C2
REMARK SMILES IDX 15 1 17 2 6 3 7 4 8 5 9 6 10 7 11 8 12 9 13 10 14 11 5 12
REMARK SMILES IDX 4 13 3 14 2 15 1 16 19 17 18 18 20 19 16 20
REMARK H PARENT 16 21 16 22
ROOT
ATOM      1  C   UNL     1     -12.773 -45.168  29.350  1.00  0.00     0.046 A 
ATOM      2  C   UNL     1     -11.861 -44.512  30.202  1.00  0.00     0.001 A 
ATOM      3  C   UNL     1     -11.245 -43.347  29.726  1.00  0.00     0.047 A 
ATOM      4  N   UNL     1     -11.528 -42.800  28.521  1.00  0.00    -0.252 NA
ATOM      5  C   UNL     1     -12.454 -43.375  27.747  1.00  0.00     0.074 A 
ATOM      6  C   UNL     1     -12.750 -42.759  26.541  1.00  0.00     0.049 A 
ATOM      7  C   UNL     1     -13.721 -43.269  25.686  1.00  0.00     0.043 A 
ATOM      8  Cl  UNL     1     -14.063 -42.474  24.200  1.00  0.00    -0.084 Cl
ATOM      9  C   UNL     1     -14.423 -44.414  26.031  1.00  0.00     0.021 A 
ATOM     10  C   UNL     1     -14.134 -45.051  27.239  1.00  0.00     0.014 A 
ATOM     11  C   UNL     1     -13.136 -44.554  28.116  1.00  0.00     0.024 A 
ATOM     12  C   UNL     1     -10.254 -42.562  30.558  1.00  0.00     0.064 C 
ATOM     13  C   UNL     1      -9.775 -43.295  31.816  1.00  0.00     0.018 C 
ATOM     14  C   UNL     1      -8.729 -44.333  31.470  1.00  0.00    -0.024 C 
ATOM     15  C   UNL     1      -9.012 -45.642  31.333  1.00  0.00    -0.076 C 
ATOM     16  C   UNL     1      -7.959 -46.659  31.008  1.00  0.00     0.039 C 
ATOM     17  C   UNL     1     -10.425 -46.164  31.484  1.00  0.00     0.039 C 
ATOM     18  C   UNL     1     -11.502 -45.055  31.581  1.00  0.00     0.028 C 
ATOM     19  C   UNL     1     -10.986 -43.937  32.496  1.00  0.00     0.017 C 
ENDROOT
BRANCH   1  20
ATOM     20  N   UNL     1     -13.472 -46.312  29.806  1.00  0.00    -0.398 N 
ATOM     21  H   UNL     1     -12.978 -47.181  29.638  1.00  0.00     0.156 HD
ATOM     22  H   UNL     1     -13.771 -46.259  30.773  1.00  0.00     0.156 HD
ENDBRANCH   1  20
TORSDOF 1
ENDMDL
MODEL 4
REMARK VINA RESULT:    -9.385      3.604      6.731
REMARK INTER + INTRA:          -9.659
REMARK INTER:                  -9.659
REMARK INTRA:                   0.000
REMARK UNBOUND:                 0.000
REMARK SMILES CC1=C[C@H]2Cc3nc4cc(Cl)ccc4c(N)c3[C@@H](C1)C2
REMARK SMILES IDX 15 1 17 2 6 3 7 4 8 5 9 6 10 7 11 8 12 9 13 10 14 11 5 12
REMARK SMILES IDX 4 13 3 14 2 15 1 16 19 17 18 18 20 19 16 20
REMARK H PARENT 16 21 16 22
ROOT
ATOM      1  C   UNL     1     -11.928 -44.066  31.409  1.00  0.00     0.046 A 
ATOM      2  C   UNL     1     -12.062 -44.936  30.308  1.00  0.00     0.001 A 
ATOM      3  C   UNL     1     -10.891 -45.373  29.675  1.00  0.00     0.047 A 
ATOM      4  N   UNL     1      -9.650 -45.045  30.106  1.00  0.00    -0.252 NA
ATOM      5  C   UNL     1      -9.521 -44.288  31.200  1.00  0.00     0.074 A 
ATOM      6  C   UNL     1      -8.235 -44.013  31.638  1.00  0.00     0.049 A 
ATOM      7  C   UNL     1      -8.007 -43.258  32.784  1.00  0.00     0.043 A 
ATOM      8  Cl  UNL     1      -6.395 -42.942  33.298  1.00  0.00    -0.084 Cl
ATOM      9  C   UNL     1      -9.073 -42.767  33.521  1.00  0.00     0.021 A 
ATOM     10  C   UNL     1     -10.374 -43.029  33.092  1.00  0.00     0.014 A 
ATOM     11  C   UNL     1     -10.627 -43.783  31.917  1.00  0.00     0.024 A 
ATOM     12  C   UNL     1     -10.917 -46.311  28.488  1.00  0.00     0.064 C 
ATOM     13  C   UNL     1     -12.309 -46.501  27.873  1.00  0.00     0.018 C 
ATOM     14  C   UNL     1     -12.679 -45.318  27.003  1.00  0.00    -0.024 C 
ATOM     15  C   UNL     1     -13.471 -44.316  27.426  1.00  0.00    -0.076 C 
ATOM     16  C   UNL     1     -13.843 -43.161  26.543  1.00  0.00     0.039 C 
ATOM     17  C   UNL     1     -14.024 -44.288  28.836  1.00  0.00     0.039 C 
ATOM     18  C   UNL     1     -13.424 -45.366  29.771  1.00  0.00     0.028 C 
ATOM     19  C   UNL     1     -13.320 -46.691  29.005  1.00  0.00     0.017 C 
ENDROOT
BRANCH   1  20
ATOM     20  N   UNL     1     -13.077 -43.646  32.124  1.00  0.00    -0.398 N 
ATOM     21  H   UNL     1     -13.843 -43.361  31.525  1.00  0.00     0.156 HD
ATOM     22  H   UNL     1     -13.400 -44.309  32.818  1.00  0.00     0.156 HD
ENDBRANCH   1  20
TORSDOF 1
ENDMDL
MODEL 5
REMARK VINA RESULT:    -9.223      1.952      2.479
REMARK INTER + INTRA:          -9.492
REMARK INTER:                  -9.492
REMARK INTRA:                   0.000
REMARK UNBOUND:                 0.000
REMARK SMILES CC1=C[C@H]2Cc3nc4cc(Cl)ccc4c(N)c3[C@@H](C1)C2
REMARK SMILES IDX 15 1 17 2 6 3 7 4 8 5 9 6 10 7 11 8 12 9 13 10 14 11 5 12
REMARK SMILES IDX 4 13 3 14 2 15 1 16 19 17 18 18 20 19 16 20
REMARK H PARENT 16 21 16 22
ROOT
ATOM      1  C   UNL     1     -14.567 -44.023  26.809  1.00  0.00     0.046 A 
ATOM      2  C   UNL     1     -13.992 -44.512  28.000  1.00  0.00     0.001 A 
ATOM      3  C   UNL     1     -14.646 -44.225  29.206  1.00  0.00     0.047 A 
ATOM      4  N   UNL     1     -15.821 -43.556  29.270  1.00  0.00    -0.252 NA
ATOM      5  C   UNL     1     -16.409 -43.166  28.134  1.00  0.00     0.074 A 
ATOM      6  C   UNL     1     -17.634 -42.526  28.238  1.00  0.00     0.049 A 
ATOM      7  C   UNL     1     -18.332 -42.112  27.108  1.00  0.00     0.043 A 
ATOM      8  Cl  UNL     1     -19.853 -41.325  27.277  1.00  0.00    -0.084 Cl
ATOM      9  C   UNL     1     -17.812 -42.339  25.843  1.00  0.00     0.021 A 
ATOM     10  C   UNL     1     -16.577 -42.976  25.721  1.00  0.00     0.014 A 
ATOM     11  C   UNL     1     -15.843 -43.391  26.861  1.00  0.00     0.024 A 
ATOM     12  C   UNL     1     -14.120 -44.703  30.542  1.00  0.00     0.064 C 
ATOM     13  C   UNL     1     -12.693 -45.261  30.488  1.00  0.00     0.018 C 
ATOM     14  C   UNL     1     -11.678 -44.138  30.440  1.00  0.00    -0.024 C 
ATOM     15  C   UNL     1     -11.100 -43.720  29.299  1.00  0.00    -0.076 C 
ATOM     16  C   UNL     1     -10.082 -42.619  29.273  1.00  0.00     0.039 C 
ATOM     17  C   UNL     1     -11.462 -44.332  27.961  1.00  0.00     0.039 C 
ATOM     18  C   UNL     1     -12.679 -45.288  28.012  1.00  0.00     0.028 C 
ATOM     19  C   UNL     1     -12.570 -46.168  29.263  1.00  0.00     0.017 C 
ENDROOT
BRANCH   1  20
ATOM     20  N   UNL     1     -13.981 -44.340  25.558  1.00  0.00    -0.398 N 
ATOM     21  H   UNL     1     -13.101 -44.834  25.639  1.00  0.00     0.156 HD
ATOM     22  H   UNL     1     -14.601 -44.825  24.920  1.00  0.00     0.156 HD
ENDBRANCH   1  20
TORSDOF 1
ENDMDL
MODEL 6
REMARK VINA RESULT:    -9.050      4.303      5.911
REMARK INTER + INTRA:          -9.315
REMARK INTER:                  -9.315
REMARK INTRA:                   0.000
REMARK UNBOUND:                 0.000
REMARK SMILES CC1=C[C@H]2Cc3nc4cc(Cl)ccc4c(N)c3[C@@H](C1)C2
REMARK SMILES IDX 15 1 17 2 6 3 7 4 8 5 9 6 10 7 11 8 12 9 13 10 14 11 5 12
REMARK SMILES IDX 4 13 3 14 2 15 1 16 19 17 18 18 20 19 16 20
REMARK H PARENT 16 21 16 22
ROOT
ATOM      1  C   UNL     1     -12.523 -44.172  31.090  1.00  0.00     0.046 A 
ATOM      2  C   UNL     1     -11.125 -44.346  31.144  1.00  0.00     0.001 A 
ATOM      3  C   UNL     1     -10.416 -43.638  32.123  1.00  0.00     0.047 A 
ATOM      4  N   UNL     1     -11.015 -42.850  33.046  1.00  0.00    -0.252 NA
ATOM      5  C   UNL     1     -12.349 -42.750  33.048  1.00  0.00     0.074 A 
ATOM      6  C   UNL     1     -12.929 -41.971  34.037  1.00  0.00     0.049 A 
ATOM      7  C   UNL     1     -14.310 -41.835  34.134  1.00  0.00     0.043 A 
ATOM      8  Cl  UNL     1     -14.993 -40.863  35.379  1.00  0.00    -0.084 Cl
ATOM      9  C   UNL     1     -15.141 -42.488  33.237  1.00  0.00     0.021 A 
ATOM     10  C   UNL     1     -14.574 -43.272  32.232  1.00  0.00     0.014 A 
ATOM     11  C   UNL     1     -13.168 -43.410  32.107  1.00  0.00     0.024 A 
ATOM     12  C   UNL     1      -8.914 -43.753  32.274  1.00  0.00     0.064 C 
ATOM     13  C   UNL     1      -8.222 -44.463  31.104  1.00  0.00     0.018 C 
ATOM     14  C   UNL     1      -8.077 -43.532  29.920  1.00  0.00    -0.024 C 
ATOM     15  C   UNL     1      -8.919 -43.543  28.870  1.00  0.00    -0.076 C 
ATOM     16  C   UNL     1      -8.748 -42.627  27.695  1.00  0.00     0.039 C 
ATOM     17  C   UNL     1     -10.109 -44.480  28.823  1.00  0.00     0.039 C 
ATOM     18  C   UNL     1     -10.375 -45.230  30.151  1.00  0.00     0.028 C 
ATOM     19  C   UNL     1      -9.038 -45.703  30.735  1.00  0.00     0.017 C 
ENDROOT
BRANCH   1  20
ATOM     20  N   UNL     1     -13.294 -44.913  30.161  1.00  0.00    -0.398 N 
ATOM     21  H   UNL     1     -12.736 -45.494  29.546  1.00  0.00     0.156 HD
ATOM     22  H   UNL     1     -14.039 -45.457  30.579  1.00  0.00     0.156 HD
ENDBRANCH   1  20
TORSDOF 1
ENDMDL
MODEL 7
REMARK VINA RESULT:    -8.918      5.093      9.555
REMARK INTER + INTRA:          -9.179
REMARK INTER:                  -9.179
REMARK INTRA:                   0.000
REMARK UNBOUND:                 0.000
REMARK SMILES CC1=C[C@H]2Cc3nc4cc(Cl)ccc4c(N)c3[C@@H](C1)C2
REMARK SMILES IDX 15 1 17 2 6 3 7 4 8 5 9 6 10 7 11 8 12 9 13 10 14 11 5 12
REMARK SMILES IDX 4 13 3 14 2 15 1 16 19 17 18 18 20 19 16 20
REMARK H PARENT 16 21 16 22
ROOT
ATOM      1  C   UNL     1     -17.227 -41.339  22.721  1.00  0.00     0.046 A 
ATOM      2  C   UNL     1     -18.584 -41.032  22.950  1.00  0.00     0.001 A 
ATOM      3  C   UNL     1     -19.174 -41.518  24.124  1.00  0.00     0.047 A 
ATOM      4  N   UNL     1     -18.490 -42.213  25.063  1.00  0.00    -0.252 NA
ATOM      5  C   UNL     1     -17.183 -42.433  24.886  1.00  0.00     0.074 A 
ATOM      6  C   UNL     1     -16.508 -43.107  25.891  1.00  0.00     0.049 A 
ATOM      7  C   UNL     1     -15.141 -43.353  25.806  1.00  0.00     0.043 A 
ATOM      8  Cl  UNL     1     -14.337 -44.188  27.076  1.00  0.00    -0.084 Cl
ATOM      9  C   UNL     1     -14.421 -42.919  24.703  1.00  0.00     0.021 A 
ATOM     10  C   UNL     1     -15.086 -42.244  23.679  1.00  0.00     0.014 A 
ATOM     11  C   UNL     1     -16.481 -41.998  23.741  1.00  0.00     0.024 A 
ATOM     12  C   UNL     1     -20.621 -41.245  24.472  1.00  0.00     0.064 C 
ATOM     13  C   UNL     1     -21.441 -40.656  23.318  1.00  0.00     0.018 C 
ATOM     14  C   UNL     1     -21.835 -41.735  22.332  1.00  0.00    -0.024 C 
ATOM     15  C   UNL     1     -21.172 -41.956  21.182  1.00  0.00    -0.076 C 
ATOM     16  C   UNL     1     -21.589 -43.017  20.208  1.00  0.00     0.039 C 
ATOM     17  C   UNL     1     -19.944 -41.150  20.812  1.00  0.00     0.039 C 
ATOM     18  C   UNL     1     -19.419 -40.240  21.949  1.00  0.00     0.028 C 
ATOM     19  C   UNL     1     -20.611 -39.564  22.639  1.00  0.00     0.017 C 
ENDROOT
BRANCH   1  20
ATOM     20  N   UNL     1     -16.565 -40.818  21.582  1.00  0.00    -0.398 N 
ATOM     21  H   UNL     1     -16.685 -41.384  20.751  1.00  0.00     0.156 HD
ATOM     22  H   UNL     1     -16.783 -39.848  21.382  1.00  0.00     0.156 HD
ENDBRANCH   1  20
TORSDOF 1
ENDMDL
MODEL 8
REMARK VINA RESULT:    -8.722      3.352      5.893
REMARK INTER + INTRA:          -8.977
REMARK INTER:                  -8.977
REMARK INTRA:                   0.000
REMARK UNBOUND:                 0.000
REMARK SMILES CC1=C[C@H]2Cc3nc4cc(Cl)ccc4c(N)c3[C@@H](C1)C2
REMARK SMILES IDX 15 1 17 2 6 3 7 4 8 5 9 6 10 7 11 8 12 9 13 10 14 11 5 12
REMARK SMILES IDX 4 13 3 14 2 15 1 16 19 17 18 18 20 19 16 20
REMARK H PARENT 16 21 16 22
ROOT
ATOM      1  C   UNL     1     -13.467 -45.327  31.549  1.00  0.00     0.046 A 
ATOM      2  C   UNL     1     -12.474 -45.090  30.576  1.00  0.00     0.001 A 
ATOM      3  C   UNL     1     -11.911 -43.808  30.517  1.00  0.00     0.047 A 
ATOM      4  N   UNL     1     -12.235 -42.817  31.381  1.00  0.00    -0.252 NA
ATOM      5  C   UNL     1     -13.115 -43.066  32.356  1.00  0.00     0.074 A 
ATOM      6  C   UNL     1     -13.386 -42.041  33.248  1.00  0.00     0.049 A 
ATOM      7  C   UNL     1     -14.266 -42.220  34.311  1.00  0.00     0.043 A 
ATOM      8  Cl  UNL     1     -14.572 -40.924  35.401  1.00  0.00    -0.084 Cl
ATOM      9  C   UNL     1     -14.891 -43.443  34.502  1.00  0.00     0.021 A 
ATOM     10  C   UNL     1     -14.634 -44.484  33.609  1.00  0.00     0.014 A 
ATOM     11  C   UNL     1     -13.753 -44.315  32.511  1.00  0.00     0.024 A 
ATOM     12  C   UNL     1     -10.835 -43.445  29.517  1.00  0.00     0.064 C 
ATOM     13  C   UNL     1     -10.632 -44.488  28.412  1.00  0.00     0.018 C 
ATOM     14  C   UNL     1     -11.713 -44.374  27.358  1.00  0.00    -0.024 C 
ATOM     15  C   UNL     1     -12.794 -45.175  27.326  1.00  0.00    -0.076 C 
ATOM     16  C   UNL     1     -13.846 -45.060  26.262  1.00  0.00     0.039 C 
ATOM     17  C   UNL     1     -13.020 -46.238  28.381  1.00  0.00     0.039 C 
ATOM     18  C   UNL     1     -12.041 -46.158  29.578  1.00  0.00     0.028 C 
ATOM     19  C   UNL     1     -10.628 -45.879  29.049  1.00  0.00     0.017 C 
ENDROOT
BRANCH   1  20
ATOM     20  N   UNL     1     -14.022 -46.622  31.693  1.00  0.00    -0.398 N 
ATOM     21  H   UNL     1     -13.360 -47.309  32.036  1.00  0.00     0.156 HD
ATOM     22  H   UNL     1     -14.874 -46.651  32.240  1.00  0.00     0.156 HD
ENDBRANCH   1  20
TORSDOF 1
ENDMDL
MODEL 9
REMARK VINA RESULT:    -8.280      1.793      2.281
REMARK INTER + INTRA:          -8.522
REMARK INTER:                  -8.522
REMARK INTRA:                   0.000
REMARK UNBOUND:                 0.000
REMARK SMILES CC1=C[C@H]2Cc3nc4cc(Cl)ccc4c(N)c3[C@@H](C1)C2
REMARK SMILES IDX 15 1 17 2 6 3 7 4 8 5 9 6 10 7 11 8 12 9 13 10 14 11 5 12
REMARK SMILES IDX 4 13 3 14 2 15 1 16 19 17 18 18 20 19 16 20
REMARK H PARENT 16 21 16 22
ROOT
ATOM      1  C   UNL     1     -11.953 -43.212  27.665  1.00  0.00     0.046 A 
ATOM      2  C   UNL     1     -11.943 -44.195  28.676  1.00  0.00     0.001 A 
ATOM      3  C   UNL     1     -13.027 -45.080  28.737  1.00  0.00     0.047 A 
ATOM      4  N   UNL     1     -14.043 -45.068  27.843  1.00  0.00    -0.252 NA
ATOM      5  C   UNL     1     -14.012 -44.191  26.835  1.00  0.00     0.074 A 
ATOM      6  C   UNL     1     -15.045 -44.241  25.913  1.00  0.00     0.049 A 
ATOM      7  C   UNL     1     -15.079 -43.387  24.816  1.00  0.00     0.043 A 
ATOM      8  Cl  UNL     1     -16.377 -43.483  23.690  1.00  0.00    -0.084 Cl
ATOM      9  C   UNL     1     -14.064 -42.462  24.618  1.00  0.00     0.021 A 
ATOM     10  C   UNL     1     -13.019 -42.394  25.540  1.00  0.00     0.014 A 
ATOM     11  C   UNL     1     -12.976 -43.246  26.673  1.00  0.00     0.024 A 
ATOM     12  C   UNL     1     -13.117 -46.175  29.778  1.00  0.00     0.064 C 
ATOM     13  C   UNL     1     -12.090 -46.047  30.910  1.00  0.00     0.018 C 
ATOM     14  C   UNL     1     -12.521 -44.998  31.912  1.00  0.00    -0.024 C 
ATOM     15  C   UNL     1     -12.041 -43.740  31.910  1.00  0.00    -0.076 C 
ATOM     16  C   UNL     1     -12.466 -42.719  32.924  1.00  0.00     0.039 C 
ATOM     17  C   UNL     1     -11.048 -43.276  30.865  1.00  0.00     0.039 C 
ATOM     18  C   UNL     1     -10.826 -44.285  29.712  1.00  0.00     0.028 C 
ATOM     19  C   UNL     1     -10.731 -45.700  30.298  1.00  0.00     0.017 C 
ENDROOT
BRANCH   1  20
ATOM     20  N   UNL     1     -10.851 -42.334  27.519  1.00  0.00    -0.398 N 
ATOM     21  H   UNL     1     -10.987 -41.631  26.802  1.00  0.00     0.156 HD
ATOM     22  H   UNL     1     -10.546 -41.901  28.384  1.00  0.00     0.156 HD
ENDBRANCH   1  20
TORSDOF 1
ENDMDL
