MODEL 1
REMARK VINA RESULT:    -9.301      0.000      0.000
REMARK INTER + INTRA:         -14.312
REMARK INTER:                 -12.835
REMARK INTRA:                  -1.478
REMARK UNBOUND:                -1.478
REMARK SMILES COc1ccc([C@H]2CC(c3cc(F)cc(F)c3)=NN2c2ccc(S(N)(=O)=O)cc2)c(OC)c1
REMARK SMILES IDX 20 1 21 2 22 3 23 4 28 5 29 6 19 7 7 8 8 9 9 10 18 11 6 12
REMARK SMILES IDX 3 13 4 14 33 15 5 16 30 17 2 18 1 19 31 20 32 21 10 22 11 23
REMARK SMILES IDX 17 24 12 25 15 26 14 27 13 28 16 29 24 30 26 31 27 32 25 33
REMARK H PARENT 25 34 25 35
ROOT
ATOM      1  C   UNL     1     -20.083 -40.991  23.693  1.00  0.00     0.060 A 
ATOM      2  C   UNL     1     -21.391 -40.505  23.850  1.00  0.00     0.029 A 
ATOM      3  C   UNL     1     -22.049 -39.807  22.828  1.00  0.00     0.024 A 
ATOM      4  C   UNL     1     -21.399 -39.588  21.616  1.00  0.00     0.082 A 
ATOM      5  C   UNL     1     -20.095 -40.038  21.426  1.00  0.00     0.024 A 
ATOM      6  C   UNL     1     -19.457 -40.734  22.457  1.00  0.00     0.029 A 
ENDROOT
BRANCH   1   7
ATOM      7  N   UNL     1     -19.414 -41.698  24.691  1.00  0.00    -0.257 N 
ATOM      8  C   UNL     1     -19.925 -42.011  26.032  1.00  0.00     0.148 C 
ATOM      9  C   UNL     1     -18.660 -42.362  26.819  1.00  0.00     0.091 C 
ATOM     10  C   UNL     1     -17.646 -42.376  25.709  1.00  0.00     0.071 C 
ATOM     11  N   UNL     1     -18.079 -41.963  24.557  1.00  0.00    -0.176 NA
BRANCH   8  12
ATOM     12  C   UNL     1     -20.960 -43.128  26.041  1.00  0.00     0.019 A 
ATOM     13  C   UNL     1     -22.831 -45.258  25.954  1.00  0.00     0.122 A 
ATOM     14  C   UNL     1     -21.639 -45.331  25.236  1.00  0.00     0.047 A 
ATOM     15  C   UNL     1     -23.096 -44.121  26.712  1.00  0.00     0.093 A 
ATOM     16  C   UNL     1     -20.719 -44.279  25.270  1.00  0.00     0.013 A 
ATOM     17  C   UNL     1     -22.162 -43.076  26.765  1.00  0.00     0.127 A 
BRANCH  13  18
ATOM     18  O   UNL     1     -23.646 -46.348  25.823  1.00  0.00    -0.497 OA
ATOM     19  C   UNL     1     -23.534 -47.094  24.617  1.00  0.00     0.278 C 
ENDBRANCH  13  18
BRANCH  17  20
ATOM     20  O   UNL     1     -22.489 -41.944  27.469  1.00  0.00    -0.496 OA
ATOM     21  C   UNL     1     -23.592 -41.271  26.860  1.00  0.00     0.278 C 
ENDBRANCH  17  20
ENDBRANCH   8  12
BRANCH  10  22
ATOM     22  C   UNL     1     -16.246 -42.803  25.934  1.00  0.00     0.004 A 
ATOM     23  C   UNL     1     -15.920 -43.446  27.135  1.00  0.00     0.049 A 
ATOM     24  C   UNL     1     -15.250 -42.577  24.981  1.00  0.00     0.049 A 
ATOM     25  C   UNL     1     -14.609 -43.851  27.366  1.00  0.00     0.126 A 
ATOM     26  C   UNL     1     -13.947 -42.994  25.238  1.00  0.00     0.126 A 
ATOM     27  C   UNL     1     -13.613 -43.632  26.425  1.00  0.00     0.078 A 
ATOM     28  F   UNL     1     -14.303 -44.464  28.517  1.00  0.00    -0.207 F 
ATOM     29  F   UNL     1     -12.996 -42.776  24.321  1.00  0.00    -0.207 F 
ENDBRANCH  10  22
ENDBRANCH   1   7
BRANCH   4  30
ATOM     30  S   UNL     1     -22.218 -38.713  20.314  1.00  0.00     0.238 S 
ATOM     31  O   UNL     1     -21.240 -37.915  19.609  1.00  0.00    -0.207 OA
ATOM     32  O   UNL     1     -23.112 -39.621  19.638  1.00  0.00    -0.207 OA
BRANCH  30  33
ATOM     33  N   UNL     1     -23.152 -37.613  21.184  1.00  0.00    -0.225 NA
ATOM     34  H   UNL     1     -22.672 -36.730  21.355  1.00  0.00     0.137 HD
ATOM     35  H   UNL     1     -24.040 -37.479  20.697  1.00  0.00     0.137 HD
ENDBRANCH  30  33
ENDBRANCH   4  30
TORSDOF 7
ENDMDL
MODEL 2
REMARK VINA RESULT:    -9.282      0.124      1.434
REMARK INTER + INTRA:         -14.287
REMARK INTER:                 -12.819
REMARK INTRA:                  -1.468
REMARK UNBOUND:                -1.478
REMARK SMILES COc1ccc([C@H]2CC(c3cc(F)cc(F)c3)=NN2c2ccc(S(N)(=O)=O)cc2)c(OC)c1
REMARK SMILES IDX 20 1 21 2 22 3 23 4 28 5 29 6 19 7 7 8 8 9 9 10 18 11 6 12
REMARK SMILES IDX 3 13 4 14 33 15 5 16 30 17 2 18 1 19 31 20 32 21 10 22 11 23
REMARK SMILES IDX 17 24 12 25 15 26 14 27 13 28 16 29 24 30 26 31 27 32 25 33
REMARK H PARENT 25 34 25 35
ROOT
ATOM      1  C   UNL     1     -20.034 -41.015  23.703  1.00  0.00     0.060 A 
ATOM      2  C   UNL     1     -21.355 -40.547  23.808  1.00  0.00     0.029 A 
ATOM      3  C   UNL     1     -21.983 -39.863  22.760  1.00  0.00     0.024 A 
ATOM      4  C   UNL     1     -21.291 -39.640  21.572  1.00  0.00     0.082 A 
ATOM      5  C   UNL     1     -19.975 -40.072  21.433  1.00  0.00     0.024 A 
ATOM      6  C   UNL     1     -19.366 -40.755  22.491  1.00  0.00     0.029 A 
ENDROOT
BRANCH   1   7
ATOM      7  N   UNL     1     -19.394 -41.707  24.729  1.00  0.00    -0.257 N 
ATOM      8  C   UNL     1     -19.929 -41.974  26.071  1.00  0.00     0.148 C 
ATOM      9  C   UNL     1     -18.682 -42.329  26.885  1.00  0.00     0.091 C 
ATOM     10  C   UNL     1     -17.654 -42.394  25.790  1.00  0.00     0.071 C 
ATOM     11  N   UNL     1     -18.062 -42.003  24.621  1.00  0.00    -0.176 NA
BRANCH   8  12
ATOM     12  C   UNL     1     -20.986 -43.069  26.095  1.00  0.00     0.019 A 
ATOM     13  C   UNL     1     -22.899 -45.163  26.040  1.00  0.00     0.122 A 
ATOM     14  C   UNL     1     -21.697 -45.282  25.346  1.00  0.00     0.047 A 
ATOM     15  C   UNL     1     -23.154 -43.998  26.758  1.00  0.00     0.093 A 
ATOM     16  C   UNL     1     -20.756 -44.248  25.364  1.00  0.00     0.013 A 
ATOM     17  C   UNL     1     -22.200 -42.971  26.796  1.00  0.00     0.127 A 
BRANCH  13  18
ATOM     18  O   UNL     1     -23.735 -46.240  25.926  1.00  0.00    -0.497 OA
ATOM     19  C   UNL     1     -23.574 -47.061  24.777  1.00  0.00     0.278 C 
ENDBRANCH  13  18
BRANCH  17  20
ATOM     20  O   UNL     1     -22.516 -41.812  27.458  1.00  0.00    -0.496 OA
ATOM     21  C   UNL     1     -23.617 -41.153  26.829  1.00  0.00     0.278 C 
ENDBRANCH  17  20
ENDBRANCH   8  12
BRANCH  10  22
ATOM     22  C   UNL     1     -16.266 -42.842  26.046  1.00  0.00     0.004 A 
ATOM     23  C   UNL     1     -15.295 -42.635  25.058  1.00  0.00     0.049 A 
ATOM     24  C   UNL     1     -15.908 -43.466  27.244  1.00  0.00     0.049 A 
ATOM     25  C   UNL     1     -13.987 -43.053  25.278  1.00  0.00     0.126 A 
ATOM     26  C   UNL     1     -14.591 -43.873  27.438  1.00  0.00     0.126 A 
ATOM     27  C   UNL     1     -13.622 -43.673  26.465  1.00  0.00     0.078 A 
ATOM     28  F   UNL     1     -13.063 -42.853  24.330  1.00  0.00    -0.207 F 
ATOM     29  F   UNL     1     -14.253 -44.470  28.588  1.00  0.00    -0.207 F 
ENDBRANCH  10  22
ENDBRANCH   1   7
BRANCH   4  30
ATOM     30  S   UNL     1     -22.072 -38.782  20.235  1.00  0.00     0.238 S 
ATOM     31  O   UNL     1     -21.061 -38.060  19.497  1.00  0.00    -0.207 OA
ATOM     32  O   UNL     1     -23.009 -39.675  19.599  1.00  0.00    -0.207 OA
BRANCH  30  33
ATOM     33  N   UNL     1     -22.952 -37.606  21.061  1.00  0.00    -0.225 NA
ATOM     34  H   UNL     1     -23.783 -37.301  20.555  1.00  0.00     0.137 HD
ATOM     35  H   UNL     1     -23.179 -37.960  21.992  1.00  0.00     0.137 HD
ENDBRANCH  30  33
ENDBRANCH   4  30
TORSDOF 7
ENDMDL
MODEL 3
REMARK VINA RESULT:    -8.719      3.065      5.832
REMARK INTER + INTRA:         -13.510
REMARK INTER:                 -12.214
REMARK INTRA:                  -1.296
REMARK UNBOUND:                -1.478
REMARK SMILES COc1ccc([C@H]2CC(c3cc(F)cc(F)c3)=NN2c2ccc(S(N)(=O)=O)cc2)c(OC)c1
REMARK SMILES IDX 20 1 21 2 22 3 23 4 28 5 29 6 19 7 7 8 8 9 9 10 18 11 6 12
REMARK SMILES IDX 3 13 4 14 33 15 5 16 30 17 2 18 1 19 31 20 32 21 10 22 11 23
REMARK SMILES IDX 17 24 12 25 15 26 14 27 13 28 16 29 24 30 26 31 27 32 25 33
REMARK H PARENT 25 34 25 35
ROOT
ATOM      1  C   UNL     1     -22.333 -40.440  25.594  1.00  0.00     0.060 A 
ATOM      2  C   UNL     1     -23.355 -39.777  24.895  1.00  0.00     0.029 A 
ATOM      3  C   UNL     1     -24.427 -39.164  25.556  1.00  0.00     0.024 A 
ATOM      4  C   UNL     1     -24.491 -39.203  26.946  1.00  0.00     0.082 A 
ATOM      5  C   UNL     1     -23.508 -39.866  27.676  1.00  0.00     0.024 A 
ATOM      6  C   UNL     1     -22.444 -40.469  26.998  1.00  0.00     0.029 A 
ENDROOT
BRANCH   1   7
ATOM      7  N   UNL     1     -21.251 -41.046  24.958  1.00  0.00    -0.257 N 
ATOM      8  C   UNL     1     -21.272 -41.726  23.656  1.00  0.00     0.148 C 
ATOM      9  C   UNL     1     -19.993 -42.568  23.677  1.00  0.00     0.091 C 
ATOM     10  C   UNL     1     -19.354 -42.058  24.938  1.00  0.00     0.071 C 
ATOM     11  N   UNL     1     -20.088 -41.255  25.647  1.00  0.00    -0.176 NA
BRANCH   8  12
ATOM     12  C   UNL     1     -21.333 -40.769  22.473  1.00  0.00     0.019 A 
ATOM     13  C   UNL     1     -21.386 -38.900  20.340  1.00  0.00     0.122 A 
ATOM     14  C   UNL     1     -20.520 -38.723  21.417  1.00  0.00     0.047 A 
ATOM     15  C   UNL     1     -22.233 -40.005  20.327  1.00  0.00     0.093 A 
ATOM     16  C   UNL     1     -20.497 -39.638  22.474  1.00  0.00     0.013 A 
ATOM     17  C   UNL     1     -22.194 -40.935  21.376  1.00  0.00     0.127 A 
BRANCH  13  18
ATOM     18  O   UNL     1     -21.316 -37.926  19.383  1.00  0.00    -0.497 OA
ATOM     19  C   UNL     1     -22.494 -37.163  19.152  1.00  0.00     0.278 C 
ENDBRANCH  13  18
BRANCH  17  20
ATOM     20  O   UNL     1     -23.090 -41.974  21.359  1.00  0.00    -0.496 OA
ATOM     21  C   UNL     1     -23.081 -42.630  20.090  1.00  0.00     0.278 C 
ENDBRANCH  17  20
ENDBRANCH   8  12
BRANCH  10  22
ATOM     22  C   UNL     1     -17.994 -42.475  25.349  1.00  0.00     0.004 A 
ATOM     23  C   UNL     1     -17.672 -42.483  26.713  1.00  0.00     0.049 A 
ATOM     24  C   UNL     1     -17.031 -42.856  24.411  1.00  0.00     0.049 A 
ATOM     25  C   UNL     1     -16.399 -42.868  27.118  1.00  0.00     0.126 A 
ATOM     26  C   UNL     1     -15.764 -43.238  24.846  1.00  0.00     0.126 A 
ATOM     27  C   UNL     1     -15.435 -43.248  26.195  1.00  0.00     0.078 A 
ATOM     28  F   UNL     1     -16.097 -42.872  28.423  1.00  0.00    -0.207 F 
ATOM     29  F   UNL     1     -14.845 -43.602  23.943  1.00  0.00    -0.207 F 
ENDBRANCH  10  22
ENDBRANCH   1   7
BRANCH   4  30
ATOM     30  S   UNL     1     -25.836 -38.430  27.797  1.00  0.00     0.238 S 
ATOM     31  O   UNL     1     -26.971 -38.364  26.904  1.00  0.00    -0.207 OA
ATOM     32  O   UNL     1     -25.924 -38.989  29.125  1.00  0.00    -0.207 OA
BRANCH  30  33
ATOM     33  N   UNL     1     -25.279 -36.846  27.934  1.00  0.00    -0.225 NA
ATOM     34  H   UNL     1     -25.639 -36.232  27.204  1.00  0.00     0.137 HD
ATOM     35  H   UNL     1     -25.501 -36.500  28.870  1.00  0.00     0.137 HD
ENDBRANCH  30  33
ENDBRANCH   4  30
TORSDOF 7
ENDMDL
MODEL 4
REMARK VINA RESULT:    -8.605      4.559      7.694
REMARK INTER + INTRA:         -13.352
REMARK INTER:                 -11.975
REMARK INTRA:                  -1.378
REMARK UNBOUND:                -1.478
REMARK SMILES COc1ccc([C@H]2CC(c3cc(F)cc(F)c3)=NN2c2ccc(S(N)(=O)=O)cc2)c(OC)c1
REMARK SMILES IDX 20 1 21 2 22 3 23 4 28 5 29 6 19 7 7 8 8 9 9 10 18 11 6 12
REMARK SMILES IDX 3 13 4 14 33 15 5 16 30 17 2 18 1 19 31 20 32 21 10 22 11 23
REMARK SMILES IDX 17 24 12 25 15 26 14 27 13 28 16 29 24 30 26 31 27 32 25 33
REMARK H PARENT 25 34 25 35
ROOT
ATOM      1  C   UNL     1     -18.902 -42.160  24.401  1.00  0.00     0.060 A 
ATOM      2  C   UNL     1     -17.713 -42.511  23.741  1.00  0.00     0.029 A 
ATOM      3  C   UNL     1     -16.537 -42.806  24.442  1.00  0.00     0.024 A 
ATOM      4  C   UNL     1     -16.535 -42.760  25.834  1.00  0.00     0.082 A 
ATOM      5  C   UNL     1     -17.688 -42.399  26.526  1.00  0.00     0.024 A 
ATOM      6  C   UNL     1     -18.853 -42.109  25.808  1.00  0.00     0.029 A 
ENDROOT
BRANCH   1   7
ATOM      7  N   UNL     1     -20.086 -41.873  23.724  1.00  0.00    -0.257 N 
ATOM      8  C   UNL     1     -21.384 -42.533  23.916  1.00  0.00     0.148 C 
ATOM      9  C   UNL     1     -22.157 -42.167  22.646  1.00  0.00     0.091 C 
ATOM     10  C   UNL     1     -21.209 -41.178  22.028  1.00  0.00     0.071 C 
ATOM     11  N   UNL     1     -20.058 -41.069  22.618  1.00  0.00    -0.176 NA
BRANCH   8  12
ATOM     12  C   UNL     1     -22.099 -42.105  25.190  1.00  0.00     0.019 A 
ATOM     13  C   UNL     1     -23.390 -41.190  27.545  1.00  0.00     0.122 A 
ATOM     14  C   UNL     1     -22.948 -40.286  26.581  1.00  0.00     0.047 A 
ATOM     15  C   UNL     1     -23.184 -42.551  27.340  1.00  0.00     0.093 A 
ATOM     16  C   UNL     1     -22.304 -40.733  25.423  1.00  0.00     0.013 A 
ATOM     17  C   UNL     1     -22.560 -43.002  26.168  1.00  0.00     0.127 A 
BRANCH  13  18
ATOM     18  O   UNL     1     -23.990 -40.618  28.633  1.00  0.00    -0.497 OA
ATOM     19  C   UNL     1     -24.489 -39.297  28.473  1.00  0.00     0.278 C 
ENDBRANCH  13  18
BRANCH  17  20
ATOM     20  O   UNL     1     -22.315 -44.345  26.035  1.00  0.00    -0.496 OA
ATOM     21  C   UNL     1     -21.400 -44.795  27.036  1.00  0.00     0.278 C 
ENDBRANCH  17  20
ENDBRANCH   8  12
BRANCH  10  22
ATOM     22  C   UNL     1     -21.563 -40.411  20.811  1.00  0.00     0.004 A 
ATOM     23  C   UNL     1     -22.389 -41.010  19.851  1.00  0.00     0.049 A 
ATOM     24  C   UNL     1     -21.091 -39.113  20.602  1.00  0.00     0.049 A 
ATOM     25  C   UNL     1     -22.729 -40.307  18.700  1.00  0.00     0.126 A 
ATOM     26  C   UNL     1     -21.449 -38.433  19.441  1.00  0.00     0.126 A 
ATOM     27  C   UNL     1     -22.266 -39.017  18.483  1.00  0.00     0.078 A 
ATOM     28  F   UNL     1     -23.518 -40.885  17.785  1.00  0.00    -0.207 F 
ATOM     29  F   UNL     1     -20.995 -37.188  19.245  1.00  0.00    -0.207 F 
ENDBRANCH  10  22
ENDBRANCH   1   7
BRANCH   4  30
ATOM     30  S   UNL     1     -15.059 -43.135  26.735  1.00  0.00     0.238 S 
ATOM     31  O   UNL     1     -14.106 -42.070  26.525  1.00  0.00    -0.207 OA
ATOM     32  O   UNL     1     -15.428 -43.600  28.051  1.00  0.00    -0.207 OA
BRANCH  30  33
ATOM     33  N   UNL     1     -14.462 -44.450  25.867  1.00  0.00    -0.225 NA
ATOM     34  H   UNL     1     -14.868 -45.339  26.159  1.00  0.00     0.137 HD
ATOM     35  H   UNL     1     -14.602 -44.275  24.870  1.00  0.00     0.137 HD
ENDBRANCH  30  33
ENDBRANCH   4  30
TORSDOF 7
ENDMDL
MODEL 5
REMARK VINA RESULT:    -8.588      4.790      7.873
REMARK INTER + INTRA:         -13.329
REMARK INTER:                 -12.024
REMARK INTRA:                  -1.305
REMARK UNBOUND:                -1.478
REMARK SMILES COc1ccc([C@H]2CC(c3cc(F)cc(F)c3)=NN2c2ccc(S(N)(=O)=O)cc2)c(OC)c1
REMARK SMILES IDX 20 1 21 2 22 3 23 4 28 5 29 6 19 7 7 8 8 9 9 10 18 11 6 12
REMARK SMILES IDX 3 13 4 14 33 15 5 16 30 17 2 18 1 19 31 20 32 21 10 22 11 23
REMARK SMILES IDX 17 24 12 25 15 26 14 27 13 28 16 29 24 30 26 31 27 32 25 33
REMARK H PARENT 25 34 25 35
ROOT
ATOM      1  C   UNL     1     -19.189 -41.883  26.139  1.00  0.00     0.060 A 
ATOM      2  C   UNL     1     -18.593 -42.065  27.398  1.00  0.00     0.029 A 
ATOM      3  C   UNL     1     -17.272 -42.509  27.534  1.00  0.00     0.024 A 
ATOM      4  C   UNL     1     -16.516 -42.777  26.396  1.00  0.00     0.082 A 
ATOM      5  C   UNL     1     -17.074 -42.627  25.129  1.00  0.00     0.024 A 
ATOM      6  C   UNL     1     -18.395 -42.180  25.014  1.00  0.00     0.029 A 
ENDROOT
BRANCH   1   7
ATOM      7  N   UNL     1     -20.498 -41.431  25.980  1.00  0.00    -0.257 N 
ATOM      8  C   UNL     1     -21.093 -40.888  24.752  1.00  0.00     0.148 C 
ATOM      9  C   UNL     1     -22.335 -40.150  25.257  1.00  0.00     0.091 C 
ATOM     10  C   UNL     1     -22.336 -40.577  26.699  1.00  0.00     0.071 C 
ATOM     11  N   UNL     1     -21.290 -41.245  27.080  1.00  0.00    -0.176 NA
BRANCH   8  12
ATOM     12  C   UNL     1     -21.416 -41.953  23.713  1.00  0.00     0.019 A 
ATOM     13  C   UNL     1     -22.051 -44.015  21.871  1.00  0.00     0.122 A 
ATOM     14  C   UNL     1     -22.497 -44.079  23.190  1.00  0.00     0.047 A 
ATOM     15  C   UNL     1     -21.283 -42.926  21.469  1.00  0.00     0.093 A 
ATOM     16  C   UNL     1     -22.178 -43.069  24.102  1.00  0.00     0.013 A 
ATOM     17  C   UNL     1     -20.984 -41.901  22.378  1.00  0.00     0.127 A 
BRANCH  13  18
ATOM     18  O   UNL     1     -22.422 -45.074  21.089  1.00  0.00    -0.497 OA
ATOM     19  C   UNL     1     -23.123 -46.133  21.730  1.00  0.00     0.278 C 
ENDBRANCH  13  18
BRANCH  17  20
ATOM     20  O   UNL     1     -20.169 -40.879  21.961  1.00  0.00    -0.496 OA
ATOM     21  C   UNL     1     -20.395 -40.580  20.582  1.00  0.00     0.278 C 
ENDBRANCH  17  20
ENDBRANCH   8  12
BRANCH  10  22
ATOM     22  C   UNL     1     -23.443 -40.227  27.617  1.00  0.00     0.004 A 
ATOM     23  C   UNL     1     -23.698 -38.876  27.886  1.00  0.00     0.049 A 
ATOM     24  C   UNL     1     -24.233 -41.210  28.219  1.00  0.00     0.049 A 
ATOM     25  C   UNL     1     -24.731 -38.527  28.749  1.00  0.00     0.126 A 
ATOM     26  C   UNL     1     -25.262 -40.832  29.078  1.00  0.00     0.126 A 
ATOM     27  C   UNL     1     -25.521 -39.496  29.352  1.00  0.00     0.078 A 
ATOM     28  F   UNL     1     -24.969 -37.234  29.003  1.00  0.00    -0.207 F 
ATOM     29  F   UNL     1     -26.016 -41.778  29.652  1.00  0.00    -0.207 F 
ENDBRANCH  10  22
ENDBRANCH   1   7
BRANCH   4  30
ATOM     30  S   UNL     1     -14.843 -43.334  26.549  1.00  0.00     0.238 S 
ATOM     31  O   UNL     1     -14.642 -44.447  25.649  1.00  0.00    -0.207 OA
ATOM     32  O   UNL     1     -13.973 -42.183  26.567  1.00  0.00    -0.207 OA
BRANCH  30  33
ATOM     33  N   UNL     1     -14.854 -44.003  28.096  1.00  0.00    -0.225 NA
ATOM     34  H   UNL     1     -15.044 -45.004  28.096  1.00  0.00     0.137 HD
ATOM     35  H   UNL     1     -13.968 -43.781  28.555  1.00  0.00     0.137 HD
ENDBRANCH  30  33
ENDBRANCH   4  30
TORSDOF 7
ENDMDL
MODEL 6
REMARK VINA RESULT:    -8.323      4.625      7.493
REMARK INTER + INTRA:         -12.963
REMARK INTER:                 -11.703
REMARK INTRA:                  -1.260
REMARK UNBOUND:                -1.478
REMARK SMILES COc1ccc([C@H]2CC(c3cc(F)cc(F)c3)=NN2c2ccc(S(N)(=O)=O)cc2)c(OC)c1
REMARK SMILES IDX 20 1 21 2 22 3 23 4 28 5 29 6 19 7 7 8 8 9 9 10 18 11 6 12
REMARK SMILES IDX 3 13 4 14 33 15 5 16 30 17 2 18 1 19 31 20 32 21 10 22 11 23
REMARK SMILES IDX 17 24 12 25 15 26 14 27 13 28 16 29 24 30 26 31 27 32 25 33
REMARK H PARENT 25 34 25 35
ROOT
ATOM      1  C   UNL     1     -19.191 -42.306  25.876  1.00  0.00     0.060 A 
ATOM      2  C   UNL     1     -18.473 -42.503  24.685  1.00  0.00     0.029 A 
ATOM      3  C   UNL     1     -17.093 -42.745  24.684  1.00  0.00     0.024 A 
ATOM      4  C   UNL     1     -16.404 -42.800  25.892  1.00  0.00     0.082 A 
ATOM      5  C   UNL     1     -17.075 -42.592  27.094  1.00  0.00     0.024 A 
ATOM      6  C   UNL     1     -18.453 -42.354  27.075  1.00  0.00     0.029 A 
ENDROOT
BRANCH   1   7
ATOM      7  N   UNL     1     -20.565 -42.075  25.901  1.00  0.00    -0.257 N 
ATOM      8  C   UNL     1     -21.503 -42.263  24.786  1.00  0.00     0.148 C 
ATOM      9  C   UNL     1     -22.726 -41.447  25.212  1.00  0.00     0.091 C 
ATOM     10  C   UNL     1     -22.335 -41.087  26.618  1.00  0.00     0.071 C 
ATOM     11  N   UNL     1     -21.123 -41.406  26.956  1.00  0.00    -0.176 NA
BRANCH   8  12
ATOM     12  C   UNL     1     -21.831 -43.724  24.510  1.00  0.00     0.019 A 
ATOM     13  C   UNL     1     -22.365 -46.479  24.092  1.00  0.00     0.122 A 
ATOM     14  C   UNL     1     -21.788 -46.040  25.282  1.00  0.00     0.047 A 
ATOM     15  C   UNL     1     -22.672 -45.546  23.105  1.00  0.00     0.093 A 
ATOM     16  C   UNL     1     -21.516 -44.685  25.488  1.00  0.00     0.013 A 
ATOM     17  C   UNL     1     -22.421 -44.183  23.321  1.00  0.00     0.127 A 
BRANCH  13  18
ATOM     18  O   UNL     1     -22.565 -47.830  24.016  1.00  0.00    -0.497 OA
ATOM     19  C   UNL     1     -22.459 -48.424  22.729  1.00  0.00     0.278 C 
ENDBRANCH  13  18
BRANCH  17  20
ATOM     20  O   UNL     1     -22.675 -43.304  22.299  1.00  0.00    -0.496 OA
ATOM     21  C   UNL     1     -23.659 -43.833  21.409  1.00  0.00     0.278 C 
ENDBRANCH  17  20
ENDBRANCH   8  12
BRANCH  10  22
ATOM     22  C   UNL     1     -23.265 -40.387  27.534  1.00  0.00     0.004 A 
ATOM     23  C   UNL     1     -23.215 -38.989  27.611  1.00  0.00     0.049 A 
ATOM     24  C   UNL     1     -24.184 -41.089  28.319  1.00  0.00     0.049 A 
ATOM     25  C   UNL     1     -24.078 -38.315  28.469  1.00  0.00     0.126 A 
ATOM     26  C   UNL     1     -25.036 -40.387  29.168  1.00  0.00     0.126 A 
ATOM     27  C   UNL     1     -24.994 -39.003  29.252  1.00  0.00     0.078 A 
ATOM     28  F   UNL     1     -24.024 -36.979  28.540  1.00  0.00    -0.207 F 
ATOM     29  F   UNL     1     -25.915 -41.064  29.918  1.00  0.00    -0.207 F 
ENDBRANCH  10  22
ENDBRANCH   1   7
BRANCH   4  30
ATOM     30  S   UNL     1     -14.661 -43.110  25.909  1.00  0.00     0.238 S 
ATOM     31  O   UNL     1     -14.017 -42.083  26.697  1.00  0.00    -0.207 OA
ATOM     32  O   UNL     1     -14.446 -44.518  26.142  1.00  0.00    -0.207 OA
BRANCH  30  33
ATOM     33  N   UNL     1     -14.246 -42.777  24.311  1.00  0.00    -0.225 NA
ATOM     34  H   UNL     1     -15.023 -42.903  23.662  1.00  0.00     0.137 HD
ATOM     35  H   UNL     1     -13.857 -41.833  24.262  1.00  0.00     0.137 HD
ENDBRANCH  30  33
ENDBRANCH   4  30
TORSDOF 7
ENDMDL
MODEL 7
REMARK VINA RESULT:    -8.073      4.508      8.155
REMARK INTER + INTRA:         -12.618
REMARK INTER:                 -11.121
REMARK INTRA:                  -1.497
REMARK UNBOUND:                -1.478
REMARK SMILES COc1ccc([C@H]2CC(c3cc(F)cc(F)c3)=NN2c2ccc(S(N)(=O)=O)cc2)c(OC)c1
REMARK SMILES IDX 20 1 21 2 22 3 23 4 28 5 29 6 19 7 7 8 8 9 9 10 18 11 6 12
REMARK SMILES IDX 3 13 4 14 33 15 5 16 30 17 2 18 1 19 31 20 32 21 10 22 11 23
REMARK SMILES IDX 17 24 12 25 15 26 14 27 13 28 16 29 24 30 26 31 27 32 25 33
REMARK H PARENT 25 34 25 35
ROOT
ATOM      1  C   UNL     1     -22.228 -44.075  25.180  1.00  0.00     0.060 A 
ATOM      2  C   UNL     1     -21.344 -45.121  25.494  1.00  0.00     0.029 A 
ATOM      3  C   UNL     1     -21.524 -46.417  24.994  1.00  0.00     0.024 A 
ATOM      4  C   UNL     1     -22.603 -46.688  24.157  1.00  0.00     0.082 A 
ATOM      5  C   UNL     1     -23.513 -45.683  23.836  1.00  0.00     0.024 A 
ATOM      6  C   UNL     1     -23.314 -44.395  24.342  1.00  0.00     0.029 A 
ENDROOT
BRANCH   1   7
ATOM      7  N   UNL     1     -22.061 -42.776  25.656  1.00  0.00    -0.257 N 
ATOM      8  C   UNL     1     -20.785 -42.077  25.862  1.00  0.00     0.148 C 
ATOM      9  C   UNL     1     -21.160 -40.925  26.798  1.00  0.00     0.091 C 
ATOM     10  C   UNL     1     -22.657 -41.059  26.804  1.00  0.00     0.071 C 
ATOM     11  N   UNL     1     -23.123 -42.112  26.205  1.00  0.00    -0.176 NA
BRANCH   8  12
ATOM     12  C   UNL     1     -20.136 -41.605  24.568  1.00  0.00     0.019 A 
ATOM     13  C   UNL     1     -19.040 -40.673  22.124  1.00  0.00     0.122 A 
ATOM     14  C   UNL     1     -20.250 -40.169  22.596  1.00  0.00     0.047 A 
ATOM     15  C   UNL     1     -18.377 -41.647  22.865  1.00  0.00     0.093 A 
ATOM     16  C   UNL     1     -20.797 -40.632  23.797  1.00  0.00     0.013 A 
ATOM     17  C   UNL     1     -18.914 -42.094  24.081  1.00  0.00     0.127 A 
BRANCH  13  18
ATOM     18  O   UNL     1     -18.625 -40.144  20.932  1.00  0.00    -0.497 OA
ATOM     19  C   UNL     1     -19.639 -39.724  20.027  1.00  0.00     0.278 C 
ENDBRANCH  13  18
BRANCH  17  20
ATOM     20  O   UNL     1     -18.265 -43.103  24.748  1.00  0.00    -0.496 OA
ATOM     21  C   UNL     1     -16.921 -42.726  25.052  1.00  0.00     0.278 C 
ENDBRANCH  17  20
ENDBRANCH   8  12
BRANCH  10  22
ATOM     22  C   UNL     1     -23.528 -40.069  27.479  1.00  0.00     0.004 A 
ATOM     23  C   UNL     1     -24.256 -40.467  28.608  1.00  0.00     0.049 A 
ATOM     24  C   UNL     1     -23.638 -38.756  27.016  1.00  0.00     0.049 A 
ATOM     25  C   UNL     1     -25.082 -39.552  29.253  1.00  0.00     0.126 A 
ATOM     26  C   UNL     1     -24.472 -37.861  27.682  1.00  0.00     0.126 A 
ATOM     27  C   UNL     1     -25.198 -38.246  28.800  1.00  0.00     0.078 A 
ATOM     28  F   UNL     1     -25.777 -39.939  30.330  1.00  0.00    -0.207 F 
ATOM     29  F   UNL     1     -24.574 -36.604  27.234  1.00  0.00    -0.207 F 
ENDBRANCH  10  22
ENDBRANCH   1   7
BRANCH   4  30
ATOM     30  S   UNL     1     -22.843 -48.319  23.513  1.00  0.00     0.238 S 
ATOM     31  O   UNL     1     -21.908 -48.530  22.432  1.00  0.00    -0.207 OA
ATOM     32  O   UNL     1     -22.974 -49.237  24.619  1.00  0.00    -0.207 OA
BRANCH  30  33
ATOM     33  N   UNL     1     -24.352 -48.170  22.779  1.00  0.00    -0.225 NA
ATOM     34  H   UNL     1     -24.294 -47.903  21.797  1.00  0.00     0.137 HD
ATOM     35  H   UNL     1     -24.868 -49.043  22.908  1.00  0.00     0.137 HD
ENDBRANCH  30  33
ENDBRANCH   4  30
TORSDOF 7
ENDMDL
MODEL 8
REMARK VINA RESULT:    -8.002      4.808      8.041
REMARK INTER + INTRA:         -12.521
REMARK INTER:                 -11.183
REMARK INTRA:                  -1.337
REMARK UNBOUND:                -1.478
REMARK SMILES COc1ccc([C@H]2CC(c3cc(F)cc(F)c3)=NN2c2ccc(S(N)(=O)=O)cc2)c(OC)c1
REMARK SMILES IDX 20 1 21 2 22 3 23 4 28 5 29 6 19 7 7 8 8 9 9 10 18 11 6 12
REMARK SMILES IDX 3 13 4 14 33 15 5 16 30 17 2 18 1 19 31 20 32 21 10 22 11 23
REMARK SMILES IDX 17 24 12 25 15 26 14 27 13 28 16 29 24 30 26 31 27 32 25 33
REMARK H PARENT 25 34 25 35
ROOT
ATOM      1  C   UNL     1     -19.252 -41.380  22.844  1.00  0.00     0.060 A 
ATOM      2  C   UNL     1     -18.098 -40.985  22.147  1.00  0.00     0.029 A 
ATOM      3  C   UNL     1     -16.813 -41.317  22.595  1.00  0.00     0.024 A 
ATOM      4  C   UNL     1     -16.663 -42.064  23.760  1.00  0.00     0.082 A 
ATOM      5  C   UNL     1     -17.780 -42.460  24.491  1.00  0.00     0.024 A 
ATOM      6  C   UNL     1     -19.055 -42.121  24.026  1.00  0.00     0.029 A 
ENDROOT
BRANCH   1   7
ATOM      7  N   UNL     1     -20.540 -41.071  22.410  1.00  0.00    -0.257 N 
ATOM      8  C   UNL     1     -21.765 -41.827  22.699  1.00  0.00     0.148 C 
ATOM      9  C   UNL     1     -22.747 -41.331  21.635  1.00  0.00     0.091 C 
ATOM     10  C   UNL     1     -21.948 -40.209  21.033  1.00  0.00     0.071 C 
ATOM     11  N   UNL     1     -20.721 -40.116  21.447  1.00  0.00    -0.176 NA
BRANCH   8  12
ATOM     12  C   UNL     1     -22.279 -41.630  24.119  1.00  0.00     0.019 A 
ATOM     13  C   UNL     1     -23.200 -41.140  26.757  1.00  0.00     0.122 A 
ATOM     14  C   UNL     1     -22.942 -40.082  25.887  1.00  0.00     0.047 A 
ATOM     15  C   UNL     1     -22.995 -42.444  26.316  1.00  0.00     0.093 A 
ATOM     16  C   UNL     1     -22.480 -40.320  24.590  1.00  0.00     0.013 A 
ATOM     17  C   UNL     1     -22.553 -42.684  25.006  1.00  0.00     0.127 A 
BRANCH  13  18
ATOM     18  O   UNL     1     -23.634 -40.767  27.999  1.00  0.00    -0.497 OA
ATOM     19  C   UNL     1     -23.934 -39.390  28.190  1.00  0.00     0.278 C 
ENDBRANCH  13  18
BRANCH  17  20
ATOM     20  O   UNL     1     -22.298 -43.979  24.631  1.00  0.00    -0.496 OA
ATOM     21  C   UNL     1     -21.424 -44.614  25.566  1.00  0.00     0.278 C 
ENDBRANCH  17  20
ENDBRANCH   8  12
BRANCH  10  22
ATOM     22  C   UNL     1     -22.522 -39.298  20.016  1.00  0.00     0.004 A 
ATOM     23  C   UNL     1     -22.707 -37.949  20.343  1.00  0.00     0.049 A 
ATOM     24  C   UNL     1     -22.883 -39.755  18.745  1.00  0.00     0.049 A 
ATOM     25  C   UNL     1     -23.249 -37.079  19.402  1.00  0.00     0.126 A 
ATOM     26  C   UNL     1     -23.421 -38.862  17.823  1.00  0.00     0.126 A 
ATOM     27  C   UNL     1     -23.610 -37.523  18.138  1.00  0.00     0.078 A 
ATOM     28  F   UNL     1     -23.425 -35.791  19.722  1.00  0.00    -0.207 F 
ATOM     29  F   UNL     1     -23.765 -39.304  16.607  1.00  0.00    -0.207 F 
ENDBRANCH  10  22
ENDBRANCH   1   7
BRANCH   4  30
ATOM     30  S   UNL     1     -15.047 -42.497  24.338  1.00  0.00     0.238 S 
ATOM     31  O   UNL     1     -14.075 -41.681  23.645  1.00  0.00    -0.207 OA
ATOM     32  O   UNL     1     -15.085 -42.607  25.776  1.00  0.00    -0.207 OA
BRANCH  30  33
ATOM     33  N   UNL     1     -14.868 -44.047  23.701  1.00  0.00    -0.225 NA
ATOM     34  H   UNL     1     -15.387 -44.184  22.834  1.00  0.00     0.137 HD
ATOM     35  H   UNL     1     -13.871 -44.241  23.585  1.00  0.00     0.137 HD
ENDBRANCH  30  33
ENDBRANCH   4  30
TORSDOF 7
ENDMDL
MODEL 9
REMARK VINA RESULT:    -7.652      1.631      2.574
REMARK INTER + INTRA:         -12.038
REMARK INTER:                 -11.974
REMARK INTRA:                  -0.064
REMARK UNBOUND:                -1.478
REMARK SMILES COc1ccc([C@H]2CC(c3cc(F)cc(F)c3)=NN2c2ccc(S(N)(=O)=O)cc2)c(OC)c1
REMARK SMILES IDX 20 1 21 2 22 3 23 4 28 5 29 6 19 7 7 8 8 9 9 10 18 11 6 12
REMARK SMILES IDX 3 13 4 14 33 15 5 16 30 17 2 18 1 19 31 20 32 21 10 22 11 23
REMARK SMILES IDX 17 24 12 25 15 26 14 27 13 28 16 29 24 30 26 31 27 32 25 33
REMARK H PARENT 25 34 25 35
ROOT
ATOM      1  C   UNL     1     -20.523 -40.620  22.785  1.00  0.00     0.060 A 
ATOM      2  C   UNL     1     -20.196 -40.933  21.455  1.00  0.00     0.029 A 
ATOM      3  C   UNL     1     -20.771 -40.255  20.373  1.00  0.00     0.024 A 
ATOM      4  C   UNL     1     -21.691 -39.236  20.609  1.00  0.00     0.082 A 
ATOM      5  C   UNL     1     -22.056 -38.907  21.912  1.00  0.00     0.024 A 
ATOM      6  C   UNL     1     -21.468 -39.594  22.980  1.00  0.00     0.029 A 
ENDROOT
BRANCH   1   7
ATOM      7  N   UNL     1     -19.955 -41.274  23.877  1.00  0.00    -0.257 N 
ATOM      8  C   UNL     1     -20.451 -41.261  25.259  1.00  0.00     0.148 C 
ATOM      9  C   UNL     1     -19.240 -41.723  26.074  1.00  0.00     0.091 C 
ATOM     10  C   UNL     1     -18.302 -42.114  24.966  1.00  0.00     0.071 C 
ATOM     11  N   UNL     1     -18.703 -41.815  23.768  1.00  0.00    -0.176 NA
BRANCH   8  12
ATOM     12  C   UNL     1     -21.678 -42.136  25.472  1.00  0.00     0.019 A 
ATOM     13  C   UNL     1     -24.038 -43.669  25.830  1.00  0.00     0.122 A 
ATOM     14  C   UNL     1     -24.063 -42.492  25.084  1.00  0.00     0.047 A 
ATOM     15  C   UNL     1     -22.838 -44.081  26.403  1.00  0.00     0.093 A 
ATOM     16  C   UNL     1     -22.903 -41.730  24.913  1.00  0.00     0.013 A 
ATOM     17  C   UNL     1     -21.670 -43.329  26.212  1.00  0.00     0.127 A 
BRANCH  13  18
ATOM     18  O   UNL     1     -25.242 -44.309  25.930  1.00  0.00    -0.497 OA
ATOM     19  C   UNL     1     -26.171 -43.791  26.874  1.00  0.00     0.278 C 
ENDBRANCH  13  18
BRANCH  17  20
ATOM     20  O   UNL     1     -20.524 -43.733  26.849  1.00  0.00    -0.496 OA
ATOM     21  C   UNL     1     -20.834 -44.420  28.062  1.00  0.00     0.278 C 
ENDBRANCH  17  20
ENDBRANCH   8  12
BRANCH  10  22
ATOM     22  C   UNL     1     -17.000 -42.766  25.237  1.00  0.00     0.004 A 
ATOM     23  C   UNL     1     -16.276 -43.302  24.164  1.00  0.00     0.049 A 
ATOM     24  C   UNL     1     -16.484 -42.860  26.532  1.00  0.00     0.049 A 
ATOM     25  C   UNL     1     -15.053 -43.922  24.399  1.00  0.00     0.126 A 
ATOM     26  C   UNL     1     -15.257 -43.484  26.737  1.00  0.00     0.126 A 
ATOM     27  C   UNL     1     -14.532 -44.019  25.682  1.00  0.00     0.078 A 
ATOM     28  F   UNL     1     -14.366 -44.433  23.370  1.00  0.00    -0.207 F 
ATOM     29  F   UNL     1     -14.767 -43.570  27.981  1.00  0.00    -0.207 F 
ENDBRANCH  10  22
ENDBRANCH   1   7
BRANCH   4  30
ATOM     30  S   UNL     1     -22.423 -38.365  19.253  1.00  0.00     0.238 S 
ATOM     31  O   UNL     1     -22.810 -39.325  18.244  1.00  0.00    -0.207 OA
ATOM     32  O   UNL     1     -23.335 -37.378  19.778  1.00  0.00    -0.207 OA
BRANCH  30  33
ATOM     33  N   UNL     1     -21.089 -37.557  18.616  1.00  0.00    -0.225 NA
ATOM     34  H   UNL     1     -21.218 -37.280  17.643  1.00  0.00     0.137 HD
ATOM     35  H   UNL     1     -20.873 -36.758  19.215  1.00  0.00     0.137 HD
ENDBRANCH  30  33
ENDBRANCH   4  30
TORSDOF 7
ENDMDL
