MODEL 1
REMARK VINA RESULT:   -13.194      0.000      0.000
REMARK INTER + INTRA:         -19.890
REMARK INTER:                 -18.979
REMARK INTRA:                  -0.911
REMARK UNBOUND:                -0.911
REMARK SMILES Cc1cc(O)nc2c1C(=O)C(NCCCCNc1c3c(nc4cc(Cl)ccc14)CCCC3)=CC2=O
REMARK SMILES IDX 14 1 13 2 12 3 11 5 4 6 3 7 6 8 2 9 7 10 8 11 34 12 9 13
REMARK SMILES IDX 33 14 1 15 35 16 10 17 5 18 15 20 16 21 17 22 18 24 19 25
REMARK SMILES IDX 28 26 20 27 32 28 27 29 22 30 21 31 29 32 31 33 26 34 23 35
REMARK SMILES IDX 30 36 24 37 25 38
REMARK H PARENT 12 4 5 19 17 23
ROOT
ATOM      1  C   UNL     1     -12.801 -45.833  28.114  1.00  0.00     0.023 C 
ENDROOT
BRANCH   1   2
ATOM      2  C   UNL     1     -12.713 -44.317  27.945  1.00  0.00     0.113 C 
BRANCH   2   3
ATOM      3  N   UNL     1     -14.042 -43.730  27.882  1.00  0.00    -0.382 N 
ATOM      4  H   UNL     1     -14.287 -43.167  28.692  1.00  0.00     0.160 HD
BRANCH   3   5
ATOM      5  C   UNL     1     -14.861 -43.547  26.769  1.00  0.00     0.087 C 
ATOM      6  C   UNL     1     -18.423 -42.363  23.341  1.00  0.00     0.211 A 
ATOM      7  C   UNL     1     -19.041 -41.973  24.508  1.00  0.00     0.072 A 
ATOM      8  N   UNL     1     -17.211 -42.910  23.262  1.00  0.00    -0.209 NA
ATOM      9  C   UNL     1     -18.359 -42.158  25.720  1.00  0.00    -0.032 A 
ATOM     10  C   UNL     1     -16.556 -43.086  24.445  1.00  0.00     0.126 A 
ATOM     11  C   UNL     1     -17.070 -42.739  25.689  1.00  0.00     0.057 A 
ATOM     12  C   UNL     1     -15.212 -43.690  24.319  1.00  0.00     0.207 C 
ATOM     13  C   UNL     1     -16.266 -42.996  26.913  1.00  0.00     0.211 C 
ATOM     14  C   UNL     1     -14.422 -43.858  25.545  1.00  0.00     0.084 C 
ATOM     15  C   UNL     1     -19.047 -41.725  26.987  1.00  0.00     0.045 C 
ATOM     16  O   UNL     1     -14.736 -44.043  23.246  1.00  0.00    -0.287 OA
ATOM     17  O   UNL     1     -16.753 -42.770  28.015  1.00  0.00    -0.287 OA
BRANCH   6  18
ATOM     18  O   UNL     1     -19.041 -42.205  22.147  1.00  0.00    -0.493 OA
ATOM     19  H   UNL     1     -19.119 -43.135  21.863  1.00  0.00     0.295 HD
ENDBRANCH   6  18
ENDBRANCH   3   5
ENDBRANCH   2   3
ENDBRANCH   1   2
BRANCH   1  20
ATOM     20  C   UNL     1     -11.435 -46.527  28.090  1.00  0.00     0.023 C 
BRANCH  20  21
ATOM     21  C   UNL     1     -10.437 -45.936  29.085  1.00  0.00     0.113 C 
BRANCH  21  22
ATOM     22  N   UNL     1     -10.815 -46.220  30.480  1.00  0.00    -0.384 N 
ATOM     23  H   UNL     1     -11.788 -46.525  30.513  1.00  0.00     0.160 HD
BRANCH  22  24
ATOM     24  C   UNL     1     -10.683 -45.109  31.364  1.00  0.00     0.049 A 
ATOM     25  C   UNL     1      -9.390 -44.738  31.784  1.00  0.00    -0.003 A 
ATOM     26  C   UNL     1     -11.812 -44.371  31.824  1.00  0.00     0.024 A 
ATOM     27  C   UNL     1      -9.265 -43.598  32.580  1.00  0.00     0.046 A 
ATOM     28  C   UNL     1      -8.172 -45.525  31.363  1.00  0.00     0.039 C 
ATOM     29  C   UNL     1     -13.162 -44.700  31.535  1.00  0.00     0.014 A 
ATOM     30  C   UNL     1     -11.559 -43.245  32.636  1.00  0.00     0.074 A 
ATOM     31  N   UNL     1     -10.327 -42.866  32.992  1.00  0.00    -0.252 NA
ATOM     32  C   UNL     1      -7.930 -43.138  33.104  1.00  0.00     0.056 C 
ATOM     33  C   UNL     1      -6.931 -45.237  32.207  1.00  0.00     0.005 C 
ATOM     34  C   UNL     1     -14.217 -43.926  32.015  1.00  0.00     0.021 A 
ATOM     35  C   UNL     1     -12.622 -42.485  33.101  1.00  0.00     0.049 A 
ATOM     36  C   UNL     1      -6.741 -43.736  32.362  1.00  0.00     0.007 C 
ATOM     37  C   UNL     1     -13.938 -42.815  32.796  1.00  0.00     0.043 A 
ATOM     38  Cl  UNL     1     -15.228 -41.848  33.395  1.00  0.00    -0.084 Cl
ENDBRANCH  22  24
ENDBRANCH  21  22
ENDBRANCH  20  21
ENDBRANCH   1  20
TORSDOF 8
ENDMDL
MODEL 2
REMARK VINA RESULT:   -12.662      1.393      2.330
REMARK INTER + INTRA:         -19.125
REMARK INTER:                 -18.005
REMARK INTRA:                  -1.119
REMARK UNBOUND:                -0.911
REMARK SMILES Cc1cc(O)nc2c1C(=O)C(NCCCCNc1c3c(nc4cc(Cl)ccc14)CCCC3)=CC2=O
REMARK SMILES IDX 14 1 13 2 12 3 11 5 4 6 3 7 6 8 2 9 7 10 8 11 34 12 9 13
REMARK SMILES IDX 33 14 1 15 35 16 10 17 5 18 15 20 16 21 17 22 18 24 19 25
REMARK SMILES IDX 28 26 20 27 32 28 27 29 22 30 21 31 29 32 31 33 26 34 23 35
REMARK SMILES IDX 30 36 24 37 25 38
REMARK H PARENT 12 4 5 19 17 23
ROOT
ATOM      1  C   UNL     1     -13.040 -45.822  27.297  1.00  0.00     0.023 C 
ENDROOT
BRANCH   1   2
ATOM      2  C   UNL     1     -12.899 -44.301  27.283  1.00  0.00     0.113 C 
BRANCH   2   3
ATOM      3  N   UNL     1     -13.868 -43.704  26.377  1.00  0.00    -0.382 N 
ATOM      4  H   UNL     1     -13.679 -43.877  25.393  1.00  0.00     0.160 HD
BRANCH   3   5
ATOM      5  C   UNL     1     -15.154 -43.244  26.657  1.00  0.00     0.087 C 
ATOM      6  C   UNL     1     -19.984 -41.658  26.696  1.00  0.00     0.211 A 
ATOM      7  C   UNL     1     -19.720 -41.666  25.346  1.00  0.00     0.072 A 
ATOM      8  N   UNL     1     -19.111 -41.987  27.648  1.00  0.00    -0.209 NA
ATOM      9  C   UNL     1     -18.440 -42.047  24.916  1.00  0.00    -0.032 A 
ATOM     10  C   UNL     1     -17.870 -42.354  27.222  1.00  0.00     0.126 A 
ATOM     11  C   UNL     1     -17.477 -42.401  25.889  1.00  0.00     0.057 A 
ATOM     12  C   UNL     1     -16.931 -42.718  28.305  1.00  0.00     0.207 C 
ATOM     13  C   UNL     1     -16.087 -42.803  25.547  1.00  0.00     0.211 C 
ATOM     14  C   UNL     1     -15.591 -43.181  27.919  1.00  0.00     0.084 C 
ATOM     15  C   UNL     1     -18.168 -42.052  23.435  1.00  0.00     0.045 C 
ATOM     16  O   UNL     1     -17.225 -42.657  29.493  1.00  0.00    -0.287 OA
ATOM     17  O   UNL     1     -15.715 -42.761  24.380  1.00  0.00    -0.287 OA
BRANCH   6  18
ATOM     18  O   UNL     1     -21.204 -41.298  27.160  1.00  0.00    -0.493 OA
ATOM     19  H   UNL     1     -21.255 -40.381  26.832  1.00  0.00     0.295 HD
ENDBRANCH   6  18
ENDBRANCH   3   5
ENDBRANCH   2   3
ENDBRANCH   1   2
BRANCH   1  20
ATOM     20  C   UNL     1     -11.862 -46.534  27.969  1.00  0.00     0.023 C 
BRANCH  20  21
ATOM     21  C   UNL     1     -11.020 -45.614  28.853  1.00  0.00     0.113 C 
BRANCH  21  22
ATOM     22  N   UNL     1     -11.027 -46.046  30.262  1.00  0.00    -0.384 N 
ATOM     23  H   UNL     1     -11.909 -46.515  30.469  1.00  0.00     0.160 HD
BRANCH  22  24
ATOM     24  C   UNL     1     -10.871 -44.987  31.203  1.00  0.00     0.049 A 
ATOM     25  C   UNL     1      -9.571 -44.669  31.644  1.00  0.00    -0.003 A 
ATOM     26  C   UNL     1     -11.984 -44.248  31.700  1.00  0.00     0.024 A 
ATOM     27  C   UNL     1      -9.421 -43.577  32.498  1.00  0.00     0.046 A 
ATOM     28  C   UNL     1      -8.370 -45.462  31.183  1.00  0.00     0.039 C 
ATOM     29  C   UNL     1     -13.340 -44.530  31.391  1.00  0.00     0.014 A 
ATOM     30  C   UNL     1     -11.706 -43.172  32.570  1.00  0.00     0.074 A 
ATOM     31  N   UNL     1     -10.466 -42.842  32.947  1.00  0.00    -0.252 NA
ATOM     32  C   UNL     1      -8.076 -43.176  33.048  1.00  0.00     0.056 C 
ATOM     33  C   UNL     1      -7.125 -45.248  32.042  1.00  0.00     0.005 C 
ATOM     34  C   UNL     1     -14.377 -43.757  31.911  1.00  0.00     0.021 A 
ATOM     35  C   UNL     1     -12.752 -42.413  33.074  1.00  0.00     0.049 A 
ATOM     36  C   UNL     1      -6.900 -43.762  32.277  1.00  0.00     0.007 C 
ATOM     37  C   UNL     1     -14.075 -42.696  32.750  1.00  0.00     0.043 A 
ATOM     38  Cl  UNL     1     -15.343 -41.731  33.398  1.00  0.00    -0.084 Cl
ENDBRANCH  22  24
ENDBRANCH  21  22
ENDBRANCH  20  21
ENDBRANCH   1  20
TORSDOF 8
ENDMDL
MODEL 3
REMARK VINA RESULT:   -11.602      1.789      2.483
REMARK INTER + INTRA:         -17.599
REMARK INTER:                 -17.024
REMARK INTRA:                  -0.575
REMARK UNBOUND:                -0.911
REMARK SMILES Cc1cc(O)nc2c1C(=O)C(NCCCCNc1c3c(nc4cc(Cl)ccc14)CCCC3)=CC2=O
REMARK SMILES IDX 14 1 13 2 12 3 11 5 4 6 3 7 6 8 2 9 7 10 8 11 34 12 9 13
REMARK SMILES IDX 33 14 1 15 35 16 10 17 5 18 15 20 16 21 17 22 18 24 19 25
REMARK SMILES IDX 28 26 20 27 32 28 27 29 22 30 21 31 29 32 31 33 26 34 23 35
REMARK SMILES IDX 30 36 24 37 25 38
REMARK H PARENT 12 4 5 19 17 23
ROOT
ATOM      1  C   UNL     1     -13.549 -43.823  26.606  1.00  0.00     0.023 C 
ENDROOT
BRANCH   1   2
ATOM      2  C   UNL     1     -14.618 -42.756  26.376  1.00  0.00     0.113 C 
BRANCH   2   3
ATOM      3  N   UNL     1     -15.661 -43.256  25.494  1.00  0.00    -0.382 N 
ATOM      4  H   UNL     1     -16.097 -44.118  25.811  1.00  0.00     0.160 HD
BRANCH   3   5
ATOM      5  C   UNL     1     -16.360 -42.575  24.499  1.00  0.00     0.087 C 
ATOM      6  C   UNL     1     -19.669 -40.126  21.515  1.00  0.00     0.211 A 
ATOM      7  C   UNL     1     -20.500 -40.581  22.513  1.00  0.00     0.072 A 
ATOM      8  N   UNL     1     -18.356 -40.348  21.452  1.00  0.00    -0.209 NA
ATOM      9  C   UNL     1     -19.945 -41.340  23.553  1.00  0.00    -0.032 A 
ATOM     10  C   UNL     1     -17.825 -41.088  22.466  1.00  0.00     0.126 A 
ATOM     11  C   UNL     1     -18.556 -41.607  23.529  1.00  0.00     0.057 A 
ATOM     12  C   UNL     1     -16.367 -41.310  22.366  1.00  0.00     0.207 C 
ATOM     13  C   UNL     1     -17.866 -42.414  24.569  1.00  0.00     0.211 C 
ATOM     14  C   UNL     1     -15.713 -42.048  23.453  1.00  0.00     0.084 C 
ATOM     15  C   UNL     1     -20.867 -41.829  24.638  1.00  0.00     0.045 C 
ATOM     16  O   UNL     1     -15.691 -40.900  21.429  1.00  0.00    -0.287 OA
ATOM     17  O   UNL     1     -18.523 -42.944  25.459  1.00  0.00    -0.287 OA
BRANCH   6  18
ATOM     18  O   UNL     1     -20.159 -39.390  20.490  1.00  0.00    -0.493 OA
ATOM     19  H   UNL     1     -19.646 -39.757  19.746  1.00  0.00     0.295 HD
ENDBRANCH   6  18
ENDBRANCH   3   5
ENDBRANCH   2   3
ENDBRANCH   1   2
BRANCH   1  20
ATOM     20  C   UNL     1     -13.810 -44.685  27.845  1.00  0.00     0.023 C 
BRANCH  20  21
ATOM     21  C   UNL     1     -12.587 -45.480  28.301  1.00  0.00     0.113 C 
BRANCH  21  22
ATOM     22  N   UNL     1     -12.750 -46.005  29.668  1.00  0.00    -0.384 N 
ATOM     23  H   UNL     1     -13.743 -46.057  29.896  1.00  0.00     0.160 HD
BRANCH  22  24
ATOM     24  C   UNL     1     -12.117 -45.225  30.679  1.00  0.00     0.049 A 
ATOM     25  C   UNL     1     -10.733 -45.394  30.886  1.00  0.00    -0.003 A 
ATOM     26  C   UNL     1     -12.839 -44.286  31.472  1.00  0.00     0.024 A 
ATOM     27  C   UNL     1     -10.108 -44.565  31.818  1.00  0.00     0.046 A 
ATOM     28  C   UNL     1      -9.941 -46.416  30.105  1.00  0.00     0.039 C 
ATOM     29  C   UNL     1     -14.242 -44.090  31.408  1.00  0.00     0.014 A 
ATOM     30  C   UNL     1     -12.097 -43.514  32.391  1.00  0.00     0.074 A 
ATOM     31  N   UNL     1     -10.775 -43.642  32.550  1.00  0.00    -0.252 NA
ATOM     32  C   UNL     1      -8.639 -44.689  32.133  1.00  0.00     0.056 C 
ATOM     33  C   UNL     1      -8.580 -46.740  30.718  1.00  0.00     0.005 C 
ATOM     34  C   UNL     1     -14.880 -43.146  32.212  1.00  0.00     0.021 A 
ATOM     35  C   UNL     1     -12.749 -42.578  33.180  1.00  0.00     0.049 A 
ATOM     36  C   UNL     1      -7.850 -45.456  31.079  1.00  0.00     0.007 C 
ATOM     37  C   UNL     1     -14.124 -42.389  33.095  1.00  0.00     0.043 A 
ATOM     38  Cl  UNL     1     -14.895 -41.219  34.092  1.00  0.00    -0.084 Cl
ENDBRANCH  22  24
ENDBRANCH  21  22
ENDBRANCH  20  21
ENDBRANCH   1  20
TORSDOF 8
ENDMDL
MODEL 4
REMARK VINA RESULT:   -11.595      2.393      4.388
REMARK INTER + INTRA:         -17.590
REMARK INTER:                 -17.002
REMARK INTRA:                  -0.588
REMARK UNBOUND:                -0.911
REMARK SMILES Cc1cc(O)nc2c1C(=O)C(NCCCCNc1c3c(nc4cc(Cl)ccc14)CCCC3)=CC2=O
REMARK SMILES IDX 14 1 13 2 12 3 11 5 4 6 3 7 6 8 2 9 7 10 8 11 34 12 9 13
REMARK SMILES IDX 33 14 1 15 35 16 10 17 5 18 15 20 16 21 17 22 18 24 19 25
REMARK SMILES IDX 28 26 20 27 32 28 27 29 22 30 21 31 29 32 31 33 26 34 23 35
REMARK SMILES IDX 30 36 24 37 25 38
REMARK H PARENT 12 4 5 19 17 23
ROOT
ATOM      1  C   UNL     1     -13.179 -44.769  27.085  1.00  0.00     0.023 C 
ENDROOT
BRANCH   1   2
ATOM      2  C   UNL     1     -13.386 -43.356  26.541  1.00  0.00     0.113 C 
BRANCH   2   3
ATOM      3  N   UNL     1     -14.608 -43.283  25.756  1.00  0.00    -0.382 N 
ATOM      4  H   UNL     1     -14.579 -43.816  24.890  1.00  0.00     0.160 HD
BRANCH   3   5
ATOM      5  C   UNL     1     -15.882 -42.890  26.162  1.00  0.00     0.087 C 
ATOM      6  C   UNL     1     -20.752 -41.525  26.675  1.00  0.00     0.211 A 
ATOM      7  C   UNL     1     -20.608 -41.479  25.307  1.00  0.00     0.072 A 
ATOM      8  N   UNL     1     -19.786 -41.845  27.536  1.00  0.00    -0.209 NA
ATOM      9  C   UNL     1     -19.356 -41.788  24.755  1.00  0.00    -0.032 A 
ATOM     10  C   UNL     1     -18.573 -42.142  26.991  1.00  0.00     0.126 A 
ATOM     11  C   UNL     1     -18.297 -42.129  25.628  1.00  0.00     0.057 A 
ATOM     12  C   UNL     1     -17.528 -42.497  27.975  1.00  0.00     0.207 C 
ATOM     13  C   UNL     1     -16.928 -42.457  25.153  1.00  0.00     0.211 C 
ATOM     14  C   UNL     1     -16.209 -42.886  27.459  1.00  0.00     0.084 C 
ATOM     15  C   UNL     1     -19.216 -41.735  23.257  1.00  0.00     0.045 C 
ATOM     16  O   UNL     1     -17.719 -42.486  29.185  1.00  0.00    -0.287 OA
ATOM     17  O   UNL     1     -16.661 -42.362  23.960  1.00  0.00    -0.287 OA
BRANCH   6  18
ATOM     18  O   UNL     1     -21.941 -41.235  27.254  1.00  0.00    -0.493 OA
ATOM     19  H   UNL     1     -21.789 -40.308  27.518  1.00  0.00     0.295 HD
ENDBRANCH   6  18
ENDBRANCH   3   5
ENDBRANCH   2   3
ENDBRANCH   1   2
BRANCH   1  20
ATOM     20  C   UNL     1     -13.738 -44.963  28.498  1.00  0.00     0.023 C 
BRANCH  20  21
ATOM     21  C   UNL     1     -13.124 -46.151  29.237  1.00  0.00     0.113 C 
BRANCH  21  22
ATOM     22  N   UNL     1     -13.362 -46.079  30.690  1.00  0.00    -0.384 N 
ATOM     23  H   UNL     1     -14.323 -45.782  30.862  1.00  0.00     0.160 HD
BRANCH  22  24
ATOM     24  C   UNL     1     -12.502 -45.179  31.383  1.00  0.00     0.049 A 
ATOM     25  C   UNL     1     -13.081 -44.084  32.056  1.00  0.00    -0.003 A 
ATOM     26  C   UNL     1     -11.088 -45.359  31.417  1.00  0.00     0.024 A 
ATOM     27  C   UNL     1     -12.239 -43.259  32.803  1.00  0.00     0.046 A 
ATOM     28  C   UNL     1     -14.569 -43.827  32.002  1.00  0.00     0.039 C 
ATOM     29  C   UNL     1     -10.389 -46.373  30.713  1.00  0.00     0.014 A 
ATOM     30  C   UNL     1     -10.341 -44.450  32.196  1.00  0.00     0.074 A 
ATOM     31  N   UNL     1     -10.899 -43.441  32.874  1.00  0.00    -0.252 NA
ATOM     32  C   UNL     1     -12.758 -42.046  33.532  1.00  0.00     0.056 C 
ATOM     33  C   UNL     1     -14.966 -42.417  32.437  1.00  0.00     0.005 C 
ATOM     34  C   UNL     1      -9.003 -46.491  30.798  1.00  0.00     0.021 A 
ATOM     35  C   UNL     1      -8.963 -44.587  32.272  1.00  0.00     0.049 A 
ATOM     36  C   UNL     1     -14.268 -42.055  33.739  1.00  0.00     0.007 C 
ATOM     37  C   UNL     1      -8.295 -45.595  31.585  1.00  0.00     0.043 A 
ATOM     38  Cl  UNL     1      -6.585 -45.729  31.704  1.00  0.00    -0.084 Cl
ENDBRANCH  22  24
ENDBRANCH  21  22
ENDBRANCH  20  21
ENDBRANCH   1  20
TORSDOF 8
ENDMDL
MODEL 5
REMARK VINA RESULT:   -11.410      4.073     11.011
REMARK INTER + INTRA:         -17.324
REMARK INTER:                 -16.702
REMARK INTRA:                  -0.622
REMARK UNBOUND:                -0.911
REMARK SMILES Cc1cc(O)nc2c1C(=O)C(NCCCCNc1c3c(nc4cc(Cl)ccc14)CCCC3)=CC2=O
REMARK SMILES IDX 14 1 13 2 12 3 11 5 4 6 3 7 6 8 2 9 7 10 8 11 34 12 9 13
REMARK SMILES IDX 33 14 1 15 35 16 10 17 5 18 15 20 16 21 17 22 18 24 19 25
REMARK SMILES IDX 28 26 20 27 32 28 27 29 22 30 21 31 29 32 31 33 26 34 23 35
REMARK SMILES IDX 30 36 24 37 25 38
REMARK H PARENT 12 4 5 19 17 23
ROOT
ATOM      1  C   UNL     1     -14.918 -42.389  24.974  1.00  0.00     0.023 C 
ENDROOT
BRANCH   1   2
ATOM      2  C   UNL     1     -15.067 -43.256  26.224  1.00  0.00     0.113 C 
BRANCH   2   3
ATOM      3  N   UNL     1     -13.852 -44.014  26.471  1.00  0.00    -0.382 N 
ATOM      4  H   UNL     1     -13.557 -44.595  25.690  1.00  0.00     0.160 HD
BRANCH   3   5
ATOM      5  C   UNL     1     -12.880 -43.809  27.449  1.00  0.00     0.087 C 
ATOM      6  C   UNL     1      -9.702 -43.896  31.416  1.00  0.00     0.211 A 
ATOM      7  C   UNL     1     -10.601 -44.873  31.777  1.00  0.00     0.072 A 
ATOM      8  N   UNL     1      -9.765 -43.173  30.298  1.00  0.00    -0.209 NA
ATOM      9  C   UNL     1     -11.674 -45.146  30.917  1.00  0.00    -0.032 A 
ATOM     10  C   UNL     1     -10.812 -43.445  29.468  1.00  0.00     0.126 A 
ATOM     11  C   UNL     1     -11.788 -44.403  29.719  1.00  0.00     0.057 A 
ATOM     12  C   UNL     1     -10.846 -42.628  28.236  1.00  0.00     0.207 C 
ATOM     13  C   UNL     1     -12.892 -44.597  28.744  1.00  0.00     0.211 C 
ATOM     14  C   UNL     1     -11.913 -42.904  27.265  1.00  0.00     0.084 C 
ATOM     15  C   UNL     1     -12.648 -46.219  31.325  1.00  0.00     0.045 C 
ATOM     16  O   UNL     1     -10.027 -41.750  27.993  1.00  0.00    -0.287 OA
ATOM     17  O   UNL     1     -13.799 -45.381  29.005  1.00  0.00    -0.287 OA
BRANCH   6  18
ATOM     18  O   UNL     1      -8.650 -43.596  32.214  1.00  0.00    -0.493 OA
ATOM     19  H   UNL     1      -9.096 -43.080  32.911  1.00  0.00     0.295 HD
ENDBRANCH   6  18
ENDBRANCH   3   5
ENDBRANCH   2   3
ENDBRANCH   1   2
BRANCH   1  20
ATOM     20  C   UNL     1     -15.688 -42.929  23.766  1.00  0.00     0.023 C 
BRANCH  20  21
ATOM     21  C   UNL     1     -16.519 -41.865  23.050  1.00  0.00     0.113 C 
BRANCH  21  22
ATOM     22  N   UNL     1     -17.812 -42.397  22.584  1.00  0.00    -0.384 N 
ATOM     23  H   UNL     1     -17.806 -42.459  21.566  1.00  0.00     0.160 HD
BRANCH  22  24
ATOM     24  C   UNL     1     -18.941 -41.613  22.961  1.00  0.00     0.049 A 
ATOM     25  C   UNL     1     -19.465 -41.774  24.259  1.00  0.00    -0.003 A 
ATOM     26  C   UNL     1     -19.544 -40.679  22.069  1.00  0.00     0.024 A 
ATOM     27  C   UNL     1     -20.516 -40.942  24.647  1.00  0.00     0.046 A 
ATOM     28  C   UNL     1     -18.890 -42.791  25.217  1.00  0.00     0.039 C 
ATOM     29  C   UNL     1     -19.156 -40.490  20.718  1.00  0.00     0.014 A 
ATOM     30  C   UNL     1     -20.610 -39.902  22.573  1.00  0.00     0.074 A 
ATOM     31  N   UNL     1     -21.072 -40.023  23.822  1.00  0.00    -0.252 NA
ATOM     32  C   UNL     1     -21.163 -41.058  26.003  1.00  0.00     0.056 C 
ATOM     33  C   UNL     1     -19.803 -43.108  26.400  1.00  0.00     0.005 C 
ATOM     34  C   UNL     1     -19.789 -39.550  19.906  1.00  0.00     0.021 A 
ATOM     35  C   UNL     1     -21.225 -38.970  21.750  1.00  0.00     0.049 A 
ATOM     36  C   UNL     1     -20.322 -41.819  27.020  1.00  0.00     0.007 C 
ATOM     37  C   UNL     1     -20.822 -38.790  20.431  1.00  0.00     0.043 A 
ATOM     38  Cl  UNL     1     -21.612 -37.624  19.443  1.00  0.00    -0.084 Cl
ENDBRANCH  22  24
ENDBRANCH  21  22
ENDBRANCH  20  21
ENDBRANCH   1  20
TORSDOF 8
ENDMDL
MODEL 6
REMARK VINA RESULT:   -11.074      1.892      3.227
REMARK INTER + INTRA:         -16.840
REMARK INTER:                 -16.201
REMARK INTRA:                  -0.639
REMARK UNBOUND:                -0.911
REMARK SMILES Cc1cc(O)nc2c1C(=O)C(NCCCCNc1c3c(nc4cc(Cl)ccc14)CCCC3)=CC2=O
REMARK SMILES IDX 14 1 13 2 12 3 11 5 4 6 3 7 6 8 2 9 7 10 8 11 34 12 9 13
REMARK SMILES IDX 33 14 1 15 35 16 10 17 5 18 15 20 16 21 17 22 18 24 19 25
REMARK SMILES IDX 28 26 20 27 32 28 27 29 22 30 21 31 29 32 31 33 26 34 23 35
REMARK SMILES IDX 30 36 24 37 25 38
REMARK H PARENT 12 4 5 19 17 23
ROOT
ATOM      1  C   UNL     1     -13.891 -44.074  26.282  1.00  0.00     0.023 C 
ENDROOT
BRANCH   1   2
ATOM      2  C   UNL     1     -14.740 -42.839  25.984  1.00  0.00     0.113 C 
BRANCH   2   3
ATOM      3  N   UNL     1     -15.932 -43.204  25.235  1.00  0.00    -0.382 N 
ATOM      4  H   UNL     1     -15.898 -44.135  24.827  1.00  0.00     0.160 HD
BRANCH   3   5
ATOM      5  C   UNL     1     -17.200 -42.628  25.282  1.00  0.00     0.087 C 
ATOM      6  C   UNL     1     -21.752 -40.519  24.459  1.00  0.00     0.211 A 
ATOM      7  C   UNL     1     -21.194 -40.439  23.204  1.00  0.00     0.072 A 
ATOM      8  N   UNL     1     -21.149 -41.026  25.534  1.00  0.00    -0.209 NA
ATOM      9  C   UNL     1     -19.890 -40.922  23.019  1.00  0.00    -0.032 A 
ATOM     10  C   UNL     1     -19.882 -41.492  25.346  1.00  0.00     0.126 A 
ATOM     11  C   UNL     1     -19.206 -41.466  24.132  1.00  0.00     0.057 A 
ATOM     12  C   UNL     1     -19.247 -42.052  26.558  1.00  0.00     0.207 C 
ATOM     13  C   UNL     1     -17.817 -41.990  24.053  1.00  0.00     0.211 C 
ATOM     14  C   UNL     1     -17.903 -42.627  26.420  1.00  0.00     0.084 C 
ATOM     15  C   UNL     1     -19.294 -40.828  21.640  1.00  0.00     0.045 C 
ATOM     16  O   UNL     1     -19.794 -42.062  27.655  1.00  0.00    -0.287 OA
ATOM     17  O   UNL     1     -17.190 -41.888  23.004  1.00  0.00    -0.287 OA
BRANCH   6  18
ATOM     18  O   UNL     1     -23.008 -40.066  24.687  1.00  0.00    -0.493 OA
ATOM     19  H   UNL     1     -23.318 -40.722  25.339  1.00  0.00     0.295 HD
ENDBRANCH   6  18
ENDBRANCH   3   5
ENDBRANCH   2   3
ENDBRANCH   1   2
BRANCH   1  20
ATOM     20  C   UNL     1     -13.932 -44.497  27.753  1.00  0.00     0.023 C 
BRANCH  20  21
ATOM     21  C   UNL     1     -12.661 -45.209  28.216  1.00  0.00     0.113 C 
BRANCH  21  22
ATOM     22  N   UNL     1     -12.830 -45.833  29.540  1.00  0.00    -0.384 N 
ATOM     23  H   UNL     1     -13.823 -45.886  29.766  1.00  0.00     0.160 HD
BRANCH  22  24
ATOM     24  C   UNL     1     -12.183 -45.139  30.605  1.00  0.00     0.049 A 
ATOM     25  C   UNL     1     -10.813 -45.382  30.826  1.00  0.00    -0.003 A 
ATOM     26  C   UNL     1     -12.879 -44.216  31.438  1.00  0.00     0.024 A 
ATOM     27  C   UNL     1     -10.171 -44.635  31.815  1.00  0.00     0.046 A 
ATOM     28  C   UNL     1     -10.051 -46.392  30.002  1.00  0.00     0.039 C 
ATOM     29  C   UNL     1     -14.271 -43.953  31.361  1.00  0.00     0.014 A 
ATOM     30  C   UNL     1     -12.123 -43.530  32.412  1.00  0.00     0.074 A 
ATOM     31  N   UNL     1     -10.811 -43.726  32.587  1.00  0.00    -0.252 NA
ATOM     32  C   UNL     1      -8.715 -44.842  32.148  1.00  0.00     0.056 C 
ATOM     33  C   UNL     1      -8.717 -46.811  30.619  1.00  0.00     0.005 C 
ATOM     34  C   UNL     1     -14.883 -43.029  32.206  1.00  0.00     0.021 A 
ATOM     35  C   UNL     1     -12.749 -42.612  33.242  1.00  0.00     0.049 A 
ATOM     36  C   UNL     1      -7.939 -45.583  31.065  1.00  0.00     0.007 C 
ATOM     37  C   UNL     1     -14.113 -42.358  33.144  1.00  0.00     0.043 A 
ATOM     38  Cl  UNL     1     -14.851 -41.212  34.193  1.00  0.00    -0.084 Cl
ENDBRANCH  22  24
ENDBRANCH  21  22
ENDBRANCH  20  21
ENDBRANCH   1  20
TORSDOF 8
ENDMDL
MODEL 7
REMARK VINA RESULT:   -10.805      4.129     11.197
REMARK INTER + INTRA:         -16.454
REMARK INTER:                 -15.900
REMARK INTRA:                  -0.553
REMARK UNBOUND:                -0.911
REMARK SMILES Cc1cc(O)nc2c1C(=O)C(NCCCCNc1c3c(nc4cc(Cl)ccc14)CCCC3)=CC2=O
REMARK SMILES IDX 14 1 13 2 12 3 11 5 4 6 3 7 6 8 2 9 7 10 8 11 34 12 9 13
REMARK SMILES IDX 33 14 1 15 35 16 10 17 5 18 15 20 16 21 17 22 18 24 19 25
REMARK SMILES IDX 28 26 20 27 32 28 27 29 22 30 21 31 29 32 31 33 26 34 23 35
REMARK SMILES IDX 30 36 24 37 25 38
REMARK H PARENT 12 4 5 19 17 23
ROOT
ATOM      1  C   UNL     1     -15.791 -43.181  24.910  1.00  0.00     0.023 C 
ENDROOT
BRANCH   1   2
ATOM      2  C   UNL     1     -14.573 -43.906  25.481  1.00  0.00     0.113 C 
BRANCH   2   3
ATOM      3  N   UNL     1     -14.358 -43.534  26.870  1.00  0.00    -0.382 N 
ATOM      4  H   UNL     1     -15.124 -43.008  27.283  1.00  0.00     0.160 HD
BRANCH   3   5
ATOM      5  C   UNL     1     -13.450 -44.065  27.783  1.00  0.00     0.087 C 
ATOM      6  C   UNL     1      -9.562 -45.235  30.844  1.00  0.00     0.211 A 
ATOM      7  C   UNL     1      -8.995 -44.258  30.060  1.00  0.00     0.072 A 
ATOM      8  N   UNL     1     -10.812 -45.683  30.725  1.00  0.00    -0.209 NA
ATOM      9  C   UNL     1      -9.774 -43.674  29.049  1.00  0.00    -0.032 A 
ATOM     10  C   UNL     1     -11.561 -45.111  29.740  1.00  0.00     0.126 A 
ATOM     11  C   UNL     1     -11.106 -44.119  28.880  1.00  0.00     0.057 A 
ATOM     12  C   UNL     1     -12.943 -45.629  29.641  1.00  0.00     0.207 C 
ATOM     13  C   UNL     1     -12.013 -43.583  27.832  1.00  0.00     0.211 C 
ATOM     14  C   UNL     1     -13.829 -45.019  28.641  1.00  0.00     0.084 C 
ATOM     15  C   UNL     1      -9.139 -42.605  28.201  1.00  0.00     0.045 C 
ATOM     16  O   UNL     1     -13.373 -46.527  30.355  1.00  0.00    -0.287 OA
ATOM     17  O   UNL     1     -11.586 -42.770  27.019  1.00  0.00    -0.287 OA
BRANCH   6  18
ATOM     18  O   UNL     1      -8.851 -45.828  31.831  1.00  0.00    -0.493 OA
ATOM     19  H   UNL     1      -8.143 -45.170  31.962  1.00  0.00     0.295 HD
ENDBRANCH   6  18
ENDBRANCH   3   5
ENDBRANCH   2   3
ENDBRANCH   1   2
BRANCH   1  20
ATOM     20  C   UNL     1     -15.569 -42.644  23.493  1.00  0.00     0.023 C 
BRANCH  20  21
ATOM     21  C   UNL     1     -16.610 -41.611  23.065  1.00  0.00     0.113 C 
BRANCH  21  22
ATOM     22  N   UNL     1     -17.878 -42.242  22.658  1.00  0.00    -0.384 N 
ATOM     23  H   UNL     1     -17.867 -42.407  21.651  1.00  0.00     0.160 HD
BRANCH  22  24
ATOM     24  C   UNL     1     -19.041 -41.474  22.956  1.00  0.00     0.049 A 
ATOM     25  C   UNL     1     -19.636 -41.626  24.224  1.00  0.00    -0.003 A 
ATOM     26  C   UNL     1     -19.607 -40.565  22.016  1.00  0.00     0.024 A 
ATOM     27  C   UNL     1     -20.723 -40.808  24.536  1.00  0.00     0.046 A 
ATOM     28  C   UNL     1     -19.100 -42.618  25.229  1.00  0.00     0.039 C 
ATOM     29  C   UNL     1     -19.144 -40.389  20.686  1.00  0.00     0.014 A 
ATOM     30  C   UNL     1     -20.714 -39.801  22.444  1.00  0.00     0.074 A 
ATOM     31  N   UNL     1     -21.246 -39.912  23.666  1.00  0.00    -0.252 NA
ATOM     32  C   UNL     1     -21.446 -40.915  25.854  1.00  0.00     0.056 C 
ATOM     33  C   UNL     1     -20.076 -42.933  26.363  1.00  0.00     0.005 C 
ATOM     34  C   UNL     1     -19.745 -39.474  19.824  1.00  0.00     0.021 A 
ATOM     35  C   UNL     1     -21.296 -38.893  21.572  1.00  0.00     0.049 A 
ATOM     36  C   UNL     1     -20.653 -41.646  26.930  1.00  0.00     0.007 C 
ATOM     37  C   UNL     1     -20.821 -38.725  20.276  1.00  0.00     0.043 A 
ATOM     38  Cl  UNL     1     -21.572 -37.589  19.225  1.00  0.00    -0.084 Cl
ENDBRANCH  22  24
ENDBRANCH  21  22
ENDBRANCH  20  21
ENDBRANCH   1  20
TORSDOF 8
ENDMDL
MODEL 8
REMARK VINA RESULT:   -10.726      4.001     11.208
REMARK INTER + INTRA:         -16.340
REMARK INTER:                 -15.933
REMARK INTRA:                  -0.407
REMARK UNBOUND:                -0.911
REMARK SMILES Cc1cc(O)nc2c1C(=O)C(NCCCCNc1c3c(nc4cc(Cl)ccc14)CCCC3)=CC2=O
REMARK SMILES IDX 14 1 13 2 12 3 11 5 4 6 3 7 6 8 2 9 7 10 8 11 34 12 9 13
REMARK SMILES IDX 33 14 1 15 35 16 10 17 5 18 15 20 16 21 17 22 18 24 19 25
REMARK SMILES IDX 28 26 20 27 32 28 27 29 22 30 21 31 29 32 31 33 26 34 23 35
REMARK SMILES IDX 30 36 24 37 25 38
REMARK H PARENT 12 4 5 19 17 23
ROOT
ATOM      1  C   UNL     1     -15.583 -43.216  26.142  1.00  0.00     0.023 C 
ENDROOT
BRANCH   1   2
ATOM      2  C   UNL     1     -14.076 -42.963  26.177  1.00  0.00     0.113 C 
BRANCH   2   3
ATOM      3  N   UNL     1     -13.437 -43.809  27.172  1.00  0.00    -0.382 N 
ATOM      4  H   UNL     1     -13.784 -44.765  27.191  1.00  0.00     0.160 HD
BRANCH   3   5
ATOM      5  C   UNL     1     -12.230 -43.608  27.840  1.00  0.00     0.087 C 
ATOM      6  C   UNL     1      -8.045 -43.741  30.723  1.00  0.00     0.211 A 
ATOM      7  C   UNL     1      -8.780 -44.762  31.279  1.00  0.00     0.072 A 
ATOM      8  N   UNL     1      -8.442 -42.978  29.705  1.00  0.00    -0.209 NA
ATOM      9  C   UNL     1     -10.050 -45.038  30.750  1.00  0.00    -0.032 A 
ATOM     10  C   UNL     1      -9.677 -43.253  29.198  1.00  0.00     0.126 A 
ATOM     11  C   UNL     1     -10.519 -44.253  29.671  1.00  0.00     0.057 A 
ATOM     12  C   UNL     1     -10.082 -42.391  28.067  1.00  0.00     0.207 C 
ATOM     13  C   UNL     1     -11.852 -44.447  29.046  1.00  0.00     0.211 C 
ATOM     14  C   UNL     1     -11.376 -42.665  27.429  1.00  0.00     0.084 C 
ATOM     15  C   UNL     1     -10.841 -46.159  31.369  1.00  0.00     0.045 C 
ATOM     16  O   UNL     1      -9.386 -41.476  27.641  1.00  0.00    -0.287 OA
ATOM     17  O   UNL     1     -12.629 -45.270  29.518  1.00  0.00    -0.287 OA
BRANCH   6  18
ATOM     18  O   UNL     1      -6.815 -43.437  31.200  1.00  0.00    -0.493 OA
ATOM     19  H   UNL     1      -6.374 -43.142  30.381  1.00  0.00     0.295 HD
ENDBRANCH   6  18
ENDBRANCH   3   5
ENDBRANCH   2   3
ENDBRANCH   1   2
BRANCH   1  20
ATOM     20  C   UNL     1     -16.230 -42.841  24.806  1.00  0.00     0.023 C 
BRANCH  20  21
ATOM     21  C   UNL     1     -17.672 -42.356  24.944  1.00  0.00     0.113 C 
BRANCH  21  22
ATOM     22  N   UNL     1     -18.532 -42.865  23.861  1.00  0.00    -0.384 N 
ATOM     23  H   UNL     1     -18.212 -42.488  22.968  1.00  0.00     0.160 HD
BRANCH  22  24
ATOM     24  C   UNL     1     -19.911 -42.535  23.998  1.00  0.00     0.049 A 
ATOM     25  C   UNL     1     -20.403 -41.412  23.305  1.00  0.00    -0.003 A 
ATOM     26  C   UNL     1     -20.795 -43.307  24.808  1.00  0.00     0.024 A 
ATOM     27  C   UNL     1     -21.771 -41.148  23.378  1.00  0.00     0.046 A 
ATOM     28  C   UNL     1     -19.489 -40.537  22.479  1.00  0.00     0.039 C 
ATOM     29  C   UNL     1     -20.398 -44.405  25.613  1.00  0.00     0.014 A 
ATOM     30  C   UNL     1     -22.156 -42.933  24.811  1.00  0.00     0.074 A 
ATOM     31  N   UNL     1     -22.629 -41.896  24.112  1.00  0.00    -0.252 NA
ATOM     32  C   UNL     1     -22.389 -39.954  22.696  1.00  0.00     0.056 C 
ATOM     33  C   UNL     1     -20.090 -39.175  22.132  1.00  0.00     0.005 C 
ATOM     34  C   UNL     1     -21.323 -45.118  26.374  1.00  0.00     0.021 A 
ATOM     35  C   UNL     1     -23.061 -43.657  25.573  1.00  0.00     0.049 A 
ATOM     36  C   UNL     1     -21.508 -39.346  21.612  1.00  0.00     0.007 C 
ATOM     37  C   UNL     1     -22.656 -44.740  26.347  1.00  0.00     0.043 A 
ATOM     38  Cl  UNL     1     -23.810 -45.611  27.279  1.00  0.00    -0.084 Cl
ENDBRANCH  22  24
ENDBRANCH  21  22
ENDBRANCH  20  21
ENDBRANCH   1  20
TORSDOF 8
ENDMDL
