MODEL 1
REMARK VINA RESULT:    -9.855      0.000      0.000
REMARK INTER + INTRA:         -15.029
REMARK INTER:                 -13.599
REMARK INTRA:                  -1.430
REMARK UNBOUND:                -1.430
REMARK SMILES COc1ccc(OC)c([C@@H]2C=C(c3cc(F)ccc3F)NN2c2ccc(S(N)(=O)=O)cc2)c1
REMARK SMILES IDX 23 1 24 2 25 3 26 4 31 5 32 6 22 7 21 8 12 9 11 10 10 11
REMARK SMILES IDX 13 13 14 14 19 15 15 16 18 17 17 18 20 19 16 20 9 21 33 22
REMARK SMILES IDX 6 23 3 24 5 25 4 26 7 27 8 28 2 29 1 30 27 31 29 32 30 33
REMARK SMILES IDX 28 34
REMARK H PARENT 21 12 28 35 28 36
ROOT
ATOM      1  C   UNL     1     -17.906 -42.284  25.093  1.00  0.00     0.058 A 
ATOM      2  C   UNL     1     -16.851 -42.765  24.295  1.00  0.00     0.029 A 
ATOM      3  C   UNL     1     -15.668 -43.261  24.853  1.00  0.00     0.024 A 
ATOM      4  C   UNL     1     -15.527 -43.287  26.238  1.00  0.00     0.082 A 
ATOM      5  C   UNL     1     -16.541 -42.801  27.060  1.00  0.00     0.024 A 
ATOM      6  C   UNL     1     -17.718 -42.308  26.485  1.00  0.00     0.029 A 
ENDROOT
BRANCH   1   7
ATOM      7  N   UNL     1     -19.075 -41.807  24.503  1.00  0.00    -0.276 N 
ATOM      8  N   UNL     1     -19.233 -41.489  23.166  1.00  0.00    -0.297 N 
ATOM      9  C   UNL     1     -20.472 -40.893  22.963  1.00  0.00     0.063 C 
ATOM     10  C   UNL     1     -21.170 -40.895  24.111  1.00  0.00     0.033 C 
ATOM     11  C   UNL     1     -20.346 -41.513  25.230  1.00  0.00     0.165 C 
ATOM     12  H   UNL     1     -18.476 -40.951  22.735  1.00  0.00     0.188 HD
BRANCH   9  13
ATOM     13  C   UNL     1     -20.865 -40.320  21.671  1.00  0.00     0.038 A 
ATOM     14  C   UNL     1     -21.546 -41.094  20.720  1.00  0.00     0.052 A 
ATOM     15  C   UNL     1     -20.554 -38.993  21.332  1.00  0.00     0.132 A 
ATOM     16  C   UNL     1     -21.903 -40.543  19.490  1.00  0.00     0.124 A 
ATOM     17  C   UNL     1     -20.914 -38.445  20.101  1.00  0.00     0.043 A 
ATOM     18  C   UNL     1     -21.595 -39.227  19.172  1.00  0.00     0.042 A 
ATOM     19  F   UNL     1     -19.906 -38.203  22.206  1.00  0.00    -0.206 F 
ATOM     20  F   UNL     1     -22.555 -41.300  18.598  1.00  0.00    -0.207 F 
ENDBRANCH   9  13
BRANCH  11  21
ATOM     21  C   UNL     1     -21.024 -42.746  25.807  1.00  0.00     0.026 A 
ATOM     22  C   UNL     1     -20.838 -44.014  25.215  1.00  0.00     0.056 A 
ATOM     23  C   UNL     1     -21.882 -42.639  26.917  1.00  0.00     0.124 A 
ATOM     24  C   UNL     1     -21.463 -45.156  25.716  1.00  0.00     0.119 A 
ATOM     25  C   UNL     1     -22.507 -43.786  27.419  1.00  0.00     0.050 A 
ATOM     26  C   UNL     1     -22.297 -45.036  26.823  1.00  0.00     0.050 A 
BRANCH  23  27
ATOM     27  O   UNL     1     -22.042 -41.382  27.435  1.00  0.00    -0.496 OA
ATOM     28  C   UNL     1     -23.322 -40.773  27.307  1.00  0.00     0.278 C 
ENDBRANCH  23  27
BRANCH  24  29
ATOM     29  O   UNL     1     -21.180 -46.310  25.042  1.00  0.00    -0.497 OA
ATOM     30  C   UNL     1     -22.227 -46.880  24.267  1.00  0.00     0.278 C 
ENDBRANCH  24  29
ENDBRANCH  11  21
ENDBRANCH   1   7
BRANCH   4  31
ATOM     31  S   UNL     1     -14.046 -43.929  26.966  1.00  0.00     0.238 S 
ATOM     32  O   UNL     1     -13.049 -42.884  26.980  1.00  0.00    -0.207 OA
ATOM     33  O   UNL     1     -13.791 -45.241  26.417  1.00  0.00    -0.207 OA
BRANCH  31  34
ATOM     34  N   UNL     1     -14.545 -44.192  28.555  1.00  0.00    -0.225 NA
ATOM     35  H   UNL     1     -14.558 -45.179  28.809  1.00  0.00     0.137 HD
ATOM     36  H   UNL     1     -13.947 -43.648  29.179  1.00  0.00     0.137 HD
ENDBRANCH  31  34
ENDBRANCH   4  31
TORSDOF 7
ENDMDL
MODEL 2
REMARK VINA RESULT:    -9.649      0.736      1.661
REMARK INTER + INTRA:         -14.745
REMARK INTER:                 -13.364
REMARK INTRA:                  -1.382
REMARK UNBOUND:                -1.430
REMARK SMILES COc1ccc(OC)c([C@@H]2C=C(c3cc(F)ccc3F)NN2c2ccc(S(N)(=O)=O)cc2)c1
REMARK SMILES IDX 23 1 24 2 25 3 26 4 31 5 32 6 22 7 21 8 12 9 11 10 10 11
REMARK SMILES IDX 13 13 14 14 19 15 15 16 18 17 17 18 20 19 16 20 9 21 33 22
REMARK SMILES IDX 6 23 3 24 5 25 4 26 7 27 8 28 2 29 1 30 27 31 29 32 30 33
REMARK SMILES IDX 28 34
REMARK H PARENT 21 12 28 35 28 36
ROOT
ATOM      1  C   UNL     1     -17.770 -42.324  24.909  1.00  0.00     0.058 A 
ATOM      2  C   UNL     1     -17.627 -42.340  26.309  1.00  0.00     0.029 A 
ATOM      3  C   UNL     1     -16.472 -42.829  26.929  1.00  0.00     0.024 A 
ATOM      4  C   UNL     1     -15.427 -43.306  26.143  1.00  0.00     0.082 A 
ATOM      5  C   UNL     1     -15.540 -43.323  24.754  1.00  0.00     0.024 A 
ATOM      6  C   UNL     1     -16.703 -42.832  24.150  1.00  0.00     0.029 A 
ENDROOT
BRANCH   1   7
ATOM      7  N   UNL     1     -18.931 -41.821  24.325  1.00  0.00    -0.276 N 
ATOM      8  N   UNL     1     -19.108 -41.552  22.980  1.00  0.00    -0.297 N 
ATOM      9  C   UNL     1     -20.324 -40.911  22.779  1.00  0.00     0.063 C 
ATOM     10  C   UNL     1     -20.994 -40.834  23.941  1.00  0.00     0.033 C 
ATOM     11  C   UNL     1     -20.171 -41.441  25.067  1.00  0.00     0.165 C 
ATOM     12  H   UNL     1     -18.339 -41.067  22.509  1.00  0.00     0.188 HD
BRANCH   9  13
ATOM     13  C   UNL     1     -20.723 -40.375  21.473  1.00  0.00     0.038 A 
ATOM     14  C   UNL     1     -20.724 -38.993  21.234  1.00  0.00     0.052 A 
ATOM     15  C   UNL     1     -21.138 -41.219  20.430  1.00  0.00     0.132 A 
ATOM     16  C   UNL     1     -21.117 -38.494  19.993  1.00  0.00     0.124 A 
ATOM     17  C   UNL     1     -21.531 -40.716  19.189  1.00  0.00     0.043 A 
ATOM     18  C   UNL     1     -21.519 -39.342  18.969  1.00  0.00     0.042 A 
ATOM     19  F   UNL     1     -21.154 -42.552  20.600  1.00  0.00    -0.206 F 
ATOM     20  F   UNL     1     -21.109 -37.171  19.786  1.00  0.00    -0.207 F 
ENDBRANCH   9  13
BRANCH  11  21
ATOM     21  C   UNL     1     -20.887 -42.617  25.712  1.00  0.00     0.026 A 
ATOM     22  C   UNL     1     -20.782 -43.913  25.162  1.00  0.00     0.056 A 
ATOM     23  C   UNL     1     -21.701 -42.429  26.844  1.00  0.00     0.124 A 
ATOM     24  C   UNL     1     -21.445 -45.004  25.725  1.00  0.00     0.119 A 
ATOM     25  C   UNL     1     -22.363 -43.524  27.408  1.00  0.00     0.050 A 
ATOM     26  C   UNL     1     -22.234 -44.804  26.853  1.00  0.00     0.050 A 
BRANCH  23  27
ATOM     27  O   UNL     1     -21.782 -41.146  27.319  1.00  0.00    -0.496 OA
ATOM     28  C   UNL     1     -23.055 -40.513  27.292  1.00  0.00     0.278 C 
ENDBRANCH  23  27
BRANCH  24  29
ATOM     29  O   UNL     1     -21.241 -46.194  25.085  1.00  0.00    -0.497 OA
ATOM     30  C   UNL     1     -22.325 -46.715  24.328  1.00  0.00     0.278 C 
ENDBRANCH  24  29
ENDBRANCH  11  21
ENDBRANCH   1   7
BRANCH   4  31
ATOM     31  S   UNL     1     -13.947 -43.909  26.906  1.00  0.00     0.238 S 
ATOM     32  O   UNL     1     -12.966 -42.850  26.908  1.00  0.00    -0.207 OA
ATOM     33  O   UNL     1     -13.667 -45.230  26.392  1.00  0.00    -0.207 OA
BRANCH  31  34
ATOM     34  N   UNL     1     -14.464 -44.141  28.494  1.00  0.00    -0.225 NA
ATOM     35  H   UNL     1     -13.980 -44.906  28.962  1.00  0.00     0.137 HD
ATOM     36  H   UNL     1     -14.363 -43.261  29.002  1.00  0.00     0.137 HD
ENDBRANCH  31  34
ENDBRANCH   4  31
TORSDOF 7
ENDMDL
MODEL 3
REMARK VINA RESULT:    -8.831      1.106      1.999
REMARK INTER + INTRA:         -13.617
REMARK INTER:                 -13.052
REMARK INTRA:                  -0.565
REMARK UNBOUND:                -1.430
REMARK SMILES COc1ccc(OC)c([C@@H]2C=C(c3cc(F)ccc3F)NN2c2ccc(S(N)(=O)=O)cc2)c1
REMARK SMILES IDX 23 1 24 2 25 3 26 4 31 5 32 6 22 7 21 8 12 9 11 10 10 11
REMARK SMILES IDX 13 13 14 14 19 15 15 16 18 17 17 18 20 19 16 20 9 21 33 22
REMARK SMILES IDX 6 23 3 24 5 25 4 26 7 27 8 28 2 29 1 30 27 31 29 32 30 33
REMARK SMILES IDX 28 34
REMARK H PARENT 21 12 28 35 28 36
ROOT
ATOM      1  C   UNL     1     -18.003 -42.267  24.968  1.00  0.00     0.058 A 
ATOM      2  C   UNL     1     -16.939 -42.756  24.185  1.00  0.00     0.029 A 
ATOM      3  C   UNL     1     -15.755 -43.230  24.761  1.00  0.00     0.024 A 
ATOM      4  C   UNL     1     -15.622 -43.226  26.147  1.00  0.00     0.082 A 
ATOM      5  C   UNL     1     -16.646 -42.733  26.953  1.00  0.00     0.024 A 
ATOM      6  C   UNL     1     -17.824 -42.262  26.361  1.00  0.00     0.029 A 
ENDROOT
BRANCH   1   7
ATOM      7  N   UNL     1     -19.172 -41.813  24.361  1.00  0.00    -0.276 N 
ATOM      8  N   UNL     1     -19.295 -41.414  23.042  1.00  0.00    -0.297 N 
ATOM      9  C   UNL     1     -20.556 -40.871  22.826  1.00  0.00     0.063 C 
ATOM     10  C   UNL     1     -21.298 -40.987  23.941  1.00  0.00     0.033 C 
ATOM     11  C   UNL     1     -20.485 -41.636  25.051  1.00  0.00     0.165 C 
ATOM     12  H   UNL     1     -18.553 -40.810  22.679  1.00  0.00     0.188 HD
BRANCH   9  13
ATOM     13  C   UNL     1     -20.929 -40.232  21.559  1.00  0.00     0.038 A 
ATOM     14  C   UNL     1     -21.651 -40.938  20.585  1.00  0.00     0.052 A 
ATOM     15  C   UNL     1     -20.559 -38.909  21.267  1.00  0.00     0.132 A 
ATOM     16  C   UNL     1     -21.989 -40.327  19.379  1.00  0.00     0.124 A 
ATOM     17  C   UNL     1     -20.901 -38.300  20.059  1.00  0.00     0.043 A 
ATOM     18  C   UNL     1     -21.622 -39.015  19.107  1.00  0.00     0.042 A 
ATOM     19  F   UNL     1     -19.871 -38.183  22.164  1.00  0.00    -0.206 F 
ATOM     20  F   UNL     1     -22.680 -41.019  18.464  1.00  0.00    -0.207 F 
ENDBRANCH   9  13
BRANCH  11  21
ATOM     21  C   UNL     1     -21.117 -42.939  25.517  1.00  0.00     0.026 A 
ATOM     22  C   UNL     1     -21.320 -43.189  26.891  1.00  0.00     0.056 A 
ATOM     23  C   UNL     1     -21.471 -43.935  24.589  1.00  0.00     0.124 A 
ATOM     24  C   UNL     1     -21.881 -44.384  27.343  1.00  0.00     0.119 A 
ATOM     25  C   UNL     1     -22.035 -45.132  25.045  1.00  0.00     0.050 A 
ATOM     26  C   UNL     1     -22.240 -45.354  26.412  1.00  0.00     0.050 A 
BRANCH  23  27
ATOM     27  O   UNL     1     -21.230 -43.645  23.272  1.00  0.00    -0.496 OA
ATOM     28  C   UNL     1     -22.164 -44.119  22.311  1.00  0.00     0.278 C 
ENDBRANCH  23  27
BRANCH  24  29
ATOM     29  O   UNL     1     -22.021 -44.477  28.699  1.00  0.00    -0.497 OA
ATOM     30  C   UNL     1     -23.341 -44.638  29.202  1.00  0.00     0.278 C 
ENDBRANCH  24  29
ENDBRANCH  11  21
ENDBRANCH   1   7
BRANCH   4  31
ATOM     31  S   UNL     1     -14.140 -43.840  26.896  1.00  0.00     0.238 S 
ATOM     32  O   UNL     1     -13.159 -42.781  26.912  1.00  0.00    -0.207 OA
ATOM     33  O   UNL     1     -13.861 -45.153  26.362  1.00  0.00    -0.207 OA
BRANCH  31  34
ATOM     34  N   UNL     1     -14.653 -44.096  28.482  1.00  0.00    -0.225 NA
ATOM     35  H   UNL     1     -14.147 -44.849  28.947  1.00  0.00     0.137 HD
ATOM     36  H   UNL     1     -14.578 -43.217  28.996  1.00  0.00     0.137 HD
ENDBRANCH  31  34
ENDBRANCH   4  31
TORSDOF 7
ENDMDL
MODEL 4
REMARK VINA RESULT:    -8.766      4.169      7.254
REMARK INTER + INTRA:         -13.527
REMARK INTER:                 -11.725
REMARK INTRA:                  -1.802
REMARK UNBOUND:                -1.430
REMARK SMILES COc1ccc(OC)c([C@@H]2C=C(c3cc(F)ccc3F)NN2c2ccc(S(N)(=O)=O)cc2)c1
REMARK SMILES IDX 23 1 24 2 25 3 26 4 31 5 32 6 22 7 21 8 12 9 11 10 10 11
REMARK SMILES IDX 13 13 14 14 19 15 15 16 18 17 17 18 20 19 16 20 9 21 33 22
REMARK SMILES IDX 6 23 3 24 5 25 4 26 7 27 8 28 2 29 1 30 27 31 29 32 30 33
REMARK SMILES IDX 28 34
REMARK H PARENT 21 12 28 35 28 36
ROOT
ATOM      1  C   UNL     1     -22.071 -44.056  26.811  1.00  0.00     0.058 A 
ATOM      2  C   UNL     1     -22.231 -44.496  28.139  1.00  0.00     0.029 A 
ATOM      3  C   UNL     1     -23.270 -45.355  28.514  1.00  0.00     0.024 A 
ATOM      4  C   UNL     1     -24.170 -45.797  27.549  1.00  0.00     0.082 A 
ATOM      5  C   UNL     1     -24.056 -45.368  26.228  1.00  0.00     0.024 A 
ATOM      6  C   UNL     1     -23.012 -44.508  25.870  1.00  0.00     0.029 A 
ENDROOT
BRANCH   1   7
ATOM      7  N   UNL     1     -21.019 -43.209  26.471  1.00  0.00    -0.276 N 
ATOM      8  N   UNL     1     -19.831 -43.595  25.875  1.00  0.00    -0.297 N 
ATOM      9  C   UNL     1     -18.951 -42.521  25.832  1.00  0.00     0.063 C 
ATOM     10  C   UNL     1     -19.558 -41.417  26.298  1.00  0.00     0.033 C 
ATOM     11  C   UNL     1     -20.977 -41.740  26.739  1.00  0.00     0.165 C 
ATOM     12  H   UNL     1     -19.387 -44.437  26.251  1.00  0.00     0.188 HD
BRANCH   9  13
ATOM     13  C   UNL     1     -17.561 -42.663  25.383  1.00  0.00     0.038 A 
ATOM     14  C   UNL     1     -16.510 -42.721  26.310  1.00  0.00     0.052 A 
ATOM     15  C   UNL     1     -17.233 -42.721  24.019  1.00  0.00     0.132 A 
ATOM     16  C   UNL     1     -15.192 -42.843  25.873  1.00  0.00     0.124 A 
ATOM     17  C   UNL     1     -15.913 -42.845  23.585  1.00  0.00     0.043 A 
ATOM     18  C   UNL     1     -14.884 -42.907  24.520  1.00  0.00     0.042 A 
ATOM     19  F   UNL     1     -18.199 -42.675  23.086  1.00  0.00    -0.206 F 
ATOM     20  F   UNL     1     -14.204 -42.899  26.776  1.00  0.00    -0.207 F 
ENDBRANCH   9  13
BRANCH  11  21
ATOM     21  C   UNL     1     -22.004 -40.942  25.951  1.00  0.00     0.026 A 
ATOM     22  C   UNL     1     -21.801 -40.661  24.583  1.00  0.00     0.056 A 
ATOM     23  C   UNL     1     -23.154 -40.432  26.582  1.00  0.00     0.124 A 
ATOM     24  C   UNL     1     -22.720 -39.916  23.844  1.00  0.00     0.119 A 
ATOM     25  C   UNL     1     -24.074 -39.686  25.838  1.00  0.00     0.050 A 
ATOM     26  C   UNL     1     -23.859 -39.431  24.478  1.00  0.00     0.050 A 
BRANCH  23  27
ATOM     27  O   UNL     1     -23.285 -40.717  27.915  1.00  0.00    -0.496 OA
ATOM     28  C   UNL     1     -24.440 -41.439  28.325  1.00  0.00     0.278 C 
ENDBRANCH  23  27
BRANCH  24  29
ATOM     29  O   UNL     1     -22.390 -39.734  22.530  1.00  0.00    -0.497 OA
ATOM     30  C   UNL     1     -21.050 -39.351  22.247  1.00  0.00     0.278 C 
ENDBRANCH  24  29
ENDBRANCH  11  21
ENDBRANCH   1   7
BRANCH   4  31
ATOM     31  S   UNL     1     -25.480 -46.901  27.998  1.00  0.00     0.238 S 
ATOM     32  O   UNL     1     -25.364 -48.101  27.203  1.00  0.00    -0.207 OA
ATOM     33  O   UNL     1     -26.708 -46.146  28.094  1.00  0.00    -0.207 OA
BRANCH  31  34
ATOM     34  N   UNL     1     -25.059 -47.286  29.584  1.00  0.00    -0.225 NA
ATOM     35  H   UNL     1     -25.867 -47.485  30.172  1.00  0.00     0.137 HD
ATOM     36  H   UNL     1     -24.402 -48.067  29.567  1.00  0.00     0.137 HD
ENDBRANCH  31  34
ENDBRANCH   4  31
TORSDOF 7
ENDMDL
MODEL 5
REMARK VINA RESULT:    -8.738      4.493      7.710
REMARK INTER + INTRA:         -13.488
REMARK INTER:                 -11.765
REMARK INTRA:                  -1.723
REMARK UNBOUND:                -1.430
REMARK SMILES COc1ccc(OC)c([C@@H]2C=C(c3cc(F)ccc3F)NN2c2ccc(S(N)(=O)=O)cc2)c1
REMARK SMILES IDX 23 1 24 2 25 3 26 4 31 5 32 6 22 7 21 8 12 9 11 10 10 11
REMARK SMILES IDX 13 13 14 14 19 15 15 16 18 17 17 18 20 19 16 20 9 21 33 22
REMARK SMILES IDX 6 23 3 24 5 25 4 26 7 27 8 28 2 29 1 30 27 31 29 32 30 33
REMARK SMILES IDX 28 34
REMARK H PARENT 21 12 28 35 28 36
ROOT
ATOM      1  C   UNL     1     -20.821 -40.786  22.046  1.00  0.00     0.058 A 
ATOM      2  C   UNL     1     -21.418 -39.539  22.314  1.00  0.00     0.029 A 
ATOM      3  C   UNL     1     -21.963 -38.747  21.297  1.00  0.00     0.024 A 
ATOM      4  C   UNL     1     -21.924 -39.203  19.983  1.00  0.00     0.082 A 
ATOM      5  C   UNL     1     -21.324 -40.423  19.676  1.00  0.00     0.024 A 
ATOM      6  C   UNL     1     -20.782 -41.203  20.705  1.00  0.00     0.029 A 
ENDROOT
BRANCH   1   7
ATOM      7  N   UNL     1     -20.297 -41.553  23.084  1.00  0.00    -0.276 N 
ATOM      8  N   UNL     1     -19.020 -41.443  23.605  1.00  0.00    -0.297 N 
ATOM      9  C   UNL     1     -18.787 -42.469  24.513  1.00  0.00     0.063 C 
ATOM     10  C   UNL     1     -19.906 -43.196  24.673  1.00  0.00     0.033 C 
ATOM     11  C   UNL     1     -21.016 -42.662  23.781  1.00  0.00     0.165 C 
ATOM     12  H   UNL     1     -18.259 -41.355  22.926  1.00  0.00     0.188 HD
BRANCH   9  13
ATOM     13  C   UNL     1     -17.472 -42.695  25.121  1.00  0.00     0.038 A 
ATOM     14  C   UNL     1     -16.386 -43.127  24.345  1.00  0.00     0.052 A 
ATOM     15  C   UNL     1     -17.259 -42.512  26.497  1.00  0.00     0.132 A 
ATOM     16  C   UNL     1     -15.144 -43.352  24.936  1.00  0.00     0.124 A 
ATOM     17  C   UNL     1     -16.014 -42.736  27.085  1.00  0.00     0.043 A 
ATOM     18  C   UNL     1     -14.947 -43.159  26.297  1.00  0.00     0.042 A 
ATOM     19  F   UNL     1     -18.261 -42.095  27.290  1.00  0.00    -0.206 F 
ATOM     20  F   UNL     1     -14.121 -43.762  24.175  1.00  0.00    -0.207 F 
ENDBRANCH   9  13
BRANCH  11  21
ATOM     21  C   UNL     1     -22.216 -42.202  24.595  1.00  0.00     0.026 A 
ATOM     22  C   UNL     1     -22.037 -41.466  25.786  1.00  0.00     0.056 A 
ATOM     23  C   UNL     1     -23.523 -42.536  24.197  1.00  0.00     0.124 A 
ATOM     24  C   UNL     1     -23.122 -41.049  26.558  1.00  0.00     0.119 A 
ATOM     25  C   UNL     1     -24.608 -42.115  24.973  1.00  0.00     0.050 A 
ATOM     26  C   UNL     1     -24.409 -41.375  26.145  1.00  0.00     0.050 A 
BRANCH  23  27
ATOM     27  O   UNL     1     -23.632 -43.271  23.046  1.00  0.00    -0.496 OA
ATOM     28  C   UNL     1     -24.116 -42.607  21.884  1.00  0.00     0.278 C 
ENDBRANCH  23  27
BRANCH  24  29
ATOM     29  O   UNL     1     -22.791 -40.340  27.679  1.00  0.00    -0.497 OA
ATOM     30  C   UNL     1     -23.690 -39.316  28.085  1.00  0.00     0.278 C 
ENDBRANCH  24  29
ENDBRANCH  11  21
ENDBRANCH   1   7
BRANCH   4  31
ATOM     31  S   UNL     1     -22.626 -38.225  18.684  1.00  0.00     0.238 S 
ATOM     32  O   UNL     1     -23.674 -37.404  19.241  1.00  0.00    -0.207 OA
ATOM     33  O   UNL     1     -22.828 -39.068  17.528  1.00  0.00    -0.207 OA
BRANCH  31  34
ATOM     34  N   UNL     1     -21.332 -37.219  18.290  1.00  0.00    -0.225 NA
ATOM     35  H   UNL     1     -21.429 -36.788  17.371  1.00  0.00     0.137 HD
ATOM     36  H   UNL     1     -21.226 -36.520  19.026  1.00  0.00     0.137 HD
ENDBRANCH  31  34
ENDBRANCH   4  31
TORSDOF 7
ENDMDL
MODEL 6
REMARK VINA RESULT:    -8.373      4.487      7.568
REMARK INTER + INTRA:         -12.984
REMARK INTER:                 -11.951
REMARK INTRA:                  -1.033
REMARK UNBOUND:                -1.430
REMARK SMILES COc1ccc(OC)c([C@@H]2C=C(c3cc(F)ccc3F)NN2c2ccc(S(N)(=O)=O)cc2)c1
REMARK SMILES IDX 23 1 24 2 25 3 26 4 31 5 32 6 22 7 21 8 12 9 11 10 10 11
REMARK SMILES IDX 13 13 14 14 19 15 15 16 18 17 17 18 20 19 16 20 9 21 33 22
REMARK SMILES IDX 6 23 3 24 5 25 4 26 7 27 8 28 2 29 1 30 27 31 29 32 30 33
REMARK SMILES IDX 28 34
REMARK H PARENT 21 12 28 35 28 36
ROOT
ATOM      1  C   UNL     1     -21.665 -40.695  25.449  1.00  0.00     0.058 A 
ATOM      2  C   UNL     1     -21.852 -40.776  26.843  1.00  0.00     0.029 A 
ATOM      3  C   UNL     1     -23.011 -40.294  27.462  1.00  0.00     0.024 A 
ATOM      4  C   UNL     1     -24.014 -39.724  26.683  1.00  0.00     0.082 A 
ATOM      5  C   UNL     1     -23.856 -39.610  25.303  1.00  0.00     0.024 A 
ATOM      6  C   UNL     1     -22.691 -40.096  24.699  1.00  0.00     0.029 A 
ENDROOT
BRANCH   1   7
ATOM      7  N   UNL     1     -20.503 -41.195  24.865  1.00  0.00    -0.276 N 
ATOM      8  N   UNL     1     -19.480 -41.846  25.531  1.00  0.00    -0.297 N 
ATOM      9  C   UNL     1     -18.412 -42.059  24.668  1.00  0.00     0.063 C 
ATOM     10  C   UNL     1     -18.739 -41.650  23.431  1.00  0.00     0.033 C 
ATOM     11  C   UNL     1     -20.145 -41.068  23.421  1.00  0.00     0.165 C 
ATOM     12  H   UNL     1     -19.178 -41.431  26.416  1.00  0.00     0.188 HD
BRANCH   9  13
ATOM     13  C   UNL     1     -17.129 -42.602  25.127  1.00  0.00     0.038 A 
ATOM     14  C   UNL     1     -16.220 -43.161  24.216  1.00  0.00     0.052 A 
ATOM     15  C   UNL     1     -16.776 -42.604  26.486  1.00  0.00     0.132 A 
ATOM     16  C   UNL     1     -15.009 -43.686  24.664  1.00  0.00     0.124 A 
ATOM     17  C   UNL     1     -15.563 -43.129  26.931  1.00  0.00     0.043 A 
ATOM     18  C   UNL     1     -14.671 -43.675  26.012  1.00  0.00     0.042 A 
ATOM     19  F   UNL     1     -17.606 -42.077  27.403  1.00  0.00    -0.206 F 
ATOM     20  F   UNL     1     -14.155 -44.214  23.777  1.00  0.00    -0.207 F 
ENDBRANCH   9  13
BRANCH  11  21
ATOM     21  C   UNL     1     -21.064 -41.843  22.488  1.00  0.00     0.026 A 
ATOM     22  C   UNL     1     -21.465 -43.159  22.802  1.00  0.00     0.056 A 
ATOM     23  C   UNL     1     -21.498 -41.276  21.276  1.00  0.00     0.124 A 
ATOM     24  C   UNL     1     -22.292 -43.895  21.954  1.00  0.00     0.119 A 
ATOM     25  C   UNL     1     -22.329 -42.016  20.428  1.00  0.00     0.050 A 
ATOM     26  C   UNL     1     -22.725 -43.316  20.766  1.00  0.00     0.050 A 
BRANCH  23  27
ATOM     27  O   UNL     1     -21.058 -40.005  21.014  1.00  0.00    -0.496 OA
ATOM     28  C   UNL     1     -20.601 -39.724  19.697  1.00  0.00     0.278 C 
ENDBRANCH  23  27
BRANCH  24  29
ATOM     29  O   UNL     1     -22.600 -45.150  22.397  1.00  0.00    -0.497 OA
ATOM     30  C   UNL     1     -23.091 -46.074  21.434  1.00  0.00     0.278 C 
ENDBRANCH  24  29
ENDBRANCH  11  21
ENDBRANCH   1   7
BRANCH   4  31
ATOM     31  S   UNL     1     -25.496 -39.127  27.444  1.00  0.00     0.238 S 
ATOM     32  O   UNL     1     -25.206 -37.871  28.095  1.00  0.00    -0.207 OA
ATOM     33  O   UNL     1     -26.143 -40.226  28.123  1.00  0.00    -0.207 OA
BRANCH  31  34
ATOM     34  N   UNL     1     -26.454 -38.802  26.094  1.00  0.00    -0.225 NA
ATOM     35  H   UNL     1     -26.662 -39.635  25.546  1.00  0.00     0.137 HD
ATOM     36  H   UNL     1     -27.304 -38.329  26.403  1.00  0.00     0.137 HD
ENDBRANCH  31  34
ENDBRANCH   4  31
TORSDOF 7
ENDMDL
MODEL 7
REMARK VINA RESULT:    -8.372      1.872      2.304
REMARK INTER + INTRA:         -12.983
REMARK INTER:                 -11.833
REMARK INTRA:                  -1.150
REMARK UNBOUND:                -1.430
REMARK SMILES COc1ccc(OC)c([C@@H]2C=C(c3cc(F)ccc3F)NN2c2ccc(S(N)(=O)=O)cc2)c1
REMARK SMILES IDX 23 1 24 2 25 3 26 4 31 5 32 6 22 7 21 8 12 9 11 10 10 11
REMARK SMILES IDX 13 13 14 14 19 15 15 16 18 17 17 18 20 19 16 20 9 21 33 22
REMARK SMILES IDX 6 23 3 24 5 25 4 26 7 27 8 28 2 29 1 30 27 31 29 32 30 33
REMARK SMILES IDX 28 34
REMARK H PARENT 21 12 28 35 28 36
ROOT
ATOM      1  C   UNL     1     -18.676 -41.991  24.494  1.00  0.00     0.058 A 
ATOM      2  C   UNL     1     -17.535 -42.387  23.771  1.00  0.00     0.029 A 
ATOM      3  C   UNL     1     -16.362 -42.803  24.410  1.00  0.00     0.024 A 
ATOM      4  C   UNL     1     -16.318 -42.835  25.801  1.00  0.00     0.082 A 
ATOM      5  C   UNL     1     -17.421 -42.431  26.551  1.00  0.00     0.024 A 
ATOM      6  C   UNL     1     -18.586 -42.017  25.896  1.00  0.00     0.029 A 
ENDROOT
BRANCH   1   7
ATOM      7  N   UNL     1     -19.831 -41.592  23.825  1.00  0.00    -0.276 N 
ATOM      8  N   UNL     1     -19.875 -40.789  22.699  1.00  0.00    -0.297 N 
ATOM      9  C   UNL     1     -21.193 -40.463  22.400  1.00  0.00     0.063 C 
ATOM     10  C   UNL     1     -22.022 -41.105  23.241  1.00  0.00     0.033 C 
ATOM     11  C   UNL     1     -21.225 -41.929  24.241  1.00  0.00     0.165 C 
ATOM     12  H   UNL     1     -19.271 -39.963  22.706  1.00  0.00     0.188 HD
BRANCH   9  13
ATOM     13  C   UNL     1     -21.545 -39.509  21.343  1.00  0.00     0.038 A 
ATOM     14  C   UNL     1     -22.643 -38.649  21.489  1.00  0.00     0.052 A 
ATOM     15  C   UNL     1     -20.815 -39.439  20.145  1.00  0.00     0.132 A 
ATOM     16  C   UNL     1     -22.976 -37.754  20.474  1.00  0.00     0.124 A 
ATOM     17  C   UNL     1     -21.151 -38.542  19.130  1.00  0.00     0.043 A 
ATOM     18  C   UNL     1     -22.241 -37.692  19.297  1.00  0.00     0.042 A 
ATOM     19  F   UNL     1     -19.751 -40.236  19.951  1.00  0.00    -0.206 F 
ATOM     20  F   UNL     1     -24.028 -36.941  20.635  1.00  0.00    -0.207 F 
ENDBRANCH   9  13
BRANCH  11  21
ATOM     21  C   UNL     1     -21.558 -43.409  24.138  1.00  0.00     0.026 A 
ATOM     22  C   UNL     1     -22.000 -43.964  22.917  1.00  0.00     0.056 A 
ATOM     23  C   UNL     1     -21.471 -44.245  25.266  1.00  0.00     0.124 A 
ATOM     24  C   UNL     1     -22.328 -45.315  22.803  1.00  0.00     0.119 A 
ATOM     25  C   UNL     1     -21.799 -45.599  25.148  1.00  0.00     0.050 A 
ATOM     26  C   UNL     1     -22.223 -46.131  23.924  1.00  0.00     0.050 A 
BRANCH  23  27
ATOM     27  O   UNL     1     -21.058 -43.646  26.427  1.00  0.00    -0.496 OA
ATOM     28  C   UNL     1     -21.444 -44.252  27.655  1.00  0.00     0.278 C 
ENDBRANCH  23  27
BRANCH  24  29
ATOM     29  O   UNL     1     -22.733 -45.705  21.557  1.00  0.00    -0.497 OA
ATOM     30  C   UNL     1     -23.592 -44.820  20.849  1.00  0.00     0.278 C 
ENDBRANCH  24  29
ENDBRANCH  11  21
ENDBRANCH   1   7
BRANCH   4  31
ATOM     31  S   UNL     1     -14.850 -43.377  26.630  1.00  0.00     0.238 S 
ATOM     32  O   UNL     1     -13.909 -42.283  26.662  1.00  0.00    -0.207 OA
ATOM     33  O   UNL     1     -14.502 -44.691  26.141  1.00  0.00    -0.207 OA
BRANCH  31  34
ATOM     34  N   UNL     1     -15.424 -43.615  28.197  1.00  0.00    -0.225 NA
ATOM     35  H   UNL     1     -15.768 -44.561  28.355  1.00  0.00     0.137 HD
ATOM     36  H   UNL     1     -14.685 -43.366  28.857  1.00  0.00     0.137 HD
ENDBRANCH  31  34
ENDBRANCH   4  31
TORSDOF 7
ENDMDL
MODEL 8
REMARK VINA RESULT:    -8.339      4.417      8.279
REMARK INTER + INTRA:         -12.937
REMARK INTER:                 -12.117
REMARK INTRA:                  -0.820
REMARK UNBOUND:                -1.430
REMARK SMILES COc1ccc(OC)c([C@@H]2C=C(c3cc(F)ccc3F)NN2c2ccc(S(N)(=O)=O)cc2)c1
REMARK SMILES IDX 23 1 24 2 25 3 26 4 31 5 32 6 22 7 21 8 12 9 11 10 10 11
REMARK SMILES IDX 13 13 14 14 19 15 15 16 18 17 17 18 20 19 16 20 9 21 33 22
REMARK SMILES IDX 6 23 3 24 5 25 4 26 7 27 8 28 2 29 1 30 27 31 29 32 30 33
REMARK SMILES IDX 28 34
REMARK H PARENT 21 12 28 35 28 36
ROOT
ATOM      1  C   UNL     1     -21.672 -43.544  22.295  1.00  0.00     0.058 A 
ATOM      2  C   UNL     1     -21.413 -43.538  20.911  1.00  0.00     0.029 A 
ATOM      3  C   UNL     1     -22.184 -44.282  20.011  1.00  0.00     0.024 A 
ATOM      4  C   UNL     1     -23.244 -45.046  20.491  1.00  0.00     0.082 A 
ATOM      5  C   UNL     1     -23.519 -45.092  21.857  1.00  0.00     0.024 A 
ATOM      6  C   UNL     1     -22.737 -44.343  22.743  1.00  0.00     0.029 A 
ENDROOT
BRANCH   1   7
ATOM      7  N   UNL     1     -20.890 -42.783  23.161  1.00  0.00    -0.276 N 
ATOM      8  N   UNL     1     -19.699 -43.186  23.739  1.00  0.00    -0.297 N 
ATOM      9  C   UNL     1     -19.280 -42.243  24.669  1.00  0.00     0.063 C 
ATOM     10  C   UNL     1     -20.111 -41.187  24.652  1.00  0.00     0.033 C 
ATOM     11  C   UNL     1     -21.233 -41.414  23.650  1.00  0.00     0.165 C 
ATOM     12  H   UNL     1     -19.679 -44.135  24.122  1.00  0.00     0.188 HD
BRANCH   9  13
ATOM     13  C   UNL     1     -18.122 -42.464  25.543  1.00  0.00     0.038 A 
ATOM     14  C   UNL     1     -18.238 -42.328  26.934  1.00  0.00     0.052 A 
ATOM     15  C   UNL     1     -16.861 -42.792  25.021  1.00  0.00     0.132 A 
ATOM     16  C   UNL     1     -17.129 -42.527  27.755  1.00  0.00     0.124 A 
ATOM     17  C   UNL     1     -15.753 -42.992  25.845  1.00  0.00     0.043 A 
ATOM     18  C   UNL     1     -15.889 -42.859  27.224  1.00  0.00     0.042 A 
ATOM     19  F   UNL     1     -16.692 -42.940  23.696  1.00  0.00    -0.206 F 
ATOM     20  F   UNL     1     -17.262 -42.394  29.081  1.00  0.00    -0.207 F 
ENDBRANCH   9  13
BRANCH  11  21
ATOM     21  C   UNL     1     -21.233 -40.353  22.560  1.00  0.00     0.026 A 
ATOM     22  C   UNL     1     -22.365 -39.537  22.350  1.00  0.00     0.056 A 
ATOM     23  C   UNL     1     -20.119 -40.194  21.716  1.00  0.00     0.124 A 
ATOM     24  C   UNL     1     -22.394 -38.570  21.345  1.00  0.00     0.119 A 
ATOM     25  C   UNL     1     -20.151 -39.222  20.710  1.00  0.00     0.050 A 
ATOM     26  C   UNL     1     -21.280 -38.414  20.527  1.00  0.00     0.050 A 
BRANCH  23  27
ATOM     27  O   UNL     1     -19.059 -41.028  21.953  1.00  0.00    -0.496 OA
ATOM     28  C   UNL     1     -17.751 -40.487  21.819  1.00  0.00     0.278 C 
ENDBRANCH  23  27
BRANCH  24  29
ATOM     29  O   UNL     1     -23.556 -37.855  21.269  1.00  0.00    -0.497 OA
ATOM     30  C   UNL     1     -24.628 -38.438  20.539  1.00  0.00     0.278 C 
ENDBRANCH  24  29
ENDBRANCH  11  21
ENDBRANCH   1   7
BRANCH   4  31
ATOM     31  S   UNL     1     -24.246 -45.978  19.367  1.00  0.00     0.238 S 
ATOM     32  O   UNL     1     -25.062 -45.061  18.608  1.00  0.00    -0.207 OA
ATOM     33  O   UNL     1     -24.797 -47.113  20.071  1.00  0.00    -0.207 OA
BRANCH  31  34
ATOM     34  N   UNL     1     -23.077 -46.613  18.331  1.00  0.00    -0.225 NA
ATOM     35  H   UNL     1     -22.420 -47.231  18.804  1.00  0.00     0.137 HD
ATOM     36  H   UNL     1     -23.548 -47.083  17.556  1.00  0.00     0.137 HD
ENDBRANCH  31  34
ENDBRANCH   4  31
TORSDOF 7
ENDMDL
MODEL 9
REMARK VINA RESULT:    -8.059      4.156      7.428
REMARK INTER + INTRA:         -12.552
REMARK INTER:                 -11.571
REMARK INTRA:                  -0.981
REMARK UNBOUND:                -1.430
REMARK SMILES COc1ccc(OC)c([C@@H]2C=C(c3cc(F)ccc3F)NN2c2ccc(S(N)(=O)=O)cc2)c1
REMARK SMILES IDX 23 1 24 2 25 3 26 4 31 5 32 6 22 7 21 8 12 9 11 10 10 11
REMARK SMILES IDX 13 13 14 14 19 15 15 16 18 17 17 18 20 19 16 20 9 21 33 22
REMARK SMILES IDX 6 23 3 24 5 25 4 26 7 27 8 28 2 29 1 30 27 31 29 32 30 33
REMARK SMILES IDX 28 34
REMARK H PARENT 21 12 28 35 28 36
ROOT
ATOM      1  C   UNL     1     -22.037 -44.173  26.807  1.00  0.00     0.058 A 
ATOM      2  C   UNL     1     -22.431 -44.395  28.140  1.00  0.00     0.029 A 
ATOM      3  C   UNL     1     -23.470 -45.273  28.468  1.00  0.00     0.024 A 
ATOM      4  C   UNL     1     -24.132 -45.955  27.451  1.00  0.00     0.082 A 
ATOM      5  C   UNL     1     -23.783 -45.747  26.118  1.00  0.00     0.024 A 
ATOM      6  C   UNL     1     -22.742 -44.864  25.807  1.00  0.00     0.029 A 
ENDROOT
BRANCH   1   7
ATOM      7  N   UNL     1     -20.991 -43.299  26.518  1.00  0.00    -0.276 N 
ATOM      8  N   UNL     1     -19.855 -43.612  25.793  1.00  0.00    -0.297 N 
ATOM      9  C   UNL     1     -18.955 -42.553  25.840  1.00  0.00     0.063 C 
ATOM     10  C   UNL     1     -19.506 -41.519  26.497  1.00  0.00     0.033 C 
ATOM     11  C   UNL     1     -20.899 -41.884  26.986  1.00  0.00     0.165 C 
ATOM     12  H   UNL     1     -19.405 -44.504  26.014  1.00  0.00     0.188 HD
BRANCH   9  13
ATOM     13  C   UNL     1     -17.602 -42.648  25.281  1.00  0.00     0.038 A 
ATOM     14  C   UNL     1     -16.480 -42.682  26.121  1.00  0.00     0.052 A 
ATOM     15  C   UNL     1     -17.382 -42.682  23.894  1.00  0.00     0.132 A 
ATOM     16  C   UNL     1     -15.198 -42.758  25.579  1.00  0.00     0.124 A 
ATOM     17  C   UNL     1     -16.098 -42.760  23.355  1.00  0.00     0.043 A 
ATOM     18  C   UNL     1     -14.996 -42.799  24.205  1.00  0.00     0.042 A 
ATOM     19  F   UNL     1     -18.421 -42.657  23.041  1.00  0.00    -0.206 F 
ATOM     20  F   UNL     1     -14.140 -42.791  26.400  1.00  0.00    -0.207 F 
ENDBRANCH   9  13
BRANCH  11  21
ATOM     21  C   UNL     1     -21.958 -40.969  26.391  1.00  0.00     0.026 A 
ATOM     22  C   UNL     1     -22.754 -40.152  27.223  1.00  0.00     0.056 A 
ATOM     23  C   UNL     1     -22.192 -40.950  25.004  1.00  0.00     0.124 A 
ATOM     24  C   UNL     1     -23.743 -39.318  26.701  1.00  0.00     0.119 A 
ATOM     25  C   UNL     1     -23.184 -40.112  24.483  1.00  0.00     0.050 A 
ATOM     26  C   UNL     1     -23.953 -39.301  25.326  1.00  0.00     0.050 A 
BRANCH  23  27
ATOM     27  O   UNL     1     -21.405 -41.780  24.250  1.00  0.00    -0.496 OA
ATOM     28  C   UNL     1     -21.980 -42.350  23.080  1.00  0.00     0.278 C 
ENDBRANCH  23  27
BRANCH  24  29
ATOM     29  O   UNL     1     -24.425 -38.583  27.630  1.00  0.00    -0.497 OA
ATOM     30  C   UNL     1     -25.740 -38.166  27.286  1.00  0.00     0.278 C 
ENDBRANCH  24  29
ENDBRANCH  11  21
ENDBRANCH   1   7
BRANCH   4  31
ATOM     31  S   UNL     1     -25.436 -47.087  27.845  1.00  0.00     0.238 S 
ATOM     32  O   UNL     1     -25.251 -48.290  27.069  1.00  0.00    -0.207 OA
ATOM     33  O   UNL     1     -26.684 -46.361  27.873  1.00  0.00    -0.207 OA
BRANCH  31  34
ATOM     34  N   UNL     1     -25.085 -47.448  29.454  1.00  0.00    -0.225 NA
ATOM     35  H   UNL     1     -24.484 -48.265  29.556  1.00  0.00     0.137 HD
ATOM     36  H   UNL     1     -24.678 -46.621  29.893  1.00  0.00     0.137 HD
ENDBRANCH  31  34
ENDBRANCH   4  31
TORSDOF 7
ENDMDL
