MODEL 1
REMARK VINA RESULT:   -12.772      0.000      0.000
REMARK INTER + INTRA:         -19.936
REMARK INTER:                 -19.119
REMARK INTRA:                  -0.817
REMARK UNBOUND:                -0.817
REMARK SMILES O=C(Cc1cc(=O)oc2cc(O)ccc12)NCCCCNc1c2c(nc3ccccc13)CCCC2
REMARK SMILES IDX 17 1 16 2 2 3 1 4 3 6 4 7 5 8 15 9 6 10 14 11 9 12 8 13
REMARK SMILES IDX 13 14 10 15 11 16 7 17 12 18 18 20 19 21 20 22 21 23 22 25
REMARK SMILES IDX 23 26 31 27 24 28 35 29 30 30 26 31 25 32 32 33 34 34 29 35
REMARK SMILES IDX 27 36 33 37 28 38
REMARK H PARENT 16 5 12 19 21 24
ROOT
ATOM      1  C   UNL     1     -13.130 -45.920  27.922  1.00  0.00     0.116 C 
ENDROOT
BRANCH   1   2
ATOM      2  N   UNL     1     -13.594 -45.126  26.804  1.00  0.00    -0.356 N 
ATOM      3  C   UNL     1     -13.421 -43.755  26.810  1.00  0.00     0.224 C 
ATOM      4  O   UNL     1     -12.721 -43.171  27.633  1.00  0.00    -0.275 OA
ATOM      5  H   UNL     1     -14.348 -45.501  26.239  1.00  0.00     0.163 HD
BRANCH   3   6
ATOM      6  C   UNL     1     -14.167 -43.014  25.706  1.00  0.00     0.136 C 
BRANCH   6   7
ATOM      7  C   UNL     1     -15.615 -42.783  26.067  1.00  0.00    -0.020 A 
ATOM      8  C   UNL     1     -16.004 -42.780  27.352  1.00  0.00     0.098 A 
ATOM      9  C   UNL     1     -16.649 -42.597  25.037  1.00  0.00     0.022 A 
ATOM     10  C   UNL     1     -17.387 -42.553  27.794  1.00  0.00     0.336 A 
ATOM     11  C   UNL     1     -16.397 -42.628  23.659  1.00  0.00     0.016 A 
ATOM     12  C   UNL     1     -17.972 -42.388  25.442  1.00  0.00     0.142 A 
ATOM     13  O   UNL     1     -18.331 -42.355  26.804  1.00  0.00    -0.423 OA
ATOM     14  C   UNL     1     -17.434 -42.446  22.735  1.00  0.00     0.047 A 
ATOM     15  C   UNL     1     -19.019 -42.206  24.534  1.00  0.00     0.094 A 
ATOM     16  C   UNL     1     -18.734 -42.236  23.178  1.00  0.00     0.119 A 
ATOM     17  O   UNL     1     -17.672 -42.531  28.986  1.00  0.00    -0.246 OA
BRANCH  16  18
ATOM     18  O   UNL     1     -19.707 -42.066  22.239  1.00  0.00    -0.508 OA
ATOM     19  H   UNL     1     -20.262 -42.864  22.215  1.00  0.00     0.293 HD
ENDBRANCH  16  18
ENDBRANCH   6   7
ENDBRANCH   3   6
ENDBRANCH   1   2
BRANCH   1  20
ATOM     20  C   UNL     1     -11.750 -46.533  27.697  1.00  0.00     0.023 C 
BRANCH  20  21
ATOM     21  C   UNL     1     -10.606 -45.798  28.406  1.00  0.00     0.023 C 
BRANCH  21  22
ATOM     22  C   UNL     1      -9.959 -46.538  29.578  1.00  0.00     0.113 C 
BRANCH  22  23
ATOM     23  N   UNL     1     -10.789 -46.474  30.787  1.00  0.00    -0.384 N 
ATOM     24  H   UNL     1     -10.768 -47.326  31.335  1.00  0.00     0.160 HD
BRANCH  23  25
ATOM     25  C   UNL     1     -10.731 -45.289  31.547  1.00  0.00     0.049 A 
ATOM     26  C   UNL     1     -11.907 -44.581  31.848  1.00  0.00    -0.003 A 
ATOM     27  C   UNL     1      -9.481 -44.754  31.987  1.00  0.00     0.024 A 
ATOM     28  C   UNL     1     -11.793 -43.342  32.478  1.00  0.00     0.046 A 
ATOM     29  C   UNL     1     -13.302 -45.068  31.544  1.00  0.00     0.039 C 
ATOM     30  C   UNL     1      -8.222 -45.390  31.818  1.00  0.00     0.012 A 
ATOM     31  C   UNL     1      -9.497 -43.496  32.629  1.00  0.00     0.073 A 
ATOM     32  N   UNL     1     -10.617 -42.792  32.836  1.00  0.00    -0.252 NA
ATOM     33  C   UNL     1     -13.045 -42.546  32.737  1.00  0.00     0.056 C 
ATOM     34  C   UNL     1     -14.253 -44.813  32.718  1.00  0.00     0.005 C 
ATOM     35  C   UNL     1      -7.034 -44.797  32.247  1.00  0.00     0.001 A 
ATOM     36  C   UNL     1      -8.303 -42.925  33.046  1.00  0.00     0.029 A 
ATOM     37  C   UNL     1     -14.133 -43.421  33.352  1.00  0.00     0.007 C 
ATOM     38  C   UNL     1      -7.074 -43.557  32.860  1.00  0.00     0.002 A 
ENDBRANCH  23  25
ENDBRANCH  22  23
ENDBRANCH  21  22
ENDBRANCH  20  21
ENDBRANCH   1  20
TORSDOF 9
ENDMDL
MODEL 2
REMARK VINA RESULT:   -12.482      3.239     10.845
REMARK INTER + INTRA:         -19.502
REMARK INTER:                 -18.489
REMARK INTRA:                  -1.013
REMARK UNBOUND:                -0.817
REMARK SMILES O=C(Cc1cc(=O)oc2cc(O)ccc12)NCCCCNc1c2c(nc3ccccc13)CCCC2
REMARK SMILES IDX 17 1 16 2 2 3 1 4 3 6 4 7 5 8 15 9 6 10 14 11 9 12 8 13
REMARK SMILES IDX 13 14 10 15 11 16 7 17 12 18 18 20 19 21 20 22 21 23 22 25
REMARK SMILES IDX 23 26 31 27 24 28 35 29 30 30 26 31 25 32 32 33 34 34 29 35
REMARK SMILES IDX 27 36 33 37 28 38
REMARK H PARENT 16 5 12 19 21 24
ROOT
ATOM      1  C   UNL     1     -15.070 -42.339  25.892  1.00  0.00     0.116 C 
ENDROOT
BRANCH   1   2
ATOM      2  N   UNL     1     -14.959 -43.517  26.727  1.00  0.00    -0.356 N 
ATOM      3  C   UNL     1     -13.734 -43.878  27.254  1.00  0.00     0.224 C 
ATOM      4  O   UNL     1     -12.745 -43.150  27.214  1.00  0.00    -0.275 OA
ATOM      5  H   UNL     1     -15.651 -44.248  26.607  1.00  0.00     0.163 HD
BRANCH   3   6
ATOM      6  C   UNL     1     -13.700 -45.258  27.901  1.00  0.00     0.136 C 
BRANCH   6   7
ATOM      7  C   UNL     1     -13.205 -45.196  29.326  1.00  0.00    -0.020 A 
ATOM      8  C   UNL     1     -13.981 -44.683  30.294  1.00  0.00     0.098 A 
ATOM      9  C   UNL     1     -11.856 -45.650  29.696  1.00  0.00     0.022 A 
ATOM     10  C   UNL     1     -13.586 -44.594  31.707  1.00  0.00     0.336 A 
ATOM     11  C   UNL     1     -10.922 -46.158  28.784  1.00  0.00     0.016 A 
ATOM     12  C   UNL     1     -11.461 -45.563  31.036  1.00  0.00     0.142 A 
ATOM     13  O   UNL     1     -12.322 -45.053  32.028  1.00  0.00    -0.423 OA
ATOM     14  C   UNL     1      -9.652 -46.568  29.210  1.00  0.00     0.047 A 
ATOM     15  C   UNL     1     -10.198 -45.967  31.478  1.00  0.00     0.094 A 
ATOM     16  C   UNL     1      -9.301 -46.471  30.550  1.00  0.00     0.119 A 
ATOM     17  O   UNL     1     -14.354 -44.144  32.549  1.00  0.00    -0.246 OA
BRANCH  16  18
ATOM     18  O   UNL     1      -8.053 -46.881  30.913  1.00  0.00    -0.508 OA
ATOM     19  H   UNL     1      -7.661 -47.381  30.178  1.00  0.00     0.293 HD
ENDBRANCH  16  18
ENDBRANCH   6   7
ENDBRANCH   3   6
ENDBRANCH   1   2
BRANCH   1  20
ATOM     20  C   UNL     1     -14.655 -42.584  24.443  1.00  0.00     0.023 C 
BRANCH  20  21
ATOM     21  C   UNL     1     -15.797 -43.032  23.522  1.00  0.00     0.023 C 
BRANCH  21  22
ATOM     22  C   UNL     1     -16.582 -41.914  22.835  1.00  0.00     0.113 C 
BRANCH  22  23
ATOM     23  N   UNL     1     -17.940 -42.340  22.482  1.00  0.00    -0.384 N 
ATOM     24  H   UNL     1     -18.080 -43.341  22.555  1.00  0.00     0.160 HD
BRANCH  23  25
ATOM     25  C   UNL     1     -19.009 -41.564  22.975  1.00  0.00     0.049 A 
ATOM     26  C   UNL     1     -19.495 -41.770  24.277  1.00  0.00    -0.003 A 
ATOM     27  C   UNL     1     -19.653 -40.589  22.152  1.00  0.00     0.024 A 
ATOM     28  C   UNL     1     -20.641 -41.083  24.674  1.00  0.00     0.046 A 
ATOM     29  C   UNL     1     -18.858 -42.685  25.294  1.00  0.00     0.039 C 
ATOM     30  C   UNL     1     -19.233 -40.224  20.845  1.00  0.00     0.012 A 
ATOM     31  C   UNL     1     -20.800 -39.947  22.674  1.00  0.00     0.073 A 
ATOM     32  N   UNL     1     -21.301 -40.214  23.886  1.00  0.00    -0.252 NA
ATOM     33  C   UNL     1     -21.208 -41.355  26.043  1.00  0.00     0.056 C 
ATOM     34  C   UNL     1     -18.815 -42.036  26.681  1.00  0.00     0.005 C 
ATOM     35  C   UNL     1     -19.928 -39.282  20.084  1.00  0.00     0.001 A 
ATOM     36  C   UNL     1     -21.475 -39.015  21.898  1.00  0.00     0.029 A 
ATOM     37  C   UNL     1     -20.112 -41.334  27.103  1.00  0.00     0.007 C 
ATOM     38  C   UNL     1     -21.056 -38.678  20.612  1.00  0.00     0.002 A 
ENDBRANCH  23  25
ENDBRANCH  22  23
ENDBRANCH  21  22
ENDBRANCH  20  21
ENDBRANCH   1  20
TORSDOF 9
ENDMDL
MODEL 3
REMARK VINA RESULT:   -12.461      1.201      2.347
REMARK INTER + INTRA:         -19.471
REMARK INTER:                 -18.753
REMARK INTRA:                  -0.718
REMARK UNBOUND:                -0.817
REMARK SMILES O=C(Cc1cc(=O)oc2cc(O)ccc12)NCCCCNc1c2c(nc3ccccc13)CCCC2
REMARK SMILES IDX 17 1 16 2 2 3 1 4 3 6 4 7 5 8 15 9 6 10 14 11 9 12 8 13
REMARK SMILES IDX 13 14 10 15 11 16 7 17 12 18 18 20 19 21 20 22 21 23 22 25
REMARK SMILES IDX 23 26 31 27 24 28 35 29 30 30 26 31 25 32 32 33 34 34 29 35
REMARK SMILES IDX 27 36 33 37 28 38
REMARK H PARENT 16 5 12 19 21 24
ROOT
ATOM      1  C   UNL     1     -13.414 -45.899  28.266  1.00  0.00     0.116 C 
ENDROOT
BRANCH   1   2
ATOM      2  N   UNL     1     -13.841 -44.552  27.950  1.00  0.00    -0.356 N 
ATOM      3  C   UNL     1     -14.107 -44.199  26.641  1.00  0.00     0.224 C 
ATOM      4  O   UNL     1     -14.187 -45.018  25.728  1.00  0.00    -0.275 OA
ATOM      5  H   UNL     1     -13.578 -43.811  28.591  1.00  0.00     0.163 HD
BRANCH   3   6
ATOM      6  C   UNL     1     -14.301 -42.705  26.410  1.00  0.00     0.136 C 
BRANCH   6   7
ATOM      7  C   UNL     1     -15.484 -42.426  25.514  1.00  0.00    -0.020 A 
ATOM      8  C   UNL     1     -15.303 -42.169  24.208  1.00  0.00     0.098 A 
ATOM      9  C   UNL     1     -16.859 -42.385  26.037  1.00  0.00     0.022 A 
ATOM     10  C   UNL     1     -16.394 -41.900  23.261  1.00  0.00     0.336 A 
ATOM     11  C   UNL     1     -17.191 -42.583  27.383  1.00  0.00     0.016 A 
ATOM     12  C   UNL     1     -17.908 -42.121  25.150  1.00  0.00     0.142 A 
ATOM     13  O   UNL     1     -17.676 -41.894  23.778  1.00  0.00    -0.423 OA
ATOM     14  C   UNL     1     -18.524 -42.525  27.809  1.00  0.00     0.047 A 
ATOM     15  C   UNL     1     -19.244 -42.059  25.557  1.00  0.00     0.094 A 
ATOM     16  C   UNL     1     -19.538 -42.265  26.896  1.00  0.00     0.119 A 
ATOM     17  O   UNL     1     -16.164 -41.704  22.074  1.00  0.00    -0.246 OA
BRANCH  16  18
ATOM     18  O   UNL     1     -20.818 -42.218  27.361  1.00  0.00    -0.508 OA
ATOM     19  H   UNL     1     -20.999 -41.322  27.692  1.00  0.00     0.293 HD
ENDBRANCH  16  18
ENDBRANCH   6   7
ENDBRANCH   3   6
ENDBRANCH   1   2
BRANCH   1  20
ATOM     20  C   UNL     1     -12.056 -46.258  27.669  1.00  0.00     0.023 C 
BRANCH  20  21
ATOM     21  C   UNL     1     -10.857 -45.656  28.411  1.00  0.00     0.023 C 
BRANCH  21  22
ATOM     22  C   UNL     1     -10.202 -46.550  29.465  1.00  0.00     0.113 C 
BRANCH  22  23
ATOM     23  N   UNL     1     -10.905 -46.480  30.751  1.00  0.00    -0.384 N 
ATOM     24  H   UNL     1     -10.844 -47.336  31.290  1.00  0.00     0.160 HD
BRANCH  23  25
ATOM     25  C   UNL     1     -10.749 -45.302  31.509  1.00  0.00     0.049 A 
ATOM     26  C   UNL     1     -11.866 -44.510  31.828  1.00  0.00    -0.003 A 
ATOM     27  C   UNL     1      -9.457 -44.859  31.928  1.00  0.00     0.024 A 
ATOM     28  C   UNL     1     -11.652 -43.283  32.454  1.00  0.00     0.046 A 
ATOM     29  C   UNL     1     -13.297 -44.895  31.546  1.00  0.00     0.039 C 
ATOM     30  C   UNL     1      -8.250 -45.585  31.739  1.00  0.00     0.012 A 
ATOM     31  C   UNL     1      -9.371 -43.602  32.568  1.00  0.00     0.073 A 
ATOM     32  N   UNL     1     -10.434 -42.820  32.791  1.00  0.00    -0.252 NA
ATOM     33  C   UNL     1     -12.839 -42.398  32.732  1.00  0.00     0.056 C 
ATOM     34  C   UNL     1     -14.208 -44.571  32.735  1.00  0.00     0.005 C 
ATOM     35  C   UNL     1      -7.015 -45.079  32.149  1.00  0.00     0.001 A 
ATOM     36  C   UNL     1      -8.132 -43.119  32.965  1.00  0.00     0.029 A 
ATOM     37  C   UNL     1     -13.977 -43.192  33.365  1.00  0.00     0.007 C 
ATOM     38  C   UNL     1      -6.956 -43.839  32.760  1.00  0.00     0.002 A 
ENDBRANCH  23  25
ENDBRANCH  22  23
ENDBRANCH  21  22
ENDBRANCH  20  21
ENDBRANCH   1  20
TORSDOF 9
ENDMDL
MODEL 4
REMARK VINA RESULT:   -11.768      1.084      3.304
REMARK INTER + INTRA:         -18.433
REMARK INTER:                 -17.559
REMARK INTRA:                  -0.874
REMARK UNBOUND:                -0.817
REMARK SMILES O=C(Cc1cc(=O)oc2cc(O)ccc12)NCCCCNc1c2c(nc3ccccc13)CCCC2
REMARK SMILES IDX 17 1 16 2 2 3 1 4 3 6 4 7 5 8 15 9 6 10 14 11 9 12 8 13
REMARK SMILES IDX 13 14 10 15 11 16 7 17 12 18 18 20 19 21 20 22 21 23 22 25
REMARK SMILES IDX 23 26 31 27 24 28 35 29 30 30 26 31 25 32 32 33 34 34 29 35
REMARK SMILES IDX 27 36 33 37 28 38
REMARK H PARENT 16 5 12 19 21 24
ROOT
ATOM      1  C   UNL     1     -13.265 -45.772  26.588  1.00  0.00     0.116 C 
ENDROOT
BRANCH   1   2
ATOM      2  N   UNL     1     -14.164 -44.939  25.819  1.00  0.00    -0.356 N 
ATOM      3  C   UNL     1     -13.982 -43.569  25.788  1.00  0.00     0.224 C 
ATOM      4  O   UNL     1     -12.977 -43.016  26.228  1.00  0.00    -0.275 OA
ATOM      5  H   UNL     1     -15.098 -45.291  25.639  1.00  0.00     0.163 HD
BRANCH   3   6
ATOM      6  C   UNL     1     -15.128 -42.788  25.156  1.00  0.00     0.136 C 
BRANCH   6   7
ATOM      7  C   UNL     1     -16.275 -42.599  26.120  1.00  0.00    -0.020 A 
ATOM      8  C   UNL     1     -16.075 -42.705  27.444  1.00  0.00     0.098 A 
ATOM      9  C   UNL     1     -17.645 -42.338  25.651  1.00  0.00     0.022 A 
ATOM     10  C   UNL     1     -17.128 -42.525  28.453  1.00  0.00     0.336 A 
ATOM     11  C   UNL     1     -18.008 -42.253  24.301  1.00  0.00     0.016 A 
ATOM     12  C   UNL     1     -18.660 -42.173  26.600  1.00  0.00     0.142 A 
ATOM     13  O   UNL     1     -18.399 -42.254  27.983  1.00  0.00    -0.423 OA
ATOM     14  C   UNL     1     -19.336 -42.005  23.929  1.00  0.00     0.047 A 
ATOM     15  C   UNL     1     -19.990 -41.925  26.247  1.00  0.00     0.094 A 
ATOM     16  C   UNL     1     -20.314 -41.843  24.903  1.00  0.00     0.119 A 
ATOM     17  O   UNL     1     -16.874 -42.603  29.650  1.00  0.00    -0.246 OA
BRANCH  16  18
ATOM     18  O   UNL     1     -21.591 -41.604  24.489  1.00  0.00    -0.508 OA
ATOM     19  H   UNL     1     -21.861 -42.312  23.881  1.00  0.00     0.293 HD
ENDBRANCH  16  18
ENDBRANCH   6   7
ENDBRANCH   3   6
ENDBRANCH   1   2
BRANCH   1  20
ATOM     20  C   UNL     1     -13.173 -45.368  28.057  1.00  0.00     0.023 C 
BRANCH  20  21
ATOM     21  C   UNL     1     -12.621 -46.458  28.983  1.00  0.00     0.023 C 
BRANCH  21  22
ATOM     22  C   UNL     1     -11.261 -46.170  29.622  1.00  0.00     0.113 C 
BRANCH  22  23
ATOM     23  N   UNL     1     -11.332 -46.192  31.087  1.00  0.00    -0.384 N 
ATOM     24  H   UNL     1     -10.876 -46.997  31.500  1.00  0.00     0.160 HD
BRANCH  23  25
ATOM     25  C   UNL     1     -11.098 -44.978  31.764  1.00  0.00     0.049 A 
ATOM     26  C   UNL     1      -9.792 -44.603  32.119  1.00  0.00    -0.003 A 
ATOM     27  C   UNL     1     -12.181 -44.127  32.147  1.00  0.00     0.024 A 
ATOM     28  C   UNL     1      -9.618 -43.468  32.910  1.00  0.00     0.046 A 
ATOM     29  C   UNL     1      -8.545 -45.341  31.697  1.00  0.00     0.039 C 
ATOM     30  C   UNL     1     -13.542 -44.339  31.801  1.00  0.00     0.012 A 
ATOM     31  C   UNL     1     -11.875 -42.996  32.937  1.00  0.00     0.073 A 
ATOM     32  N   UNL     1     -10.634 -42.695  33.338  1.00  0.00    -0.252 NA
ATOM     33  C   UNL     1      -8.226 -43.103  33.354  1.00  0.00     0.056 C 
ATOM     34  C   UNL     1      -7.441 -44.371  31.262  1.00  0.00     0.005 C 
ATOM     35  C   UNL     1     -14.554 -43.481  32.234  1.00  0.00     0.001 A 
ATOM     36  C   UNL     1     -12.899 -42.157  33.357  1.00  0.00     0.029 A 
ATOM     37  C   UNL     1      -7.246 -43.162  32.186  1.00  0.00     0.007 C 
ATOM     38  C   UNL     1     -14.231 -42.388  33.019  1.00  0.00     0.002 A 
ENDBRANCH  23  25
ENDBRANCH  22  23
ENDBRANCH  21  22
ENDBRANCH  20  21
ENDBRANCH   1  20
TORSDOF 9
ENDMDL
MODEL 5
REMARK VINA RESULT:   -11.557      1.527      3.888
REMARK INTER + INTRA:         -18.117
REMARK INTER:                 -18.249
REMARK INTRA:                   0.132
REMARK UNBOUND:                -0.817
REMARK SMILES O=C(Cc1cc(=O)oc2cc(O)ccc12)NCCCCNc1c2c(nc3ccccc13)CCCC2
REMARK SMILES IDX 17 1 16 2 2 3 1 4 3 6 4 7 5 8 15 9 6 10 14 11 9 12 8 13
REMARK SMILES IDX 13 14 10 15 11 16 7 17 12 18 18 20 19 21 20 22 21 23 22 25
REMARK SMILES IDX 23 26 31 27 24 28 35 29 30 30 26 31 25 32 32 33 34 34 29 35
REMARK SMILES IDX 27 36 33 37 28 38
REMARK H PARENT 16 5 12 19 21 24
ROOT
ATOM      1  C   UNL     1     -12.709 -44.505  27.641  1.00  0.00     0.116 C 
ENDROOT
BRANCH   1   2
ATOM      2  N   UNL     1     -14.007 -43.898  27.850  1.00  0.00    -0.356 N 
ATOM      3  C   UNL     1     -14.889 -43.770  26.794  1.00  0.00     0.224 C 
ATOM      4  O   UNL     1     -14.716 -44.315  25.706  1.00  0.00    -0.275 OA
ATOM      5  H   UNL     1     -14.107 -43.251  28.624  1.00  0.00     0.163 HD
BRANCH   3   6
ATOM      6  C   UNL     1     -16.106 -42.899  27.082  1.00  0.00     0.136 C 
BRANCH   6   7
ATOM      7  C   UNL     1     -16.830 -42.513  25.814  1.00  0.00    -0.020 A 
ATOM      8  C   UNL     1     -16.182 -42.496  24.638  1.00  0.00     0.098 A 
ATOM      9  C   UNL     1     -18.244 -42.105  25.824  1.00  0.00     0.022 A 
ATOM     10  C   UNL     1     -16.809 -42.145  23.356  1.00  0.00     0.336 A 
ATOM     11  C   UNL     1     -19.028 -42.027  26.982  1.00  0.00     0.016 A 
ATOM     12  C   UNL     1     -18.853 -41.759  24.613  1.00  0.00     0.142 A 
ATOM     13  O   UNL     1     -18.145 -41.792  23.395  1.00  0.00    -0.423 OA
ATOM     14  C   UNL     1     -20.369 -41.626  26.915  1.00  0.00     0.047 A 
ATOM     15  C   UNL     1     -20.189 -41.357  24.527  1.00  0.00     0.094 A 
ATOM     16  C   UNL     1     -20.938 -41.296  25.691  1.00  0.00     0.119 A 
ATOM     17  O   UNL     1     -16.169 -42.180  22.311  1.00  0.00    -0.246 OA
BRANCH  16  18
ATOM     18  O   UNL     1     -22.245 -40.910  25.680  1.00  0.00    -0.508 OA
ATOM     19  H   UNL     1     -22.805 -41.696  25.798  1.00  0.00     0.293 HD
ENDBRANCH  16  18
ENDBRANCH   6   7
ENDBRANCH   3   6
ENDBRANCH   1   2
BRANCH   1  20
ATOM     20  C   UNL     1     -12.716 -46.021  27.816  1.00  0.00     0.023 C 
BRANCH  20  21
ATOM     21  C   UNL     1     -11.341 -46.633  28.108  1.00  0.00     0.023 C 
BRANCH  21  22
ATOM     22  C   UNL     1     -10.513 -45.936  29.189  1.00  0.00     0.113 C 
BRANCH  22  23
ATOM     23  N   UNL     1     -11.162 -46.009  30.503  1.00  0.00    -0.384 N 
ATOM     24  H   UNL     1     -11.069 -46.915  30.948  1.00  0.00     0.160 HD
BRANCH  23  25
ATOM     25  C   UNL     1     -10.990 -44.912  31.371  1.00  0.00     0.049 A 
ATOM     26  C   UNL     1      -9.712 -44.582  31.853  1.00  0.00    -0.003 A 
ATOM     27  C   UNL     1     -12.108 -44.143  31.818  1.00  0.00     0.024 A 
ATOM     28  C   UNL     1      -9.605 -43.582  32.818  1.00  0.00     0.046 A 
ATOM     29  C   UNL     1      -8.429 -45.231  31.394  1.00  0.00     0.039 C 
ATOM     30  C   UNL     1     -13.444 -44.314  31.367  1.00  0.00     0.012 A 
ATOM     31  C   UNL     1     -11.869 -43.144  32.789  1.00  0.00     0.073 A 
ATOM     32  N   UNL     1     -10.657 -42.896  33.302  1.00  0.00    -0.252 NA
ATOM     33  C   UNL     1      -8.246 -43.274  33.391  1.00  0.00     0.056 C 
ATOM     34  C   UNL     1      -7.323 -44.194  31.177  1.00  0.00     0.005 C 
ATOM     35  C   UNL     1     -14.495 -43.545  31.869  1.00  0.00     0.001 A 
ATOM     36  C   UNL     1     -12.930 -42.393  33.275  1.00  0.00     0.029 A 
ATOM     37  C   UNL     1      -7.203 -43.140  32.286  1.00  0.00     0.007 C 
ATOM     38  C   UNL     1     -14.238 -42.583  32.830  1.00  0.00     0.002 A 
ENDBRANCH  23  25
ENDBRANCH  22  23
ENDBRANCH  21  22
ENDBRANCH  20  21
ENDBRANCH   1  20
TORSDOF 9
ENDMDL
MODEL 6
REMARK VINA RESULT:   -11.384      3.256     10.730
REMARK INTER + INTRA:         -17.858
REMARK INTER:                 -17.280
REMARK INTRA:                  -0.579
REMARK UNBOUND:                -0.817
REMARK SMILES O=C(Cc1cc(=O)oc2cc(O)ccc12)NCCCCNc1c2c(nc3ccccc13)CCCC2
REMARK SMILES IDX 17 1 16 2 2 3 1 4 3 6 4 7 5 8 15 9 6 10 14 11 9 12 8 13
REMARK SMILES IDX 13 14 10 15 11 16 7 17 12 18 18 20 19 21 20 22 21 23 22 25
REMARK SMILES IDX 23 26 31 27 24 28 35 29 30 30 26 31 25 32 32 33 34 34 29 35
REMARK SMILES IDX 27 36 33 37 28 38
REMARK H PARENT 16 5 12 19 21 24
ROOT
ATOM      1  C   UNL     1     -14.196 -44.317  25.685  1.00  0.00     0.116 C 
ENDROOT
BRANCH   1   2
ATOM      2  N   UNL     1     -14.015 -44.412  27.119  1.00  0.00    -0.356 N 
ATOM      3  C   UNL     1     -13.368 -45.504  27.663  1.00  0.00     0.224 C 
ATOM      4  O   UNL     1     -12.759 -46.330  26.987  1.00  0.00    -0.275 OA
ATOM      5  H   UNL     1     -14.667 -43.909  27.711  1.00  0.00     0.163 HD
BRANCH   3   6
ATOM      6  C   UNL     1     -13.461 -45.608  29.182  1.00  0.00     0.136 C 
BRANCH   6   7
ATOM      7  C   UNL     1     -12.414 -44.762  29.865  1.00  0.00    -0.020 A 
ATOM      8  C   UNL     1     -11.156 -44.725  29.396  1.00  0.00     0.098 A 
ATOM      9  C   UNL     1     -12.716 -43.990  31.081  1.00  0.00     0.022 A 
ATOM     10  C   UNL     1     -10.078 -43.922  29.990  1.00  0.00     0.336 A 
ATOM     11  C   UNL     1     -13.967 -43.976  31.709  1.00  0.00     0.016 A 
ATOM     12  C   UNL     1     -11.697 -43.227  31.664  1.00  0.00     0.142 A 
ATOM     13  O   UNL     1     -10.400 -43.187  31.115  1.00  0.00    -0.423 OA
ATOM     14  C   UNL     1     -14.181 -43.218  32.868  1.00  0.00     0.047 A 
ATOM     15  C   UNL     1     -11.892 -42.466  32.819  1.00  0.00     0.094 A 
ATOM     16  C   UNL     1     -13.144 -42.470  33.413  1.00  0.00     0.119 A 
ATOM     17  O   UNL     1      -8.957 -43.906  29.494  1.00  0.00    -0.246 OA
BRANCH  16  18
ATOM     18  O   UNL     1     -13.402 -41.751  34.542  1.00  0.00    -0.508 OA
ATOM     19  H   UNL     1     -14.362 -41.624  34.620  1.00  0.00     0.293 HD
ENDBRANCH  16  18
ENDBRANCH   6   7
ENDBRANCH   3   6
ENDBRANCH   1   2
BRANCH   1  20
ATOM     20  C   UNL     1     -15.149 -43.199  25.269  1.00  0.00     0.023 C 
BRANCH  20  21
ATOM     21  C   UNL     1     -15.743 -43.360  23.865  1.00  0.00     0.023 C 
BRANCH  21  22
ATOM     22  C   UNL     1     -16.395 -42.113  23.265  1.00  0.00     0.113 C 
BRANCH  22  23
ATOM     23  N   UNL     1     -17.706 -42.412  22.680  1.00  0.00    -0.384 N 
ATOM     24  H   UNL     1     -17.897 -43.404  22.605  1.00  0.00     0.160 HD
BRANCH  23  25
ATOM     25  C   UNL     1     -18.801 -41.639  23.118  1.00  0.00     0.049 A 
ATOM     26  C   UNL     1     -19.341 -41.837  24.400  1.00  0.00    -0.003 A 
ATOM     27  C   UNL     1     -19.415 -40.676  22.259  1.00  0.00     0.024 A 
ATOM     28  C   UNL     1     -20.509 -41.155  24.740  1.00  0.00     0.046 A 
ATOM     29  C   UNL     1     -18.744 -42.738  25.452  1.00  0.00     0.039 C 
ATOM     30  C   UNL     1     -18.940 -40.320  20.968  1.00  0.00     0.012 A 
ATOM     31  C   UNL     1     -20.587 -40.038  22.724  1.00  0.00     0.073 A 
ATOM     32  N   UNL     1     -21.139 -40.298  23.915  1.00  0.00    -0.252 NA
ATOM     33  C   UNL     1     -21.133 -41.419  26.085  1.00  0.00     0.056 C 
ATOM     34  C   UNL     1     -18.766 -42.076  26.834  1.00  0.00     0.005 C 
ATOM     35  C   UNL     1     -19.607 -39.390  20.169  1.00  0.00     0.001 A 
ATOM     36  C   UNL     1     -21.234 -39.118  21.910  1.00  0.00     0.029 A 
ATOM     37  C   UNL     1     -20.085 -41.380  27.192  1.00  0.00     0.007 C 
ATOM     38  C   UNL     1     -20.761 -38.790  20.641  1.00  0.00     0.002 A 
ENDBRANCH  23  25
ENDBRANCH  22  23
ENDBRANCH  21  22
ENDBRANCH  20  21
ENDBRANCH   1  20
TORSDOF 9
ENDMDL
MODEL 7
REMARK VINA RESULT:   -11.053      3.463      9.157
REMARK INTER + INTRA:         -17.362
REMARK INTER:                 -16.398
REMARK INTRA:                  -0.964
REMARK UNBOUND:                -0.817
REMARK SMILES O=C(Cc1cc(=O)oc2cc(O)ccc12)NCCCCNc1c2c(nc3ccccc13)CCCC2
REMARK SMILES IDX 17 1 16 2 2 3 1 4 3 6 4 7 5 8 15 9 6 10 14 11 9 12 8 13
REMARK SMILES IDX 13 14 10 15 11 16 7 17 12 18 18 20 19 21 20 22 21 23 22 25
REMARK SMILES IDX 23 26 31 27 24 28 35 29 30 30 26 31 25 32 32 33 34 34 29 35
REMARK SMILES IDX 27 36 33 37 28 38
REMARK H PARENT 16 5 12 19 21 24
ROOT
ATOM      1  C   UNL     1     -14.872 -42.107  32.800  1.00  0.00     0.116 C 
ENDROOT
BRANCH   1   2
ATOM      2  N   UNL     1     -14.045 -43.207  32.350  1.00  0.00    -0.356 N 
ATOM      3  C   UNL     1     -12.670 -43.125  32.450  1.00  0.00     0.224 C 
ATOM      4  O   UNL     1     -12.094 -42.239  33.076  1.00  0.00    -0.275 OA
ATOM      5  H   UNL     1     -14.428 -43.828  31.646  1.00  0.00     0.163 HD
BRANCH   3   6
ATOM      6  C   UNL     1     -11.911 -44.228  31.721  1.00  0.00     0.136 C 
BRANCH   6   7
ATOM      7  C   UNL     1     -10.496 -43.813  31.395  1.00  0.00    -0.020 A 
ATOM      8  C   UNL     1      -9.548 -43.822  32.346  1.00  0.00     0.098 A 
ATOM      9  C   UNL     1     -10.117 -43.348  30.052  1.00  0.00     0.022 A 
ATOM     10  C   UNL     1      -8.146 -43.446  32.116  1.00  0.00     0.336 A 
ATOM     11  C   UNL     1     -11.010 -43.238  28.979  1.00  0.00     0.016 A 
ATOM     12  C   UNL     1      -8.787 -42.978  29.819  1.00  0.00     0.142 A 
ATOM     13  O   UNL     1      -7.815 -43.039  30.837  1.00  0.00    -0.423 OA
ATOM     14  C   UNL     1     -10.577 -42.783  27.727  1.00  0.00     0.047 A 
ATOM     15  C   UNL     1      -8.337 -42.522  28.577  1.00  0.00     0.094 A 
ATOM     16  C   UNL     1      -9.247 -42.430  27.536  1.00  0.00     0.119 A 
ATOM     17  O   UNL     1      -7.321 -43.507  33.020  1.00  0.00    -0.246 OA
BRANCH  16  18
ATOM     18  O   UNL     1      -8.876 -41.992  26.300  1.00  0.00    -0.508 OA
ATOM     19  H   UNL     1      -8.868 -41.021  26.300  1.00  0.00     0.293 HD
ENDBRANCH  16  18
ENDBRANCH   6   7
ENDBRANCH   3   6
ENDBRANCH   1   2
BRANCH   1  20
ATOM     20  C   UNL     1     -16.121 -41.901  31.946  1.00  0.00     0.023 C 
BRANCH  20  21
ATOM     21  C   UNL     1     -16.121 -42.675  30.623  1.00  0.00     0.023 C 
BRANCH  21  22
ATOM     22  C   UNL     1     -16.927 -42.053  29.482  1.00  0.00     0.113 C 
BRANCH  22  23
ATOM     23  N   UNL     1     -17.461 -43.073  28.573  1.00  0.00    -0.384 N 
ATOM     24  H   UNL     1     -18.301 -43.521  28.919  1.00  0.00     0.160 HD
BRANCH  23  25
ATOM     25  C   UNL     1     -17.489 -42.762  27.198  1.00  0.00     0.049 A 
ATOM     26  C   UNL     1     -18.704 -42.447  26.567  1.00  0.00    -0.003 A 
ATOM     27  C   UNL     1     -16.300 -42.807  26.407  1.00  0.00     0.024 A 
ATOM     28  C   UNL     1     -18.710 -42.286  25.182  1.00  0.00     0.046 A 
ATOM     29  C   UNL     1     -20.019 -42.260  27.283  1.00  0.00     0.039 C 
ATOM     30  C   UNL     1     -14.995 -43.043  26.916  1.00  0.00     0.012 A 
ATOM     31  C   UNL     1     -16.433 -42.612  25.014  1.00  0.00     0.073 A 
ATOM     32  N   UNL     1     -17.610 -42.395  24.413  1.00  0.00    -0.252 NA
ATOM     33  C   UNL     1     -20.022 -42.020  24.491  1.00  0.00     0.056 C 
ATOM     34  C   UNL     1     -20.783 -41.046  26.743  1.00  0.00     0.005 C 
ATOM     35  C   UNL     1     -13.878 -43.102  26.081  1.00  0.00     0.001 A 
ATOM     36  C   UNL     1     -15.309 -42.677  24.202  1.00  0.00     0.029 A 
ATOM     37  C   UNL     1     -20.810 -40.932  25.214  1.00  0.00     0.007 C 
ATOM     38  C   UNL     1     -14.037 -42.923  24.717  1.00  0.00     0.002 A 
ENDBRANCH  23  25
ENDBRANCH  22  23
ENDBRANCH  21  22
ENDBRANCH  20  21
ENDBRANCH   1  20
TORSDOF 9
ENDMDL
MODEL 8
REMARK VINA RESULT:   -10.757      3.443      9.618
REMARK INTER + INTRA:         -16.919
REMARK INTER:                 -16.030
REMARK INTRA:                  -0.889
REMARK UNBOUND:                -0.817
REMARK SMILES O=C(Cc1cc(=O)oc2cc(O)ccc12)NCCCCNc1c2c(nc3ccccc13)CCCC2
REMARK SMILES IDX 17 1 16 2 2 3 1 4 3 6 4 7 5 8 15 9 6 10 14 11 9 12 8 13
REMARK SMILES IDX 13 14 10 15 11 16 7 17 12 18 18 20 19 21 20 22 21 23 22 25
REMARK SMILES IDX 23 26 31 27 24 28 35 29 30 30 26 31 25 32 32 33 34 34 29 35
REMARK SMILES IDX 27 36 33 37 28 38
REMARK H PARENT 16 5 12 19 21 24
ROOT
ATOM      1  C   UNL     1     -15.120 -42.258  32.930  1.00  0.00     0.116 C 
ENDROOT
BRANCH   1   2
ATOM      2  N   UNL     1     -14.266 -43.327  32.455  1.00  0.00    -0.356 N 
ATOM      3  C   UNL     1     -12.896 -43.157  32.426  1.00  0.00     0.224 C 
ATOM      4  O   UNL     1     -12.326 -42.209  32.960  1.00  0.00    -0.275 OA
ATOM      5  H   UNL     1     -14.668 -44.003  31.815  1.00  0.00     0.163 HD
BRANCH   3   6
ATOM      6  C   UNL     1     -12.134 -44.246  31.679  1.00  0.00     0.136 C 
BRANCH   6   7
ATOM      7  C   UNL     1     -10.706 -43.840  31.402  1.00  0.00    -0.020 A 
ATOM      8  C   UNL     1      -9.793 -43.850  32.386  1.00  0.00     0.098 A 
ATOM      9  C   UNL     1     -10.276 -43.385  30.071  1.00  0.00     0.022 A 
ATOM     10  C   UNL     1      -8.381 -43.482  32.204  1.00  0.00     0.336 A 
ATOM     11  C   UNL     1     -11.131 -43.275  28.966  1.00  0.00     0.016 A 
ATOM     12  C   UNL     1      -8.938 -43.022  29.884  1.00  0.00     0.142 A 
ATOM     13  O   UNL     1      -8.002 -43.084  30.936  1.00  0.00    -0.423 OA
ATOM     14  C   UNL     1     -10.650 -42.829  27.728  1.00  0.00     0.047 A 
ATOM     15  C   UNL     1      -8.441 -42.575  28.656  1.00  0.00     0.094 A 
ATOM     16  C   UNL     1      -9.313 -42.484  27.583  1.00  0.00     0.119 A 
ATOM     17  O   UNL     1      -7.589 -43.543  33.138  1.00  0.00    -0.246 OA
BRANCH  16  18
ATOM     18  O   UNL     1      -8.895 -42.055  26.358  1.00  0.00    -0.508 OA
ATOM     19  H   UNL     1      -8.095 -41.516  26.471  1.00  0.00     0.293 HD
ENDBRANCH  16  18
ENDBRANCH   6   7
ENDBRANCH   3   6
ENDBRANCH   1   2
BRANCH   1  20
ATOM     20  C   UNL     1     -16.037 -41.691  31.849  1.00  0.00     0.023 C 
BRANCH  20  21
ATOM     21  C   UNL     1     -16.265 -42.626  30.655  1.00  0.00     0.023 C 
BRANCH  21  22
ATOM     22  C   UNL     1     -16.810 -41.970  29.385  1.00  0.00     0.113 C 
BRANCH  22  23
ATOM     23  N   UNL     1     -17.543 -42.928  28.550  1.00  0.00    -0.384 N 
ATOM     24  H   UNL     1     -18.443 -43.190  28.933  1.00  0.00     0.160 HD
BRANCH  23  25
ATOM     25  C   UNL     1     -17.545 -42.702  27.158  1.00  0.00     0.049 A 
ATOM     26  C   UNL     1     -16.378 -42.911  26.404  1.00  0.00    -0.003 A 
ATOM     27  C   UNL     1     -18.710 -42.211  26.492  1.00  0.00     0.024 A 
ATOM     28  C   UNL     1     -16.382 -42.541  25.060  1.00  0.00     0.046 A 
ATOM     29  C   UNL     1     -15.107 -43.520  26.942  1.00  0.00     0.039 C 
ATOM     30  C   UNL     1     -19.976 -42.017  27.107  1.00  0.00     0.012 A 
ATOM     31  C   UNL     1     -18.592 -41.885  25.122  1.00  0.00     0.073 A 
ATOM     32  N   UNL     1     -17.450 -42.011  24.434  1.00  0.00    -0.252 NA
ATOM     33  C   UNL     1     -15.112 -42.695  24.264  1.00  0.00     0.056 C 
ATOM     34  C   UNL     1     -14.509 -44.530  25.957  1.00  0.00     0.005 C 
ATOM     35  C   UNL     1     -21.067 -41.507  26.402  1.00  0.00     0.001 A 
ATOM     36  C   UNL     1     -19.690 -41.377  24.442  1.00  0.00     0.029 A 
ATOM     37  C   UNL     1     -14.484 -44.066  24.496  1.00  0.00     0.007 C 
ATOM     38  C   UNL     1     -20.922 -41.181  25.065  1.00  0.00     0.002 A 
ENDBRANCH  23  25
ENDBRANCH  22  23
ENDBRANCH  21  22
ENDBRANCH  20  21
ENDBRANCH   1  20
TORSDOF 9
ENDMDL
MODEL 9
REMARK VINA RESULT:   -10.434      3.005     10.169
REMARK INTER + INTRA:         -16.436
REMARK INTER:                 -16.311
REMARK INTRA:                  -0.125
REMARK UNBOUND:                -0.817
REMARK SMILES O=C(Cc1cc(=O)oc2cc(O)ccc12)NCCCCNc1c2c(nc3ccccc13)CCCC2
REMARK SMILES IDX 17 1 16 2 2 3 1 4 3 6 4 7 5 8 15 9 6 10 14 11 9 12 8 13
REMARK SMILES IDX 13 14 10 15 11 16 7 17 12 18 18 20 19 21 20 22 21 23 22 25
REMARK SMILES IDX 23 26 31 27 24 28 35 29 30 30 26 31 25 32 32 33 34 34 29 35
REMARK SMILES IDX 27 36 33 37 28 38
REMARK H PARENT 16 5 12 19 21 24
ROOT
ATOM      1  C   UNL     1     -13.128 -43.744  27.473  1.00  0.00     0.116 C 
ENDROOT
BRANCH   1   2
ATOM      2  N   UNL     1     -12.753 -44.305  28.754  1.00  0.00    -0.356 N 
ATOM      3  C   UNL     1     -12.402 -45.638  28.850  1.00  0.00     0.224 C 
ATOM      4  O   UNL     1     -12.205 -46.352  27.869  1.00  0.00    -0.275 OA
ATOM      5  H   UNL     1     -13.106 -43.852  29.590  1.00  0.00     0.163 HD
BRANCH   3   6
ATOM      6  C   UNL     1     -12.272 -46.162  30.275  1.00  0.00     0.136 C 
BRANCH   6   7
ATOM      7  C   UNL     1     -11.069 -45.580  30.977  1.00  0.00    -0.020 A 
ATOM      8  C   UNL     1      -9.854 -46.125  30.811  1.00  0.00     0.098 A 
ATOM      9  C   UNL     1     -11.188 -44.434  31.893  1.00  0.00     0.022 A 
ATOM     10  C   UNL     1      -8.628 -45.618  31.444  1.00  0.00     0.336 A 
ATOM     11  C   UNL     1     -12.398 -43.800  32.202  1.00  0.00     0.016 A 
ATOM     12  C   UNL     1     -10.032 -43.946  32.512  1.00  0.00     0.142 A 
ATOM     13  O   UNL     1      -8.768 -44.525  32.278  1.00  0.00    -0.423 OA
ATOM     14  C   UNL     1     -12.434 -42.715  33.087  1.00  0.00     0.047 A 
ATOM     15  C   UNL     1     -10.049 -42.865  33.398  1.00  0.00     0.094 A 
ATOM     16  C   UNL     1     -11.262 -42.256  33.677  1.00  0.00     0.119 A 
ATOM     17  O   UNL     1      -7.542 -46.142  31.225  1.00  0.00    -0.246 OA
BRANCH  16  18
ATOM     18  O   UNL     1     -11.351 -41.199  34.532  1.00  0.00    -0.508 OA
ATOM     19  H   UNL     1     -11.174 -40.381  34.039  1.00  0.00     0.293 HD
ENDBRANCH  16  18
ENDBRANCH   6   7
ENDBRANCH   3   6
ENDBRANCH   1   2
BRANCH   1  20
ATOM     20  C   UNL     1     -14.555 -44.090  27.056  1.00  0.00     0.023 C 
BRANCH  20  21
ATOM     21  C   UNL     1     -15.641 -43.533  27.985  1.00  0.00     0.023 C 
BRANCH  21  22
ATOM     22  C   UNL     1     -16.487 -42.391  27.418  1.00  0.00     0.113 C 
BRANCH  22  23
ATOM     23  N   UNL     1     -17.814 -42.854  26.996  1.00  0.00    -0.384 N 
ATOM     24  H   UNL     1     -18.469 -42.949  27.764  1.00  0.00     0.160 HD
BRANCH  23  25
ATOM     25  C   UNL     1     -18.359 -42.277  25.832  1.00  0.00     0.049 A 
ATOM     26  C   UNL     1     -19.730 -41.973  25.765  1.00  0.00    -0.003 A 
ATOM     27  C   UNL     1     -17.549 -42.032  24.680  1.00  0.00     0.024 A 
ATOM     28  C   UNL     1     -20.254 -41.538  24.549  1.00  0.00     0.046 A 
ATOM     29  C   UNL     1     -20.688 -42.078  26.925  1.00  0.00     0.039 C 
ATOM     30  C   UNL     1     -16.142 -42.224  24.622  1.00  0.00     0.012 A 
ATOM     31  C   UNL     1     -18.196 -41.576  23.510  1.00  0.00     0.073 A 
ATOM     32  N   UNL     1     -19.516 -41.370  23.435  1.00  0.00    -0.252 NA
ATOM     33  C   UNL     1     -21.735 -41.281  24.451  1.00  0.00     0.056 C 
ATOM     34  C   UNL     1     -21.629 -40.870  26.985  1.00  0.00     0.005 C 
ATOM     35  C   UNL     1     -15.415 -41.993  23.454  1.00  0.00     0.001 A 
ATOM     36  C   UNL     1     -17.452 -41.354  22.359  1.00  0.00     0.029 A 
ATOM     37  C   UNL     1     -22.226 -40.453  25.634  1.00  0.00     0.007 C 
ATOM     38  C   UNL     1     -16.074 -41.560  22.316  1.00  0.00     0.002 A 
ENDBRANCH  23  25
ENDBRANCH  22  23
ENDBRANCH  21  22
ENDBRANCH  20  21
ENDBRANCH   1  20
TORSDOF 9
ENDMDL
