MODEL 1
REMARK VINA RESULT:   -11.561      0.000      0.000
REMARK INTER + INTRA:         -15.496
REMARK INTER:                 -14.940
REMARK INTRA:                  -0.556
REMARK UNBOUND:                -0.556
REMARK SMILES O=C(NCCNc1c2c(nc3ccccc13)CCCC2)c1ccc(F)cc1
REMARK SMILES IDX 4 1 3 2 2 3 1 4 21 6 22 7 27 8 23 9 26 10 24 11 25 12 5 13
REMARK SMILES IDX 6 14 7 16 8 17 16 18 9 19 20 20 15 21 11 22 10 23 17 24
REMARK SMILES IDX 19 25 14 26 12 27 18 28 13 29
REMARK H PARENT 3 5 6 15
ROOT
ATOM      1  C   UNL     1     -11.534 -45.117  28.415  1.00  0.00     0.137 C 
ENDROOT
BRANCH   1   2
ATOM      2  N   UNL     1     -12.792 -44.948  27.675  1.00  0.00    -0.350 N 
ATOM      3  C   UNL     1     -13.055 -43.666  27.120  1.00  0.00     0.251 C 
ATOM      4  O   UNL     1     -12.221 -42.739  27.279  1.00  0.00    -0.269 OA
ATOM      5  H   UNL     1     -13.475 -45.723  27.551  1.00  0.00     0.163 HD
BRANCH   3   6
ATOM      6  C   UNL     1     -14.262 -43.359  26.363  1.00  0.00     0.040 A 
ATOM      7  C   UNL     1     -14.188 -43.405  24.987  1.00  0.00     0.017 A 
ATOM      8  C   UNL     1     -15.463 -43.027  26.952  1.00  0.00     0.017 A 
ATOM      9  C   UNL     1     -15.327 -43.115  24.236  1.00  0.00     0.040 A 
ATOM     10  C   UNL     1     -16.599 -42.737  26.230  1.00  0.00     0.040 A 
ATOM     11  C   UNL     1     -16.529 -42.782  24.849  1.00  0.00     0.123 A 
ATOM     12  F   UNL     1     -17.651 -42.496  24.147  1.00  0.00    -0.207 F 
ENDBRANCH   3   6
ENDBRANCH   1   2
BRANCH   1  13
ATOM     13  C   UNL     1     -11.675 -46.359  29.234  1.00  0.00     0.134 C 
BRANCH  13  14
ATOM     14  N   UNL     1     -11.466 -46.245  30.636  1.00  0.00    -0.382 N 
ATOM     15  H   UNL     1     -11.739 -47.094  31.231  1.00  0.00     0.160 HD
BRANCH  14  16
ATOM     16  C   UNL     1     -10.945 -45.159  31.352  1.00  0.00     0.049 A 
ATOM     17  C   UNL     1      -9.585 -44.883  31.511  1.00  0.00    -0.003 A 
ATOM     18  C   UNL     1     -11.895 -44.312  31.948  1.00  0.00     0.024 A 
ATOM     19  C   UNL     1      -9.293 -43.773  32.271  1.00  0.00     0.046 A 
ATOM     20  C   UNL     1      -8.602 -45.766  30.953  1.00  0.00     0.039 C 
ATOM     21  C   UNL     1     -13.251 -44.548  31.810  1.00  0.00     0.012 A 
ATOM     22  C   UNL     1     -11.530 -43.214  32.688  1.00  0.00     0.073 A 
ATOM     23  N   UNL     1     -10.224 -42.971  32.833  1.00  0.00    -0.252 NA
ATOM     24  C   UNL     1      -7.913 -43.570  32.694  1.00  0.00     0.056 C 
ATOM     25  C   UNL     1      -7.157 -45.203  31.029  1.00  0.00     0.005 C 
ATOM     26  C   UNL     1     -14.212 -43.734  32.377  1.00  0.00     0.001 A 
ATOM     27  C   UNL     1     -12.452 -42.370  33.277  1.00  0.00     0.029 A 
ATOM     28  C   UNL     1      -6.942 -44.727  32.451  1.00  0.00     0.007 C 
ATOM     29  C   UNL     1     -13.798 -42.640  33.115  1.00  0.00     0.002 A 
ENDBRANCH  14  16
ENDBRANCH  13  14
ENDBRANCH   1  13
TORSDOF 5
ENDMDL
MODEL 2
REMARK VINA RESULT:   -11.474      0.307      3.486
REMARK INTER + INTRA:         -15.384
REMARK INTER:                 -14.851
REMARK INTRA:                  -0.533
REMARK UNBOUND:                -0.556
REMARK SMILES O=C(NCCNc1c2c(nc3ccccc13)CCCC2)c1ccc(F)cc1
REMARK SMILES IDX 4 1 3 2 2 3 1 4 21 6 22 7 27 8 23 9 26 10 24 11 25 12 5 13
REMARK SMILES IDX 6 14 7 16 8 17 16 18 9 19 20 20 15 21 11 22 10 23 17 24
REMARK SMILES IDX 19 25 14 26 12 27 18 28 13 29
REMARK H PARENT 3 5 6 15
ROOT
ATOM      1  C   UNL     1     -11.731 -45.131  28.438  1.00  0.00     0.137 C 
ENDROOT
BRANCH   1   2
ATOM      2  N   UNL     1     -12.968 -44.957  27.665  1.00  0.00    -0.350 N 
ATOM      3  C   UNL     1     -13.213 -43.673  27.107  1.00  0.00     0.251 C 
ATOM      4  O   UNL     1     -12.382 -42.749  27.291  1.00  0.00    -0.269 OA
ATOM      5  H   UNL     1     -13.650 -45.731  27.520  1.00  0.00     0.163 HD
BRANCH   3   6
ATOM      6  C   UNL     1     -14.398 -43.360  26.319  1.00  0.00     0.040 A 
ATOM      7  C   UNL     1     -14.297 -43.436  24.946  1.00  0.00     0.017 A 
ATOM      8  C   UNL     1     -15.606 -42.996  26.876  1.00  0.00     0.017 A 
ATOM      9  C   UNL     1     -15.415 -43.141  24.166  1.00  0.00     0.040 A 
ATOM     10  C   UNL     1     -16.721 -42.702  26.125  1.00  0.00     0.040 A 
ATOM     11  C   UNL     1     -16.623 -42.776  24.747  1.00  0.00     0.123 A 
ATOM     12  F   UNL     1     -17.725 -42.484  24.015  1.00  0.00    -0.207 F 
ENDBRANCH   3   6
ENDBRANCH   1   2
BRANCH   1  13
ATOM     13  C   UNL     1     -11.853 -46.430  29.166  1.00  0.00     0.134 C 
BRANCH  13  14
ATOM     14  N   UNL     1     -11.532 -46.436  30.552  1.00  0.00    -0.382 N 
ATOM     15  H   UNL     1     -11.555 -47.387  31.045  1.00  0.00     0.160 HD
BRANCH  14  16
ATOM     16  C   UNL     1     -11.188 -45.350  31.369  1.00  0.00     0.049 A 
ATOM     17  C   UNL     1     -12.101 -44.495  31.991  1.00  0.00    -0.003 A 
ATOM     18  C   UNL     1      -9.810 -45.135  31.545  1.00  0.00     0.024 A 
ATOM     19  C   UNL     1     -11.544 -43.479  32.735  1.00  0.00     0.046 A 
ATOM     20  C   UNL     1     -13.508 -44.670  31.781  1.00  0.00     0.039 C 
ATOM     21  C   UNL     1      -8.874 -45.962  30.951  1.00  0.00     0.012 A 
ATOM     22  C   UNL     1      -9.326 -44.103  32.311  1.00  0.00     0.073 A 
ATOM     23  N   UNL     1     -10.215 -43.293  32.892  1.00  0.00    -0.252 NA
ATOM     24  C   UNL     1     -12.415 -42.406  33.196  1.00  0.00     0.056 C 
ATOM     25  C   UNL     1     -14.382 -43.784  32.709  1.00  0.00     0.005 C 
ATOM     26  C   UNL     1      -7.514 -45.783  31.105  1.00  0.00     0.001 A 
ATOM     27  C   UNL     1      -7.975 -43.880  32.496  1.00  0.00     0.029 A 
ATOM     28  C   UNL     1     -13.834 -42.375  32.622  1.00  0.00     0.007 C 
ATOM     29  C   UNL     1      -7.071 -44.730  31.885  1.00  0.00     0.002 A 
ENDBRANCH  14  16
ENDBRANCH  13  14
ENDBRANCH   1  13
TORSDOF 5
ENDMDL
MODEL 3
REMARK VINA RESULT:   -10.832      3.621      8.678
REMARK INTER + INTRA:         -14.553
REMARK INTER:                 -13.924
REMARK INTRA:                  -0.629
REMARK UNBOUND:                -0.556
REMARK SMILES O=C(NCCNc1c2c(nc3ccccc13)CCCC2)c1ccc(F)cc1
REMARK SMILES IDX 4 1 3 2 2 3 1 4 21 6 22 7 27 8 23 9 26 10 24 11 25 12 5 13
REMARK SMILES IDX 6 14 7 16 8 17 16 18 9 19 20 20 15 21 11 22 10 23 17 24
REMARK SMILES IDX 19 25 14 26 12 27 18 28 13 29
REMARK H PARENT 3 5 6 15
ROOT
ATOM      1  C   UNL     1     -16.383 -43.139  29.979  1.00  0.00     0.137 C 
ENDROOT
BRANCH   1   2
ATOM      2  N   UNL     1     -15.342 -43.902  29.277  1.00  0.00    -0.350 N 
ATOM      3  C   UNL     1     -14.210 -44.309  30.034  1.00  0.00     0.251 C 
ATOM      4  O   UNL     1     -14.138 -44.008  31.252  1.00  0.00    -0.269 OA
ATOM      5  H   UNL     1     -15.412 -44.144  28.267  1.00  0.00     0.163 HD
BRANCH   3   6
ATOM      6  C   UNL     1     -13.104 -45.070  29.467  1.00  0.00     0.040 A 
ATOM      7  C   UNL     1     -13.218 -45.495  28.160  1.00  0.00     0.017 A 
ATOM      8  C   UNL     1     -11.959 -45.382  30.168  1.00  0.00     0.017 A 
ATOM      9  C   UNL     1     -12.175 -46.226  27.591  1.00  0.00     0.040 A 
ATOM     10  C   UNL     1     -10.919 -46.102  29.626  1.00  0.00     0.040 A 
ATOM     11  C   UNL     1     -11.029 -46.531  28.315  1.00  0.00     0.123 A 
ATOM     12  F   UNL     1     -10.001 -47.238  27.790  1.00  0.00    -0.207 F 
ENDBRANCH   3   6
ENDBRANCH   1   2
BRANCH   1  13
ATOM     13  C   UNL     1     -17.571 -43.091  29.073  1.00  0.00     0.134 C 
BRANCH  13  14
ATOM     14  N   UNL     1     -17.575 -42.101  28.053  1.00  0.00    -0.382 N 
ATOM     15  H   UNL     1     -17.380 -41.094  28.362  1.00  0.00     0.160 HD
BRANCH  14  16
ATOM     16  C   UNL     1     -17.805 -42.268  26.680  1.00  0.00     0.049 A 
ATOM     17  C   UNL     1     -16.877 -42.779  25.770  1.00  0.00    -0.003 A 
ATOM     18  C   UNL     1     -19.074 -41.871  26.223  1.00  0.00     0.024 A 
ATOM     19  C   UNL     1     -17.305 -42.838  24.463  1.00  0.00     0.046 A 
ATOM     20  C   UNL     1     -15.561 -43.140  26.210  1.00  0.00     0.039 C 
ATOM     21  C   UNL     1     -20.022 -41.365  27.093  1.00  0.00     0.012 A 
ATOM     22  C   UNL     1     -19.435 -41.968  24.901  1.00  0.00     0.073 A 
ATOM     23  N   UNL     1     -18.531 -42.454  24.046  1.00  0.00    -0.252 NA
ATOM     24  C   UNL     1     -16.318 -43.113  23.426  1.00  0.00     0.056 C 
ATOM     25  C   UNL     1     -14.736 -43.890  25.130  1.00  0.00     0.005 C 
ATOM     26  C   UNL     1     -21.279 -40.970  26.681  1.00  0.00     0.001 A 
ATOM     27  C   UNL     1     -20.679 -41.585  24.437  1.00  0.00     0.029 A 
ATOM     28  C   UNL     1     -14.848 -43.086  23.851  1.00  0.00     0.007 C 
ATOM     29  C   UNL     1     -21.600 -41.085  25.340  1.00  0.00     0.002 A 
ENDBRANCH  14  16
ENDBRANCH  13  14
ENDBRANCH   1  13
TORSDOF 5
ENDMDL
MODEL 4
REMARK VINA RESULT:   -10.614      1.472      2.315
REMARK INTER + INTRA:         -14.272
REMARK INTER:                 -13.979
REMARK INTRA:                  -0.293
REMARK UNBOUND:                -0.556
REMARK SMILES O=C(NCCNc1c2c(nc3ccccc13)CCCC2)c1ccc(F)cc1
REMARK SMILES IDX 4 1 3 2 2 3 1 4 21 6 22 7 27 8 23 9 26 10 24 11 25 12 5 13
REMARK SMILES IDX 6 14 7 16 8 17 16 18 9 19 20 20 15 21 11 22 10 23 17 24
REMARK SMILES IDX 19 25 14 26 12 27 18 28 13 29
REMARK H PARENT 3 5 6 15
ROOT
ATOM      1  C   UNL     1     -13.930 -44.641  27.828  1.00  0.00     0.137 C 
ENDROOT
BRANCH   1   2
ATOM      2  N   UNL     1     -14.962 -44.221  26.870  1.00  0.00    -0.350 N 
ATOM      3  C   UNL     1     -14.622 -43.188  25.956  1.00  0.00     0.251 C 
ATOM      4  O   UNL     1     -13.474 -42.678  25.996  1.00  0.00    -0.269 OA
ATOM      5  H   UNL     1     -15.910 -44.651  26.846  1.00  0.00     0.163 HD
BRANCH   3   6
ATOM      6  C   UNL     1     -15.547 -42.675  24.953  1.00  0.00     0.040 A 
ATOM      7  C   UNL     1     -16.897 -42.844  25.175  1.00  0.00     0.017 A 
ATOM      8  C   UNL     1     -15.139 -42.035  23.802  1.00  0.00     0.017 A 
ATOM      9  C   UNL     1     -17.805 -42.364  24.232  1.00  0.00     0.040 A 
ATOM     10  C   UNL     1     -16.018 -41.554  22.858  1.00  0.00     0.040 A 
ATOM     11  C   UNL     1     -17.374 -41.722  23.078  1.00  0.00     0.123 A 
ATOM     12  F   UNL     1     -18.232 -41.245  22.144  1.00  0.00    -0.207 F 
ENDBRANCH   3   6
ENDBRANCH   1   2
BRANCH   1  13
ATOM     13  C   UNL     1     -14.550 -44.582  29.187  1.00  0.00     0.134 C 
BRANCH  13  14
ATOM     14  N   UNL     1     -13.869 -45.247  30.244  1.00  0.00    -0.382 N 
ATOM     15  H   UNL     1     -14.244 -46.211  30.524  1.00  0.00     0.160 HD
BRANCH  14  16
ATOM     16  C   UNL     1     -12.760 -44.804  30.979  1.00  0.00     0.049 A 
ATOM     17  C   UNL     1     -11.448 -45.243  30.789  1.00  0.00    -0.003 A 
ATOM     18  C   UNL     1     -13.033 -43.854  31.978  1.00  0.00     0.024 A 
ATOM     19  C   UNL     1     -10.514 -44.690  31.636  1.00  0.00     0.046 A 
ATOM     20  C   UNL     1     -11.160 -46.249  29.809  1.00  0.00     0.039 C 
ATOM     21  C   UNL     1     -14.318 -43.390  32.193  1.00  0.00     0.012 A 
ATOM     22  C   UNL     1     -12.046 -43.339  32.782  1.00  0.00     0.073 A 
ATOM     23  N   UNL     1     -10.798 -43.775  32.588  1.00  0.00    -0.252 NA
ATOM     24  C   UNL     1      -9.182 -45.282  31.673  1.00  0.00     0.056 C 
ATOM     25  C   UNL     1      -9.640 -46.461  29.574  1.00  0.00     0.005 C 
ATOM     26  C   UNL     1     -14.622 -42.454  33.162  1.00  0.00     0.001 A 
ATOM     27  C   UNL     1     -12.297 -42.401  33.766  1.00  0.00     0.029 A 
ATOM     28  C   UNL     1      -8.998 -46.611  30.938  1.00  0.00     0.007 C 
ATOM     29  C   UNL     1     -13.596 -41.963  33.950  1.00  0.00     0.002 A 
ENDBRANCH  14  16
ENDBRANCH  13  14
ENDBRANCH   1  13
TORSDOF 5
ENDMDL
MODEL 5
REMARK VINA RESULT:   -10.298      4.461     10.321
REMARK INTER + INTRA:         -13.864
REMARK INTER:                 -14.107
REMARK INTRA:                   0.243
REMARK UNBOUND:                -0.556
REMARK SMILES O=C(NCCNc1c2c(nc3ccccc13)CCCC2)c1ccc(F)cc1
REMARK SMILES IDX 4 1 3 2 2 3 1 4 21 6 22 7 27 8 23 9 26 10 24 11 25 12 5 13
REMARK SMILES IDX 6 14 7 16 8 17 16 18 9 19 20 20 15 21 11 22 10 23 17 24
REMARK SMILES IDX 19 25 14 26 12 27 18 28 13 29
REMARK H PARENT 3 5 6 15
ROOT
ATOM      1  C   UNL     1     -15.052 -42.155  24.085  1.00  0.00     0.137 C 
ENDROOT
BRANCH   1   2
ATOM      2  N   UNL     1     -14.230 -43.194  24.722  1.00  0.00    -0.350 N 
ATOM      3  C   UNL     1     -14.038 -43.103  26.127  1.00  0.00     0.251 C 
ATOM      4  O   UNL     1     -14.565 -42.157  26.764  1.00  0.00    -0.269 OA
ATOM      5  H   UNL     1     -13.798 -43.973  24.183  1.00  0.00     0.163 HD
BRANCH   3   6
ATOM      6  C   UNL     1     -13.249 -44.064  26.886  1.00  0.00     0.040 A 
ATOM      7  C   UNL     1     -12.217 -43.579  27.663  1.00  0.00     0.017 A 
ATOM      8  C   UNL     1     -13.482 -45.422  26.865  1.00  0.00     0.017 A 
ATOM      9  C   UNL     1     -11.444 -44.476  28.400  1.00  0.00     0.040 A 
ATOM     10  C   UNL     1     -12.732 -46.324  27.585  1.00  0.00     0.040 A 
ATOM     11  C   UNL     1     -11.696 -45.842  28.365  1.00  0.00     0.123 A 
ATOM     12  F   UNL     1     -10.963 -46.737  29.071  1.00  0.00    -0.207 F 
ENDBRANCH   3   6
ENDBRANCH   1   2
BRANCH   1  13
ATOM     13  C   UNL     1     -16.295 -42.824  23.594  1.00  0.00     0.134 C 
BRANCH  13  14
ATOM     14  N   UNL     1     -17.293 -41.999  23.006  1.00  0.00    -0.382 N 
ATOM     15  H   UNL     1     -17.106 -41.661  22.006  1.00  0.00     0.160 HD
BRANCH  14  16
ATOM     16  C   UNL     1     -18.501 -41.562  23.566  1.00  0.00     0.049 A 
ATOM     17  C   UNL     1     -18.896 -41.782  24.888  1.00  0.00    -0.003 A 
ATOM     18  C   UNL     1     -19.355 -40.861  22.698  1.00  0.00     0.024 A 
ATOM     19  C   UNL     1     -20.134 -41.282  25.224  1.00  0.00     0.046 A 
ATOM     20  C   UNL     1     -18.059 -42.540  25.772  1.00  0.00     0.039 C 
ATOM     21  C   UNL     1     -18.998 -40.618  21.384  1.00  0.00     0.012 A 
ATOM     22  C   UNL     1     -20.576 -40.382  23.107  1.00  0.00     0.073 A 
ATOM     23  N   UNL     1     -20.938 -40.608  24.373  1.00  0.00    -0.252 NA
ATOM     24  C   UNL     1     -20.721 -41.691  26.494  1.00  0.00     0.056 C 
ATOM     25  C   UNL     1     -18.536 -42.504  27.250  1.00  0.00     0.005 C 
ATOM     26  C   UNL     1     -19.810 -39.929  20.505  1.00  0.00     0.001 A 
ATOM     27  C   UNL     1     -21.426 -39.688  22.266  1.00  0.00     0.029 A 
ATOM     28  C   UNL     1     -20.016 -42.822  27.246  1.00  0.00     0.007 C 
ATOM     29  C   UNL     1     -21.032 -39.466  20.959  1.00  0.00     0.002 A 
ENDBRANCH  14  16
ENDBRANCH  13  14
ENDBRANCH   1  13
TORSDOF 5
ENDMDL
MODEL 6
REMARK VINA RESULT:   -10.269      1.529      4.003
REMARK INTER + INTRA:         -13.826
REMARK INTER:                 -13.359
REMARK INTRA:                  -0.467
REMARK UNBOUND:                -0.556
REMARK SMILES O=C(NCCNc1c2c(nc3ccccc13)CCCC2)c1ccc(F)cc1
REMARK SMILES IDX 4 1 3 2 2 3 1 4 21 6 22 7 27 8 23 9 26 10 24 11 25 12 5 13
REMARK SMILES IDX 6 14 7 16 8 17 16 18 9 19 20 20 15 21 11 22 10 23 17 24
REMARK SMILES IDX 19 25 14 26 12 27 18 28 13 29
REMARK H PARENT 3 5 6 15
ROOT
ATOM      1  C   UNL     1     -13.060 -45.740  29.649  1.00  0.00     0.137 C 
ENDROOT
BRANCH   1   2
ATOM      2  N   UNL     1     -13.870 -44.844  28.812  1.00  0.00    -0.350 N 
ATOM      3  C   UNL     1     -13.812 -45.037  27.405  1.00  0.00     0.251 C 
ATOM      4  O   UNL     1     -13.086 -45.948  26.934  1.00  0.00    -0.269 OA
ATOM      5  H   UNL     1     -14.468 -44.093  29.214  1.00  0.00     0.163 HD
BRANCH   3   6
ATOM      6  C   UNL     1     -14.563 -44.223  26.458  1.00  0.00     0.040 A 
ATOM      7  C   UNL     1     -15.458 -43.305  26.966  1.00  0.00     0.017 A 
ATOM      8  C   UNL     1     -14.422 -44.326  25.090  1.00  0.00     0.017 A 
ATOM      9  C   UNL     1     -16.191 -42.512  26.083  1.00  0.00     0.040 A 
ATOM     10  C   UNL     1     -15.135 -43.553  24.202  1.00  0.00     0.040 A 
ATOM     11  C   UNL     1     -16.035 -42.631  24.707  1.00  0.00     0.123 A 
ATOM     12  F   UNL     1     -16.732 -41.875  23.826  1.00  0.00    -0.207 F 
ENDBRANCH   3   6
ENDBRANCH   1   2
BRANCH   1  13
ATOM     13  C   UNL     1     -11.751 -45.055  29.878  1.00  0.00     0.134 C 
BRANCH  13  14
ATOM     14  N   UNL     1     -11.790 -43.708  30.332  1.00  0.00    -0.382 N 
ATOM     15  H   UNL     1     -11.864 -42.951  29.578  1.00  0.00     0.160 HD
BRANCH  14  16
ATOM     16  C   UNL     1     -11.742 -43.233  31.650  1.00  0.00     0.049 A 
ATOM     17  C   UNL     1     -12.856 -42.861  32.407  1.00  0.00    -0.003 A 
ATOM     18  C   UNL     1     -10.459 -43.128  32.213  1.00  0.00     0.024 A 
ATOM     19  C   UNL     1     -12.579 -42.402  33.675  1.00  0.00     0.046 A 
ATOM     20  C   UNL     1     -14.168 -42.912  31.831  1.00  0.00     0.039 C 
ATOM     21  C   UNL     1      -9.332 -43.491  31.498  1.00  0.00     0.012 A 
ATOM     22  C   UNL     1     -10.260 -42.668  33.492  1.00  0.00     0.073 A 
ATOM     23  N   UNL     1     -11.337 -42.312  34.197  1.00  0.00    -0.252 NA
ATOM     24  C   UNL     1     -13.652 -41.759  34.424  1.00  0.00     0.056 C 
ATOM     25  C   UNL     1     -15.303 -42.680  32.864  1.00  0.00     0.005 C 
ATOM     26  C   UNL     1      -8.056 -43.406  32.021  1.00  0.00     0.001 A 
ATOM     27  C   UNL     1      -9.004 -42.563  34.061  1.00  0.00     0.029 A 
ATOM     28  C   UNL     1     -14.936 -41.442  33.654  1.00  0.00     0.007 C 
ATOM     29  C   UNL     1      -7.902 -42.936  33.313  1.00  0.00     0.002 A 
ENDBRANCH  14  16
ENDBRANCH  13  14
ENDBRANCH   1  13
TORSDOF 5
ENDMDL
MODEL 7
REMARK VINA RESULT:   -10.188      2.032      4.236
REMARK INTER + INTRA:         -13.722
REMARK INTER:                 -13.523
REMARK INTRA:                  -0.199
REMARK UNBOUND:                -0.556
REMARK SMILES O=C(NCCNc1c2c(nc3ccccc13)CCCC2)c1ccc(F)cc1
REMARK SMILES IDX 4 1 3 2 2 3 1 4 21 6 22 7 27 8 23 9 26 10 24 11 25 12 5 13
REMARK SMILES IDX 6 14 7 16 8 17 16 18 9 19 20 20 15 21 11 22 10 23 17 24
REMARK SMILES IDX 19 25 14 26 12 27 18 28 13 29
REMARK H PARENT 3 5 6 15
ROOT
ATOM      1  C   UNL     1     -14.690 -43.778  27.514  1.00  0.00     0.137 C 
ENDROOT
BRANCH   1   2
ATOM      2  N   UNL     1     -15.719 -43.131  26.688  1.00  0.00    -0.350 N 
ATOM      3  C   UNL     1     -15.466 -43.027  25.294  1.00  0.00     0.251 C 
ATOM      4  O   UNL     1     -14.393 -43.482  24.823  1.00  0.00    -0.269 OA
ATOM      5  H   UNL     1     -16.604 -42.756  27.090  1.00  0.00     0.163 HD
BRANCH   3   6
ATOM      6  C   UNL     1     -16.399 -42.411  24.359  1.00  0.00     0.040 A 
ATOM      7  C   UNL     1     -15.878 -41.804  23.235  1.00  0.00     0.017 A 
ATOM      8  C   UNL     1     -17.765 -42.405  24.543  1.00  0.00     0.017 A 
ATOM      9  C   UNL     1     -16.748 -41.205  22.323  1.00  0.00     0.040 A 
ATOM     10  C   UNL     1     -18.640 -41.821  23.656  1.00  0.00     0.040 A 
ATOM     11  C   UNL     1     -18.122 -41.211  22.528  1.00  0.00     0.123 A 
ATOM     12  F   UNL     1     -18.990 -40.638  21.660  1.00  0.00    -0.207 F 
ENDBRANCH   3   6
ENDBRANCH   1   2
BRANCH   1  13
ATOM     13  C   UNL     1     -15.264 -43.927  28.886  1.00  0.00     0.134 C 
BRANCH  13  14
ATOM     14  N   UNL     1     -14.634 -44.854  29.761  1.00  0.00    -0.382 N 
ATOM     15  H   UNL     1     -15.148 -45.780  29.927  1.00  0.00     0.160 HD
BRANCH  14  16
ATOM     16  C   UNL     1     -13.418 -44.718  30.443  1.00  0.00     0.049 A 
ATOM     17  C   UNL     1     -13.250 -44.038  31.652  1.00  0.00    -0.003 A 
ATOM     18  C   UNL     1     -12.305 -45.316  29.828  1.00  0.00     0.024 A 
ATOM     19  C   UNL     1     -11.963 -44.010  32.139  1.00  0.00     0.046 A 
ATOM     20  C   UNL     1     -14.365 -43.378  32.267  1.00  0.00     0.039 C 
ATOM     21  C   UNL     1     -12.430 -46.002  28.633  1.00  0.00     0.012 A 
ATOM     22  C   UNL     1     -11.048 -45.255  30.378  1.00  0.00     0.073 A 
ATOM     23  N   UNL     1     -10.908 -44.596  31.531  1.00  0.00    -0.252 NA
ATOM     24  C   UNL     1     -11.665 -43.112  33.247  1.00  0.00     0.056 C 
ATOM     25  C   UNL     1     -14.061 -42.865  33.700  1.00  0.00     0.005 C 
ATOM     26  C   UNL     1     -11.360 -46.606  28.003  1.00  0.00     0.001 A 
ATOM     27  C   UNL     1      -9.945 -45.841  29.787  1.00  0.00     0.029 A 
ATOM     28  C   UNL     1     -12.752 -42.106  33.630  1.00  0.00     0.007 C 
ATOM     29  C   UNL     1     -10.111 -46.518  28.593  1.00  0.00     0.002 A 
ENDBRANCH  14  16
ENDBRANCH  13  14
ENDBRANCH   1  13
TORSDOF 5
ENDMDL
MODEL 8
REMARK VINA RESULT:   -10.088      3.417      7.331
REMARK INTER + INTRA:         -13.592
REMARK INTER:                 -12.958
REMARK INTRA:                  -0.634
REMARK UNBOUND:                -0.556
REMARK SMILES O=C(NCCNc1c2c(nc3ccccc13)CCCC2)c1ccc(F)cc1
REMARK SMILES IDX 4 1 3 2 2 3 1 4 21 6 22 7 27 8 23 9 26 10 24 11 25 12 5 13
REMARK SMILES IDX 6 14 7 16 8 17 16 18 9 19 20 20 15 21 11 22 10 23 17 24
REMARK SMILES IDX 19 25 14 26 12 27 18 28 13 29
REMARK H PARENT 3 5 6 15
ROOT
ATOM      1  C   UNL     1     -14.738 -42.902  32.449  1.00  0.00     0.137 C 
ENDROOT
BRANCH   1   2
ATOM      2  N   UNL     1     -13.300 -43.183  32.340  1.00  0.00    -0.350 N 
ATOM      3  C   UNL     1     -12.433 -42.505  33.238  1.00  0.00     0.251 C 
ATOM      4  O   UNL     1     -12.915 -41.704  34.078  1.00  0.00    -0.269 OA
ATOM      5  H   UNL     1     -12.912 -43.849  31.639  1.00  0.00     0.163 HD
BRANCH   3   6
ATOM      6  C   UNL     1     -10.987 -42.689  33.242  1.00  0.00     0.040 A 
ATOM      7  C   UNL     1     -10.426 -43.402  32.204  1.00  0.00     0.017 A 
ATOM      8  C   UNL     1     -10.161 -42.187  34.226  1.00  0.00     0.017 A 
ATOM      9  C   UNL     1      -9.044 -43.595  32.182  1.00  0.00     0.040 A 
ATOM     10  C   UNL     1      -8.796 -42.365  34.223  1.00  0.00     0.040 A 
ATOM     11  C   UNL     1      -8.229 -43.081  33.183  1.00  0.00     0.123 A 
ATOM     12  F   UNL     1      -6.885 -43.251  33.189  1.00  0.00    -0.207 F 
ENDBRANCH   3   6
ENDBRANCH   1   2
BRANCH   1  13
ATOM     13  C   UNL     1     -15.262 -42.772  31.055  1.00  0.00     0.134 C 
BRANCH  13  14
ATOM     14  N   UNL     1     -15.328 -43.955  30.269  1.00  0.00    -0.382 N 
ATOM     15  H   UNL     1     -16.082 -44.668  30.538  1.00  0.00     0.160 HD
BRANCH  14  16
ATOM     16  C   UNL     1     -14.530 -44.319  29.175  1.00  0.00     0.049 A 
ATOM     17  C   UNL     1     -13.355 -45.070  29.257  1.00  0.00    -0.003 A 
ATOM     18  C   UNL     1     -14.975 -43.867  27.921  1.00  0.00     0.024 A 
ATOM     19  C   UNL     1     -12.715 -45.296  28.059  1.00  0.00     0.046 A 
ATOM     20  C   UNL     1     -12.859 -45.494  30.534  1.00  0.00     0.039 C 
ATOM     21  C   UNL     1     -16.136 -43.126  27.797  1.00  0.00     0.012 A 
ATOM     22  C   UNL     1     -14.287 -44.140  26.763  1.00  0.00     0.073 A 
ATOM     23  N   UNL     1     -13.163 -44.855  26.864  1.00  0.00    -0.252 NA
ATOM     24  C   UNL     1     -11.365 -45.842  28.092  1.00  0.00     0.056 C 
ATOM     25  C   UNL     1     -11.678 -46.495  30.433  1.00  0.00     0.005 C 
ATOM     26  C   UNL     1     -16.605 -42.670  26.581  1.00  0.00     0.001 A 
ATOM     27  C   UNL     1     -14.713 -43.707  25.522  1.00  0.00     0.029 A 
ATOM     28  C   UNL     1     -10.680 -45.906  29.459  1.00  0.00     0.007 C 
ATOM     29  C   UNL     1     -15.880 -42.968  25.440  1.00  0.00     0.002 A 
ENDBRANCH  14  16
ENDBRANCH  13  14
ENDBRANCH   1  13
TORSDOF 5
ENDMDL
MODEL 9
REMARK VINA RESULT:    -9.985      6.285      9.774
REMARK INTER + INTRA:         -13.459
REMARK INTER:                 -12.827
REMARK INTRA:                  -0.631
REMARK UNBOUND:                -0.556
REMARK SMILES O=C(NCCNc1c2c(nc3ccccc13)CCCC2)c1ccc(F)cc1
REMARK SMILES IDX 4 1 3 2 2 3 1 4 21 6 22 7 27 8 23 9 26 10 24 11 25 12 5 13
REMARK SMILES IDX 6 14 7 16 8 17 16 18 9 19 20 20 15 21 11 22 10 23 17 24
REMARK SMILES IDX 19 25 14 26 12 27 18 28 13 29
REMARK H PARENT 3 5 6 15
ROOT
ATOM      1  C   UNL     1     -17.647 -40.156  21.842  1.00  0.00     0.137 C 
ENDROOT
BRANCH   1   2
ATOM      2  N   UNL     1     -18.674 -40.427  20.826  1.00  0.00    -0.350 N 
ATOM      3  C   UNL     1     -19.949 -39.826  21.011  1.00  0.00     0.251 C 
ATOM      4  O   UNL     1     -20.151 -39.100  22.017  1.00  0.00    -0.269 OA
ATOM      5  H   UNL     1     -18.494 -41.031  19.997  1.00  0.00     0.163 HD
BRANCH   3   6
ATOM      6  C   UNL     1     -21.057 -40.008  20.083  1.00  0.00     0.040 A 
ATOM      7  C   UNL     1     -21.425 -38.934  19.301  1.00  0.00     0.017 A 
ATOM      8  C   UNL     1     -21.749 -41.194  19.951  1.00  0.00     0.017 A 
ATOM      9  C   UNL     1     -22.483 -39.080  18.403  1.00  0.00     0.040 A 
ATOM     10  C   UNL     1     -22.795 -41.358  19.072  1.00  0.00     0.040 A 
ATOM     11  C   UNL     1     -23.168 -40.283  18.286  1.00  0.00     0.123 A 
ATOM     12  F   UNL     1     -24.199 -40.454  17.423  1.00  0.00    -0.207 F 
ENDBRANCH   3   6
ENDBRANCH   1   2
BRANCH   1  13
ATOM     13  C   UNL     1     -16.918 -41.440  22.075  1.00  0.00     0.134 C 
BRANCH  13  14
ATOM     14  N   UNL     1     -17.506 -42.371  22.976  1.00  0.00    -0.382 N 
ATOM     15  H   UNL     1     -18.119 -43.135  22.542  1.00  0.00     0.160 HD
BRANCH  14  16
ATOM     16  C   UNL     1     -17.390 -42.422  24.372  1.00  0.00     0.049 A 
ATOM     17  C   UNL     1     -16.245 -42.824  25.065  1.00  0.00    -0.003 A 
ATOM     18  C   UNL     1     -18.535 -42.042  25.092  1.00  0.00     0.024 A 
ATOM     19  C   UNL     1     -16.356 -42.818  26.438  1.00  0.00     0.046 A 
ATOM     20  C   UNL     1     -15.086 -43.265  24.346  1.00  0.00     0.039 C 
ATOM     21  C   UNL     1     -19.686 -41.633  24.442  1.00  0.00     0.012 A 
ATOM     22  C   UNL     1     -18.569 -42.053  26.465  1.00  0.00     0.073 A 
ATOM     23  N   UNL     1     -17.467 -42.445  27.109  1.00  0.00    -0.252 NA
ATOM     24  C   UNL     1     -15.306 -43.463  27.216  1.00  0.00     0.056 C 
ATOM     25  C   UNL     1     -13.840 -43.463  25.252  1.00  0.00     0.005 C 
ATOM     26  C   UNL     1     -20.828 -41.248  25.117  1.00  0.00     0.001 A 
ATOM     27  C   UNL     1     -19.687 -41.678  27.187  1.00  0.00     0.029 A 
ATOM     28  C   UNL     1     -14.283 -44.294  26.438  1.00  0.00     0.007 C 
ATOM     29  C   UNL     1     -20.817 -41.275  26.500  1.00  0.00     0.002 A 
ENDBRANCH  14  16
ENDBRANCH  13  14
ENDBRANCH   1  13
TORSDOF 5
ENDMDL
