MODEL 1
REMARK VINA RESULT:    -9.742      0.000      0.000
REMARK INTER + INTRA:         -10.026
REMARK INTER:                 -10.026
REMARK INTRA:                   0.000
REMARK UNBOUND:                 0.000
REMARK SMILES CC1=C[C@@H]2Cc3nc4cc(Cl)ccc4c(N)c3[C@H](C1)C2
REMARK SMILES IDX 15 1 17 2 6 3 7 4 8 5 9 6 10 7 11 8 12 9 13 10 14 11 5 12
REMARK SMILES IDX 4 13 3 14 2 15 1 16 19 17 18 18 20 19 16 20
REMARK H PARENT 16 21 16 22
ROOT
ATOM      1  C   UNL     1     -14.910 -43.926  28.736  1.00  0.00     0.046 A 
ATOM      2  C   UNL     1     -13.830 -44.804  28.944  1.00  0.00     0.001 A 
ATOM      3  C   UNL     1     -13.126 -45.251  27.822  1.00  0.00     0.047 A 
ATOM      4  N   UNL     1     -13.477 -44.928  26.555  1.00  0.00    -0.252 NA
ATOM      5  C   UNL     1     -14.540 -44.142  26.356  1.00  0.00     0.074 A 
ATOM      6  C   UNL     1     -14.886 -43.853  25.043  1.00  0.00     0.049 A 
ATOM      7  C   UNL     1     -15.991 -43.064  24.743  1.00  0.00     0.043 A 
ATOM      8  Cl  UNL     1     -16.390 -42.732  23.103  1.00  0.00    -0.084 Cl
ATOM      9  C   UNL     1     -16.779 -42.546  25.760  1.00  0.00     0.021 A 
ATOM     10  C   UNL     1     -16.446 -42.822  27.086  1.00  0.00     0.014 A 
ATOM     11  C   UNL     1     -15.319 -43.617  27.411  1.00  0.00     0.024 A 
ATOM     12  C   UNL     1     -11.941 -46.184  27.941  1.00  0.00     0.064 C 
ATOM     13  C   UNL     1     -11.410 -46.333  29.375  1.00  0.00     0.018 C 
ATOM     14  C   UNL     1     -10.577 -45.133  29.771  1.00  0.00    -0.024 C 
ATOM     15  C   UNL     1     -11.060 -44.119  30.514  1.00  0.00    -0.076 C 
ATOM     16  C   UNL     1     -10.217 -42.944  30.914  1.00  0.00     0.039 C 
ATOM     17  C   UNL     1     -12.502 -44.095  30.982  1.00  0.00     0.039 C 
ATOM     18  C   UNL     1     -13.384 -45.198  30.348  1.00  0.00     0.028 C 
ATOM     19  C   UNL     1     -12.600 -46.515  30.321  1.00  0.00     0.017 C 
ENDROOT
BRANCH   1  20
ATOM     20  N   UNL     1     -15.691 -43.541  29.858  1.00  0.00    -0.398 N 
ATOM     21  H   UNL     1     -15.084 -43.221  30.611  1.00  0.00     0.156 HD
ATOM     22  H   UNL     1     -16.291 -44.286  30.195  1.00  0.00     0.156 HD
ENDBRANCH   1  20
TORSDOF 1
ENDMDL
MODEL 2
REMARK VINA RESULT:    -9.576      2.078      3.228
REMARK INTER + INTRA:          -9.856
REMARK INTER:                  -9.856
REMARK INTRA:                   0.000
REMARK UNBOUND:                 0.000
REMARK SMILES CC1=C[C@@H]2Cc3nc4cc(Cl)ccc4c(N)c3[C@H](C1)C2
REMARK SMILES IDX 15 1 17 2 6 3 7 4 8 5 9 6 10 7 11 8 12 9 13 10 14 11 5 12
REMARK SMILES IDX 4 13 3 14 2 15 1 16 19 17 18 18 20 19 16 20
REMARK H PARENT 16 21 16 22
ROOT
ATOM      1  C   UNL     1     -12.173 -45.101  29.392  1.00  0.00     0.046 A 
ATOM      2  C   UNL     1     -10.823 -44.819  29.672  1.00  0.00     0.001 A 
ATOM      3  C   UNL     1     -10.198 -43.812  28.931  1.00  0.00     0.047 A 
ATOM      4  N   UNL     1     -10.814 -43.149  27.923  1.00  0.00    -0.252 NA
ATOM      5  C   UNL     1     -12.079 -43.460  27.619  1.00  0.00     0.074 A 
ATOM      6  C   UNL     1     -12.669 -42.779  26.564  1.00  0.00     0.049 A 
ATOM      7  C   UNL     1     -13.972 -43.055  26.163  1.00  0.00     0.043 A 
ATOM      8  Cl  UNL     1     -14.667 -42.191  24.848  1.00  0.00    -0.084 Cl
ATOM      9  C   UNL     1     -14.714 -44.028  26.815  1.00  0.00     0.021 A 
ATOM     10  C   UNL     1     -14.140 -44.721  27.880  1.00  0.00     0.014 A 
ATOM     11  C   UNL     1     -12.817 -44.447  28.308  1.00  0.00     0.024 A 
ATOM     12  C   UNL     1      -8.755 -43.424  29.165  1.00  0.00     0.064 C 
ATOM     13  C   UNL     1      -8.160 -44.000  30.460  1.00  0.00     0.018 C 
ATOM     14  C   UNL     1      -8.627 -43.213  31.666  1.00  0.00    -0.024 C 
ATOM     15  C   UNL     1      -9.638 -43.619  32.458  1.00  0.00    -0.076 C 
ATOM     16  C   UNL     1     -10.077 -42.838  33.661  1.00  0.00     0.039 C 
ATOM     17  C   UNL     1     -10.410 -44.892  32.171  1.00  0.00     0.039 C 
ATOM     18  C   UNL     1     -10.079 -45.529  30.799  1.00  0.00     0.028 C 
ATOM     19  C   UNL     1      -8.564 -45.472  30.571  1.00  0.00     0.017 C 
ENDROOT
BRANCH   1  20
ATOM     20  N   UNL     1     -12.789 -46.185  30.072  1.00  0.00    -0.398 N 
ATOM     21  H   UNL     1     -12.631 -47.051  29.560  1.00  0.00     0.156 HD
ATOM     22  H   UNL     1     -13.784 -46.048  30.214  1.00  0.00     0.156 HD
ENDBRANCH   1  20
TORSDOF 1
ENDMDL
MODEL 3
REMARK VINA RESULT:    -8.936      4.124      7.175
REMARK INTER + INTRA:          -9.197
REMARK INTER:                  -9.197
REMARK INTRA:                   0.000
REMARK UNBOUND:                 0.000
REMARK SMILES CC1=C[C@@H]2Cc3nc4cc(Cl)ccc4c(N)c3[C@H](C1)C2
REMARK SMILES IDX 15 1 17 2 6 3 7 4 8 5 9 6 10 7 11 8 12 9 13 10 14 11 5 12
REMARK SMILES IDX 4 13 3 14 2 15 1 16 19 17 18 18 20 19 16 20
REMARK H PARENT 16 21 16 22
ROOT
ATOM      1  C   UNL     1      -9.857 -44.801  30.815  1.00  0.00     0.046 A 
ATOM      2  C   UNL     1     -11.213 -45.064  30.547  1.00  0.00     0.001 A 
ATOM      3  C   UNL     1     -12.172 -44.427  31.341  1.00  0.00     0.047 A 
ATOM      4  N   UNL     1     -11.850 -43.628  32.386  1.00  0.00    -0.252 NA
ATOM      5  C   UNL     1     -10.560 -43.427  32.677  1.00  0.00     0.074 A 
ATOM      6  C   UNL     1     -10.268 -42.624  33.770  1.00  0.00     0.049 A 
ATOM      7  C   UNL     1      -8.955 -42.381  34.159  1.00  0.00     0.043 A 
ATOM      8  Cl  UNL     1      -8.634 -41.382  35.522  1.00  0.00    -0.084 Cl
ATOM      9  C   UNL     1      -7.901 -42.945  33.456  1.00  0.00     0.021 A 
ATOM     10  C   UNL     1      -8.174 -43.752  32.352  1.00  0.00     0.014 A 
ATOM     11  C   UNL     1      -9.505 -44.003  31.936  1.00  0.00     0.024 A 
ATOM     12  C   UNL     1     -13.655 -44.633  31.123  1.00  0.00     0.064 C 
ATOM     13  C   UNL     1     -13.997 -45.328  29.797  1.00  0.00     0.018 C 
ATOM     14  C   UNL     1     -13.903 -44.359  28.638  1.00  0.00    -0.024 C 
ATOM     15  C   UNL     1     -12.830 -44.289  27.828  1.00  0.00    -0.076 C 
ATOM     16  C   UNL     1     -12.758 -43.336  26.672  1.00  0.00     0.039 C 
ATOM     17  C   UNL     1     -11.611 -45.165  28.046  1.00  0.00     0.039 C 
ATOM     18  C   UNL     1     -11.637 -45.951  29.380  1.00  0.00     0.028 C 
ATOM     19  C   UNL     1     -13.045 -46.512  29.606  1.00  0.00     0.017 C 
ENDROOT
BRANCH   1  20
ATOM     20  N   UNL     1      -8.875 -45.515  30.079  1.00  0.00    -0.398 N 
ATOM     21  H   UNL     1      -8.085 -45.742  30.680  1.00  0.00     0.156 HD
ATOM     22  H   UNL     1      -8.549 -45.009  29.262  1.00  0.00     0.156 HD
ENDBRANCH   1  20
TORSDOF 1
ENDMDL
MODEL 4
REMARK VINA RESULT:    -8.870      1.817      2.768
REMARK INTER + INTRA:          -9.130
REMARK INTER:                  -9.130
REMARK INTRA:                   0.000
REMARK UNBOUND:                 0.000
REMARK SMILES CC1=C[C@@H]2Cc3nc4cc(Cl)ccc4c(N)c3[C@H](C1)C2
REMARK SMILES IDX 15 1 17 2 6 3 7 4 8 5 9 6 10 7 11 8 12 9 13 10 14 11 5 12
REMARK SMILES IDX 4 13 3 14 2 15 1 16 19 17 18 18 20 19 16 20
REMARK H PARENT 16 21 16 22
ROOT
ATOM      1  C   UNL     1     -13.016 -45.434  26.954  1.00  0.00     0.046 A 
ATOM      2  C   UNL     1     -12.135 -44.926  27.927  1.00  0.00     0.001 A 
ATOM      3  C   UNL     1     -12.014 -43.538  28.039  1.00  0.00     0.047 A 
ATOM      4  N   UNL     1     -12.654 -42.674  27.216  1.00  0.00    -0.252 NA
ATOM      5  C   UNL     1     -13.445 -43.160  26.253  1.00  0.00     0.074 A 
ATOM      6  C   UNL     1     -14.064 -42.246  25.412  1.00  0.00     0.049 A 
ATOM      7  C   UNL     1     -14.883 -42.663  24.368  1.00  0.00     0.043 A 
ATOM      8  Cl  UNL     1     -15.630 -41.499  23.344  1.00  0.00    -0.084 Cl
ATOM      9  C   UNL     1     -15.098 -44.014  24.143  1.00  0.00     0.021 A 
ATOM     10  C   UNL     1     -14.488 -44.948  24.980  1.00  0.00     0.014 A 
ATOM     11  C   UNL     1     -13.657 -44.542  26.053  1.00  0.00     0.024 A 
ATOM     12  C   UNL     1     -11.105 -42.894  29.063  1.00  0.00     0.064 C 
ATOM     13  C   UNL     1     -10.592 -43.867  30.136  1.00  0.00     0.018 C 
ATOM     14  C   UNL     1     -11.661 -44.141  31.173  1.00  0.00    -0.024 C 
ATOM     15  C   UNL     1     -12.432 -45.244  31.155  1.00  0.00    -0.076 C 
ATOM     16  C   UNL     1     -13.474 -45.512  32.200  1.00  0.00     0.039 C 
ATOM     17  C   UNL     1     -12.304 -46.285  30.059  1.00  0.00     0.039 C 
ATOM     18  C   UNL     1     -11.391 -45.850  28.887  1.00  0.00     0.028 C 
ATOM     19  C   UNL     1     -10.144 -45.160  29.450  1.00  0.00     0.017 C 
ENDROOT
BRANCH   1  20
ATOM     20  N   UNL     1     -13.074 -46.840  26.767  1.00  0.00    -0.398 N 
ATOM     21  H   UNL     1     -14.041 -47.135  26.640  1.00  0.00     0.156 HD
ATOM     22  H   UNL     1     -12.656 -47.358  27.533  1.00  0.00     0.156 HD
ENDBRANCH   1  20
TORSDOF 1
ENDMDL
MODEL 5
REMARK VINA RESULT:    -8.621      4.213      8.686
REMARK INTER + INTRA:          -8.873
REMARK INTER:                  -8.873
REMARK INTRA:                   0.000
REMARK UNBOUND:                 0.000
REMARK SMILES CC1=C[C@@H]2Cc3nc4cc(Cl)ccc4c(N)c3[C@H](C1)C2
REMARK SMILES IDX 15 1 17 2 6 3 7 4 8 5 9 6 10 7 11 8 12 9 13 10 14 11 5 12
REMARK SMILES IDX 4 13 3 14 2 15 1 16 19 17 18 18 20 19 16 20
REMARK H PARENT 16 21 16 22
ROOT
ATOM      1  C   UNL     1     -19.125 -41.861  26.193  1.00  0.00     0.046 A 
ATOM      2  C   UNL     1     -19.640 -41.571  24.915  1.00  0.00     0.001 A 
ATOM      3  C   UNL     1     -18.839 -41.858  23.806  1.00  0.00     0.047 A 
ATOM      4  N   UNL     1     -17.578 -42.339  23.913  1.00  0.00    -0.252 NA
ATOM      5  C   UNL     1     -17.067 -42.558  25.130  1.00  0.00     0.074 A 
ATOM      6  C   UNL     1     -15.763 -43.026  25.202  1.00  0.00     0.049 A 
ATOM      7  C   UNL     1     -15.143 -43.258  26.425  1.00  0.00     0.043 A 
ATOM      8  Cl  UNL     1     -13.524 -43.834  26.473  1.00  0.00    -0.084 Cl
ATOM      9  C   UNL     1     -15.824 -43.021  27.610  1.00  0.00     0.021 A 
ATOM     10  C   UNL     1     -17.137 -42.555  27.559  1.00  0.00     0.014 A 
ATOM     11  C   UNL     1     -17.787 -42.321  26.322  1.00  0.00     0.024 A 
ATOM     12  C   UNL     1     -19.308 -41.596  22.392  1.00  0.00     0.064 C 
ATOM     13  C   UNL     1     -20.810 -41.295  22.282  1.00  0.00     0.018 C 
ATOM     14  C   UNL     1     -21.625 -42.568  22.377  1.00  0.00    -0.024 C 
ATOM     15  C   UNL     1     -22.227 -42.968  23.514  1.00  0.00    -0.076 C 
ATOM     16  C   UNL     1     -23.047 -44.222  23.589  1.00  0.00     0.039 C 
ATOM     17  C   UNL     1     -22.098 -42.177  24.802  1.00  0.00     0.039 C 
ATOM     18  C   UNL     1     -21.056 -41.034  24.732  1.00  0.00     0.028 C 
ATOM     19  C   UNL     1     -21.193 -40.310  23.388  1.00  0.00     0.017 C 
ENDROOT
BRANCH   1  20
ATOM     20  N   UNL     1     -19.890 -41.486  27.328  1.00  0.00    -0.398 N 
ATOM     21  H   UNL     1     -19.517 -41.935  28.163  1.00  0.00     0.156 HD
ATOM     22  H   UNL     1     -20.874 -41.707  27.231  1.00  0.00     0.156 HD
ENDBRANCH   1  20
TORSDOF 1
ENDMDL
MODEL 6
REMARK VINA RESULT:    -8.466      4.808      5.823
REMARK INTER + INTRA:          -8.714
REMARK INTER:                  -8.714
REMARK INTRA:                   0.000
REMARK UNBOUND:                 0.000
REMARK SMILES CC1=C[C@@H]2Cc3nc4cc(Cl)ccc4c(N)c3[C@H](C1)C2
REMARK SMILES IDX 15 1 17 2 6 3 7 4 8 5 9 6 10 7 11 8 12 9 13 10 14 11 5 12
REMARK SMILES IDX 4 13 3 14 2 15 1 16 19 17 18 18 20 19 16 20
REMARK H PARENT 16 21 16 22
ROOT
ATOM      1  C   UNL     1     -12.608 -45.124  31.577  1.00  0.00     0.046 A 
ATOM      2  C   UNL     1     -11.630 -44.679  30.668  1.00  0.00     0.001 A 
ATOM      3  C   UNL     1     -11.269 -43.329  30.705  1.00  0.00     0.047 A 
ATOM      4  N   UNL     1     -11.863 -42.430  31.526  1.00  0.00    -0.252 NA
ATOM      5  C   UNL     1     -12.835 -42.843  32.347  1.00  0.00     0.074 A 
ATOM      6  C   UNL     1     -13.438 -41.890  33.155  1.00  0.00     0.049 A 
ATOM      7  C   UNL     1     -14.474 -42.225  34.021  1.00  0.00     0.043 A 
ATOM      8  Cl  UNL     1     -15.199 -41.014  35.003  1.00  0.00    -0.084 Cl
ATOM      9  C   UNL     1     -14.930 -43.533  34.092  1.00  0.00     0.021 A 
ATOM     10  C   UNL     1     -14.334 -44.507  33.291  1.00  0.00     0.014 A 
ATOM     11  C   UNL     1     -13.272 -44.184  32.410  1.00  0.00     0.024 A 
ATOM     12  C   UNL     1     -10.218 -42.756  29.780  1.00  0.00     0.064 C 
ATOM     13  C   UNL     1      -9.390 -43.821  29.046  1.00  0.00     0.018 C 
ATOM     14  C   UNL     1      -8.342 -44.417  29.962  1.00  0.00    -0.024 C 
ATOM     15  C   UNL     1      -8.505 -45.596  30.592  1.00  0.00    -0.076 C 
ATOM     16  C   UNL     1      -7.450 -46.183  31.482  1.00  0.00     0.039 C 
ATOM     17  C   UNL     1      -9.783 -46.401  30.452  1.00  0.00     0.039 C 
ATOM     18  C   UNL     1     -10.922 -45.646  29.724  1.00  0.00     0.028 C 
ATOM     19  C   UNL     1     -10.340 -44.900  28.518  1.00  0.00     0.017 C 
ENDROOT
BRANCH   1  20
ATOM     20  N   UNL     1     -13.050 -46.470  31.484  1.00  0.00    -0.398 N 
ATOM     21  H   UNL     1     -13.219 -46.846  32.416  1.00  0.00     0.156 HD
ATOM     22  H   UNL     1     -12.397 -47.066  30.987  1.00  0.00     0.156 HD
ENDBRANCH   1  20
TORSDOF 1
ENDMDL
MODEL 7
REMARK VINA RESULT:    -8.372      4.876      9.526
REMARK INTER + INTRA:          -8.617
REMARK INTER:                  -8.617
REMARK INTRA:                   0.000
REMARK UNBOUND:                 0.000
REMARK SMILES CC1=C[C@@H]2Cc3nc4cc(Cl)ccc4c(N)c3[C@H](C1)C2
REMARK SMILES IDX 15 1 17 2 6 3 7 4 8 5 9 6 10 7 11 8 12 9 13 10 14 11 5 12
REMARK SMILES IDX 4 13 3 14 2 15 1 16 19 17 18 18 20 19 16 20
REMARK H PARENT 16 21 16 22
ROOT
ATOM      1  C   UNL     1     -18.372 -42.461  23.760  1.00  0.00     0.046 A 
ATOM      2  C   UNL     1     -19.726 -42.202  23.478  1.00  0.00     0.001 A 
ATOM      3  C   UNL     1     -20.566 -41.874  24.547  1.00  0.00     0.047 A 
ATOM      4  N   UNL     1     -20.147 -41.859  25.835  1.00  0.00    -0.252 NA
ATOM      5  C   UNL     1     -18.874 -42.165  26.107  1.00  0.00     0.074 A 
ATOM      6  C   UNL     1     -18.487 -42.165  27.440  1.00  0.00     0.049 A 
ATOM      7  C   UNL     1     -17.189 -42.494  27.816  1.00  0.00     0.043 A 
ATOM      8  Cl  UNL     1     -16.749 -42.487  29.479  1.00  0.00    -0.084 Cl
ATOM      9  C   UNL     1     -16.247 -42.835  26.857  1.00  0.00     0.021 A 
ATOM     10  C   UNL     1     -16.615 -42.836  25.512  1.00  0.00     0.014 A 
ATOM     11  C   UNL     1     -17.930 -42.496  25.110  1.00  0.00     0.024 A 
ATOM     12  C   UNL     1     -22.033 -41.564  24.346  1.00  0.00     0.064 C 
ATOM     13  C   UNL     1     -22.424 -41.341  22.877  1.00  0.00     0.018 C 
ATOM     14  C   UNL     1     -22.011 -39.961  22.411  1.00  0.00    -0.024 C 
ATOM     15  C   UNL     1     -20.890 -39.734  21.699  1.00  0.00    -0.076 C 
ATOM     16  C   UNL     1     -20.502 -38.364  21.228  1.00  0.00     0.039 C 
ATOM     17  C   UNL     1     -19.936 -40.858  21.340  1.00  0.00     0.039 C 
ATOM     18  C   UNL     1     -20.255 -42.198  22.047  1.00  0.00     0.028 C 
ATOM     19  C   UNL     1     -21.769 -42.431  22.025  1.00  0.00     0.017 C 
ENDROOT
BRANCH   1  20
ATOM     20  N   UNL     1     -17.533 -42.888  22.697  1.00  0.00    -0.398 N 
ATOM     21  H   UNL     1     -16.870 -43.584  23.035  1.00  0.00     0.156 HD
ATOM     22  H   UNL     1     -17.032 -42.123  22.258  1.00  0.00     0.156 HD
ENDBRANCH   1  20
TORSDOF 1
ENDMDL
MODEL 8
REMARK VINA RESULT:    -8.220      7.394      9.442
REMARK INTER + INTRA:          -8.460
REMARK INTER:                  -8.460
REMARK INTRA:                   0.000
REMARK UNBOUND:                 0.000
REMARK SMILES CC1=C[C@@H]2Cc3nc4cc(Cl)ccc4c(N)c3[C@H](C1)C2
REMARK SMILES IDX 15 1 17 2 6 3 7 4 8 5 9 6 10 7 11 8 12 9 13 10 14 11 5 12
REMARK SMILES IDX 4 13 3 14 2 15 1 16 19 17 18 18 20 19 16 20
REMARK H PARENT 16 21 16 22
ROOT
ATOM      1  C   UNL     1     -19.264 -41.197  22.816  1.00  0.00     0.046 A 
ATOM      2  C   UNL     1     -19.788 -41.296  24.119  1.00  0.00     0.001 A 
ATOM      3  C   UNL     1     -21.003 -40.659  24.386  1.00  0.00     0.047 A 
ATOM      4  N   UNL     1     -21.657 -39.906  23.469  1.00  0.00    -0.252 NA
ATOM      5  C   UNL     1     -21.127 -39.763  22.249  1.00  0.00     0.074 A 
ATOM      6  C   UNL     1     -21.811 -38.963  21.345  1.00  0.00     0.049 A 
ATOM      7  C   UNL     1     -21.322 -38.740  20.062  1.00  0.00     0.043 A 
ATOM      8  Cl  UNL     1     -22.197 -37.739  18.971  1.00  0.00    -0.084 Cl
ATOM      9  C   UNL     1     -20.126 -39.316  19.659  1.00  0.00     0.021 A 
ATOM     10  C   UNL     1     -19.426 -40.127  20.552  1.00  0.00     0.014 A 
ATOM     11  C   UNL     1     -19.914 -40.372  21.859  1.00  0.00     0.024 A 
ATOM     12  C   UNL     1     -21.655 -40.718  25.749  1.00  0.00     0.064 C 
ATOM     13  C   UNL     1     -21.039 -41.769  26.686  1.00  0.00     0.018 C 
ATOM     14  C   UNL     1     -21.522 -43.159  26.332  1.00  0.00    -0.024 C 
ATOM     15  C   UNL     1     -20.797 -44.020  25.592  1.00  0.00    -0.076 C 
ATOM     16  C   UNL     1     -21.280 -45.401  25.264  1.00  0.00     0.039 C 
ATOM     17  C   UNL     1     -19.442 -43.636  25.028  1.00  0.00     0.039 C 
ATOM     18  C   UNL     1     -19.099 -42.135  25.191  1.00  0.00     0.028 C 
ATOM     19  C   UNL     1     -19.514 -41.673  26.593  1.00  0.00     0.017 C 
ENDROOT
BRANCH   1  20
ATOM     20  N   UNL     1     -17.986 -41.759  22.560  1.00  0.00    -0.398 N 
ATOM     21  H   UNL     1     -17.321 -41.448  23.266  1.00  0.00     0.156 HD
ATOM     22  H   UNL     1     -17.634 -41.533  21.636  1.00  0.00     0.156 HD
ENDBRANCH   1  20
TORSDOF 1
ENDMDL
MODEL 9
REMARK VINA RESULT:    -8.204      5.512     10.170
REMARK INTER + INTRA:          -8.444
REMARK INTER:                  -8.444
REMARK INTRA:                   0.000
REMARK UNBOUND:                 0.000
REMARK SMILES CC1=C[C@@H]2Cc3nc4cc(Cl)ccc4c(N)c3[C@H](C1)C2
REMARK SMILES IDX 15 1 17 2 6 3 7 4 8 5 9 6 10 7 11 8 12 9 13 10 14 11 5 12
REMARK SMILES IDX 4 13 3 14 2 15 1 16 19 17 18 18 20 19 16 20
REMARK H PARENT 16 21 16 22
ROOT
ATOM      1  C   UNL     1     -19.731 -41.400  24.001  1.00  0.00     0.046 A 
ATOM      2  C   UNL     1     -20.029 -40.712  22.810  1.00  0.00     0.001 A 
ATOM      3  C   UNL     1     -19.022 -40.606  21.846  1.00  0.00     0.047 A 
ATOM      4  N   UNL     1     -17.767 -41.078  22.038  1.00  0.00    -0.252 NA
ATOM      5  C   UNL     1     -17.468 -41.679  23.195  1.00  0.00     0.074 A 
ATOM      6  C   UNL     1     -16.166 -42.126  23.366  1.00  0.00     0.049 A 
ATOM      7  C   UNL     1     -15.761 -42.740  24.547  1.00  0.00     0.043 A 
ATOM      8  Cl  UNL     1     -14.137 -43.278  24.722  1.00  0.00    -0.084 Cl
ATOM      9  C   UNL     1     -16.660 -42.917  25.588  1.00  0.00     0.021 A 
ATOM     10  C   UNL     1     -17.975 -42.478  25.433  1.00  0.00     0.014 A 
ATOM     11  C   UNL     1     -18.407 -41.858  24.235  1.00  0.00     0.024 A 
ATOM     12  C   UNL     1     -19.247 -39.899  20.528  1.00  0.00     0.064 C 
ATOM     13  C   UNL     1     -20.724 -39.599  20.229  1.00  0.00     0.018 C 
ATOM     14  C   UNL     1     -21.442 -40.843  19.750  1.00  0.00    -0.024 C 
ATOM     15  C   UNL     1     -22.206 -41.604  20.558  1.00  0.00    -0.076 C 
ATOM     16  C   UNL     1     -22.927 -42.823  20.065  1.00  0.00     0.039 C 
ATOM     17  C   UNL     1     -22.372 -41.280  22.030  1.00  0.00     0.039 C 
ATOM     18  C   UNL     1     -21.426 -40.164  22.536  1.00  0.00     0.028 C 
ATOM     19  C   UNL     1     -21.375 -39.039  21.496  1.00  0.00     0.017 C 
ENDROOT
BRANCH   1  20
ATOM     20  N   UNL     1     -20.715 -41.430  25.025  1.00  0.00    -0.398 N 
ATOM     21  H   UNL     1     -21.645 -41.377  24.615  1.00  0.00     0.156 HD
ATOM     22  H   UNL     1     -20.598 -40.688  25.706  1.00  0.00     0.156 HD
ENDBRANCH   1  20
TORSDOF 1
ENDMDL
