MODEL 1
REMARK VINA RESULT:    -8.951      0.000      0.000
REMARK INTER + INTRA:          -9.212
REMARK INTER:                  -9.212
REMARK INTRA:                   0.000
REMARK UNBOUND:                 0.000
REMARK SMILES Nc1c2c(nc3cccc(Cl)c13)CCCC2
REMARK SMILES IDX 2 1 3 2 4 3 5 4 6 5 7 6 8 7 9 8 10 9 11 10 12 11 13 12 14 13
REMARK SMILES IDX 15 14 16 15 1 16
REMARK H PARENT 1 17 1 18
ROOT
ATOM      1  C   UNL     1     -10.353 -45.398  29.900  1.00  0.00     0.048 A 
ATOM      2  C   UNL     1     -11.432 -45.537  28.999  1.00  0.00    -0.003 A 
ATOM      3  C   UNL     1     -12.534 -44.707  29.173  1.00  0.00     0.046 A 
ATOM      4  N   UNL     1     -12.642 -43.841  30.204  1.00  0.00    -0.252 NA
ATOM      5  C   UNL     1     -11.655 -43.762  31.102  1.00  0.00     0.074 A 
ATOM      6  C   UNL     1     -11.865 -42.873  32.148  1.00  0.00     0.029 A 
ATOM      7  C   UNL     1     -10.930 -42.682  33.161  1.00  0.00     0.004 A 
ATOM      8  C   UNL     1      -9.745 -43.395  33.123  1.00  0.00     0.021 A 
ATOM      9  C   UNL     1      -9.507 -44.294  32.077  1.00  0.00     0.052 A 
ATOM     10  Cl  UNL     1      -7.960 -45.084  32.135  1.00  0.00    -0.084 Cl
ATOM     11  C   UNL     1     -10.463 -44.515  31.031  1.00  0.00     0.042 A 
ATOM     12  C   UNL     1     -13.732 -44.761  28.259  1.00  0.00     0.056 C 
ATOM     13  C   UNL     1     -13.436 -45.423  26.919  1.00  0.00     0.007 C 
ATOM     14  C   UNL     1     -12.717 -46.742  27.148  1.00  0.00     0.005 C 
ATOM     15  C   UNL     1     -11.375 -46.508  27.840  1.00  0.00     0.039 C 
ENDROOT
BRANCH   1  16
ATOM     16  N   UNL     1      -9.263 -46.292  29.777  1.00  0.00    -0.398 N 
ATOM     17  H   UNL     1      -9.524 -47.269  29.693  1.00  0.00     0.156 HD
ATOM     18  H   UNL     1      -8.595 -46.020  29.060  1.00  0.00     0.156 HD
ENDBRANCH   1  16
TORSDOF 1
ENDMDL
MODEL 2
REMARK VINA RESULT:    -8.855      7.231      9.654
REMARK INTER + INTRA:          -9.114
REMARK INTER:                  -9.114
REMARK INTRA:                   0.000
REMARK UNBOUND:                 0.000
REMARK SMILES Nc1c2c(nc3cccc(Cl)c13)CCCC2
REMARK SMILES IDX 2 1 3 2 4 3 5 4 6 5 7 6 8 7 9 8 10 9 11 10 12 11 13 12 14 13
REMARK SMILES IDX 15 14 16 15 1 16
REMARK H PARENT 1 17 1 18
ROOT
ATOM      1  C   UNL     1     -17.740 -42.444  24.070  1.00  0.00     0.048 A 
ATOM      2  C   UNL     1     -16.556 -42.841  24.731  1.00  0.00    -0.003 A 
ATOM      3  C   UNL     1     -16.564 -42.862  26.122  1.00  0.00     0.046 A 
ATOM      4  N   UNL     1     -17.621 -42.448  26.853  1.00  0.00    -0.252 NA
ATOM      5  C   UNL     1     -18.716 -42.000  26.231  1.00  0.00     0.074 A 
ATOM      6  C   UNL     1     -19.740 -41.560  27.059  1.00  0.00     0.029 A 
ATOM      7  C   UNL     1     -20.940 -41.065  26.560  1.00  0.00     0.004 A 
ATOM      8  C   UNL     1     -21.126 -41.014  25.191  1.00  0.00     0.021 A 
ATOM      9  C   UNL     1     -20.112 -41.455  24.333  1.00  0.00     0.052 A 
ATOM     10  Cl  UNL     1     -20.503 -41.375  22.642  1.00  0.00    -0.084 Cl
ATOM     11  C   UNL     1     -18.863 -41.957  24.827  1.00  0.00     0.042 A 
ATOM     12  C   UNL     1     -15.360 -43.284  26.924  1.00  0.00     0.056 C 
ATOM     13  C   UNL     1     -14.359 -44.104  26.120  1.00  0.00     0.007 C 
ATOM     14  C   UNL     1     -14.064 -43.403  24.804  1.00  0.00     0.005 C 
ATOM     15  C   UNL     1     -15.334 -43.291  23.961  1.00  0.00     0.039 C 
ENDROOT
BRANCH   1  16
ATOM     16  N   UNL     1     -17.714 -42.344  22.659  1.00  0.00    -0.398 N 
ATOM     17  H   UNL     1     -18.377 -42.944  22.181  1.00  0.00     0.156 HD
ATOM     18  H   UNL     1     -17.764 -41.386  22.320  1.00  0.00     0.156 HD
ENDBRANCH   1  16
TORSDOF 1
ENDMDL
MODEL 3
REMARK VINA RESULT:    -8.689      1.665      3.016
REMARK INTER + INTRA:          -8.943
REMARK INTER:                  -8.943
REMARK INTRA:                   0.000
REMARK UNBOUND:                 0.000
REMARK SMILES Nc1c2c(nc3cccc(Cl)c13)CCCC2
REMARK SMILES IDX 2 1 3 2 4 3 5 4 6 5 7 6 8 7 9 8 10 9 11 10 12 11 13 12 14 13
REMARK SMILES IDX 15 14 16 15 1 16
REMARK H PARENT 1 17 1 18
ROOT
ATOM      1  C   UNL     1     -11.512 -43.861  31.379  1.00  0.00     0.048 A 
ATOM      2  C   UNL     1     -11.619 -44.587  30.172  1.00  0.00    -0.003 A 
ATOM      3  C   UNL     1     -10.464 -45.172  29.662  1.00  0.00     0.046 A 
ATOM      4  N   UNL     1      -9.251 -45.010  30.230  1.00  0.00    -0.252 NA
ATOM      5  C   UNL     1      -9.135 -44.260  31.331  1.00  0.00     0.074 A 
ATOM      6  C   UNL     1      -7.845 -44.117  31.827  1.00  0.00     0.029 A 
ATOM      7  C   UNL     1      -7.565 -43.366  32.964  1.00  0.00     0.004 A 
ATOM      8  C   UNL     1      -8.605 -42.746  33.632  1.00  0.00     0.021 A 
ATOM      9  C   UNL     1      -9.915 -42.879  33.156  1.00  0.00     0.052 A 
ATOM     10  Cl  UNL     1     -11.123 -42.084  34.120  1.00  0.00    -0.084 Cl
ATOM     11  C   UNL     1     -10.224 -43.637  31.978  1.00  0.00     0.042 A 
ATOM     12  C   UNL     1     -10.470 -45.980  28.390  1.00  0.00     0.056 C 
ATOM     13  C   UNL     1     -11.856 -46.478  27.999  1.00  0.00     0.007 C 
ATOM     14  C   UNL     1     -12.847 -45.328  28.057  1.00  0.00     0.005 C 
ATOM     15  C   UNL     1     -12.950 -44.780  29.480  1.00  0.00     0.039 C 
ENDROOT
BRANCH   1  16
ATOM     16  N   UNL     1     -12.665 -43.197  31.861  1.00  0.00    -0.398 N 
ATOM     17  H   UNL     1     -12.557 -42.771  32.776  1.00  0.00     0.156 HD
ATOM     18  H   UNL     1     -13.068 -42.546  31.190  1.00  0.00     0.156 HD
ENDBRANCH   1  16
TORSDOF 1
ENDMDL
MODEL 4
REMARK VINA RESULT:    -8.587      2.110      5.624
REMARK INTER + INTRA:          -8.838
REMARK INTER:                  -8.838
REMARK INTRA:                   0.000
REMARK UNBOUND:                 0.000
REMARK SMILES Nc1c2c(nc3cccc(Cl)c13)CCCC2
REMARK SMILES IDX 2 1 3 2 4 3 5 4 6 5 7 6 8 7 9 8 10 9 11 10 12 11 13 12 14 13
REMARK SMILES IDX 15 14 16 15 1 16
REMARK H PARENT 1 17 1 18
ROOT
ATOM      1  C   UNL     1     -12.002 -43.770  31.381  1.00  0.00     0.048 A 
ATOM      2  C   UNL     1     -10.914 -43.487  32.237  1.00  0.00    -0.003 A 
ATOM      3  C   UNL     1      -9.676 -44.032  31.916  1.00  0.00     0.046 A 
ATOM      4  N   UNL     1      -9.494 -44.871  30.875  1.00  0.00    -0.252 NA
ATOM      5  C   UNL     1     -10.538 -45.201  30.106  1.00  0.00     0.074 A 
ATOM      6  C   UNL     1     -10.268 -46.098  29.081  1.00  0.00     0.029 A 
ATOM      7  C   UNL     1     -11.252 -46.537  28.199  1.00  0.00     0.004 A 
ATOM      8  C   UNL     1     -12.541 -46.059  28.342  1.00  0.00     0.021 A 
ATOM      9  C   UNL     1     -12.839 -45.151  29.365  1.00  0.00     0.052 A 
ATOM     10  Cl  UNL     1     -14.487 -44.603  29.395  1.00  0.00    -0.084 Cl
ATOM     11  C   UNL     1     -11.843 -44.696  30.291  1.00  0.00     0.042 A 
ATOM     12  C   UNL     1      -8.448 -43.781  32.754  1.00  0.00     0.056 C 
ATOM     13  C   UNL     1      -8.571 -42.555  33.650  1.00  0.00     0.007 C 
ATOM     14  C   UNL     1      -9.889 -42.606  34.406  1.00  0.00     0.005 C 
ATOM     15  C   UNL     1     -11.067 -42.572  33.433  1.00  0.00     0.039 C 
ENDROOT
BRANCH   1  16
ATOM     16  N   UNL     1     -13.280 -43.285  31.744  1.00  0.00    -0.398 N 
ATOM     17  H   UNL     1     -14.051 -43.701  31.234  1.00  0.00     0.156 HD
ATOM     18  H   UNL     1     -13.447 -43.294  32.749  1.00  0.00     0.156 HD
ENDBRANCH   1  16
TORSDOF 1
ENDMDL
MODEL 5
REMARK VINA RESULT:    -8.517      4.020      6.616
REMARK INTER + INTRA:          -8.766
REMARK INTER:                  -8.766
REMARK INTRA:                   0.000
REMARK UNBOUND:                 0.000
REMARK SMILES Nc1c2c(nc3cccc(Cl)c13)CCCC2
REMARK SMILES IDX 2 1 3 2 4 3 5 4 6 5 7 6 8 7 9 8 10 9 11 10 12 11 13 12 14 13
REMARK SMILES IDX 15 14 16 15 1 16
REMARK H PARENT 1 17 1 18
ROOT
ATOM      1  C   UNL     1     -15.129 -43.887  28.521  1.00  0.00     0.048 A 
ATOM      2  C   UNL     1     -14.042 -44.726  28.852  1.00  0.00    -0.003 A 
ATOM      3  C   UNL     1     -13.222 -45.165  27.819  1.00  0.00     0.046 A 
ATOM      4  N   UNL     1     -13.468 -44.886  26.521  1.00  0.00    -0.252 NA
ATOM      5  C   UNL     1     -14.539 -44.154  26.198  1.00  0.00     0.074 A 
ATOM      6  C   UNL     1     -14.736 -43.947  24.839  1.00  0.00     0.029 A 
ATOM      7  C   UNL     1     -15.807 -43.207  24.347  1.00  0.00     0.004 A 
ATOM      8  C   UNL     1     -16.705 -42.652  25.240  1.00  0.00     0.021 A 
ATOM      9  C   UNL     1     -16.527 -42.842  26.616  1.00  0.00     0.052 A 
ATOM     10  Cl  UNL     1     -17.704 -42.049  27.618  1.00  0.00    -0.084 Cl
ATOM     11  C   UNL     1     -15.437 -43.612  27.142  1.00  0.00     0.042 A 
ATOM     12  C   UNL     1     -12.028 -46.051  28.065  1.00  0.00     0.056 C 
ATOM     13  C   UNL     1     -11.544 -46.022  29.509  1.00  0.00     0.007 C 
ATOM     14  C   UNL     1     -12.722 -46.225  30.447  1.00  0.00     0.005 C 
ATOM     15  C   UNL     1     -13.735 -45.091  30.288  1.00  0.00     0.039 C 
ENDROOT
BRANCH   1  16
ATOM     16  N   UNL     1     -16.013 -43.501  29.555  1.00  0.00    -0.398 N 
ATOM     17  H   UNL     1     -15.559 -43.216  30.416  1.00  0.00     0.156 HD
ATOM     18  H   UNL     1     -16.713 -42.823  29.259  1.00  0.00     0.156 HD
ENDBRANCH   1  16
TORSDOF 1
ENDMDL
MODEL 6
REMARK VINA RESULT:    -8.298      2.034      2.679
REMARK INTER + INTRA:          -8.541
REMARK INTER:                  -8.541
REMARK INTRA:                   0.000
REMARK UNBOUND:                 0.000
REMARK SMILES Nc1c2c(nc3cccc(Cl)c13)CCCC2
REMARK SMILES IDX 2 1 3 2 4 3 5 4 6 5 7 6 8 7 9 8 10 9 11 10 12 11 13 12 14 13
REMARK SMILES IDX 15 14 16 15 1 16
REMARK H PARENT 1 17 1 18
ROOT
ATOM      1  C   UNL     1     -11.018 -43.893  31.405  1.00  0.00     0.048 A 
ATOM      2  C   UNL     1     -11.262 -44.784  30.336  1.00  0.00    -0.003 A 
ATOM      3  C   UNL     1     -12.586 -45.042  29.995  1.00  0.00     0.046 A 
ATOM      4  N   UNL     1     -13.630 -44.540  30.688  1.00  0.00    -0.252 NA
ATOM      5  C   UNL     1     -13.401 -43.757  31.747  1.00  0.00     0.074 A 
ATOM      6  C   UNL     1     -14.531 -43.315  32.422  1.00  0.00     0.029 A 
ATOM      7  C   UNL     1     -14.454 -42.495  33.544  1.00  0.00     0.004 A 
ATOM      8  C   UNL     1     -13.210 -42.098  34.000  1.00  0.00     0.021 A 
ATOM      9  C   UNL     1     -12.055 -42.525  33.335  1.00  0.00     0.052 A 
ATOM     10  Cl  UNL     1     -10.568 -41.912  33.991  1.00  0.00    -0.084 Cl
ATOM     11  C   UNL     1     -12.112 -43.381  32.185  1.00  0.00     0.042 A 
ATOM     12  C   UNL     1     -12.957 -45.964  28.862  1.00  0.00     0.056 C 
ATOM     13  C   UNL     1     -11.820 -46.189  27.872  1.00  0.00     0.007 C 
ATOM     14  C   UNL     1     -10.550 -46.545  28.626  1.00  0.00     0.005 C 
ATOM     15  C   UNL     1     -10.129 -45.395  29.541  1.00  0.00     0.039 C 
ENDROOT
BRANCH   1  16
ATOM     16  N   UNL     1      -9.677 -43.688  31.808  1.00  0.00    -0.398 N 
ATOM     17  H   UNL     1      -9.543 -43.614  32.810  1.00  0.00     0.156 HD
ATOM     18  H   UNL     1      -9.023 -44.346  31.390  1.00  0.00     0.156 HD
ENDBRANCH   1  16
TORSDOF 1
ENDMDL
MODEL 7
REMARK VINA RESULT:    -8.280      7.003      9.762
REMARK INTER + INTRA:          -8.522
REMARK INTER:                  -8.522
REMARK INTRA:                   0.000
REMARK UNBOUND:                 0.000
REMARK SMILES Nc1c2c(nc3cccc(Cl)c13)CCCC2
REMARK SMILES IDX 2 1 3 2 4 3 5 4 6 5 7 6 8 7 9 8 10 9 11 10 12 11 13 12 14 13
REMARK SMILES IDX 15 14 16 15 1 16
REMARK H PARENT 1 17 1 18
ROOT
ATOM      1  C   UNL     1     -17.931 -42.243  26.368  1.00  0.00     0.048 A 
ATOM      2  C   UNL     1     -16.664 -42.787  26.059  1.00  0.00    -0.003 A 
ATOM      3  C   UNL     1     -16.302 -42.866  24.718  1.00  0.00     0.046 A 
ATOM      4  N   UNL     1     -17.134 -42.519  23.714  1.00  0.00    -0.252 NA
ATOM      5  C   UNL     1     -18.362 -42.075  24.002  1.00  0.00     0.074 A 
ATOM      6  C   UNL     1     -19.164 -41.776  22.908  1.00  0.00     0.029 A 
ATOM      7  C   UNL     1     -20.466 -41.305  23.047  1.00  0.00     0.004 A 
ATOM      8  C   UNL     1     -20.980 -41.121  24.317  1.00  0.00     0.021 A 
ATOM      9  C   UNL     1     -20.191 -41.410  25.437  1.00  0.00     0.052 A 
ATOM     10  Cl  UNL     1     -20.952 -41.087  26.965  1.00  0.00    -0.084 Cl
ATOM     11  C   UNL     1     -18.852 -41.908  25.315  1.00  0.00     0.042 A 
ATOM     12  C   UNL     1     -14.968 -43.415  24.280  1.00  0.00     0.056 C 
ATOM     13  C   UNL     1     -13.924 -43.419  25.390  1.00  0.00     0.007 C 
ATOM     14  C   UNL     1     -14.515 -44.041  26.644  1.00  0.00     0.005 C 
ATOM     15  C   UNL     1     -15.701 -43.215  27.144  1.00  0.00     0.039 C 
ENDROOT
BRANCH   1  16
ATOM     16  N   UNL     1     -18.338 -42.233  27.723  1.00  0.00    -0.398 N 
ATOM     17  H   UNL     1     -19.258 -42.628  27.892  1.00  0.00     0.156 HD
ATOM     18  H   UNL     1     -17.643 -42.618  28.359  1.00  0.00     0.156 HD
ENDBRANCH   1  16
TORSDOF 1
ENDMDL
MODEL 8
REMARK VINA RESULT:    -8.037      7.050      9.449
REMARK INTER + INTRA:          -8.272
REMARK INTER:                  -8.272
REMARK INTRA:                   0.000
REMARK UNBOUND:                 0.000
REMARK SMILES Nc1c2c(nc3cccc(Cl)c13)CCCC2
REMARK SMILES IDX 2 1 3 2 4 3 5 4 6 5 7 6 8 7 9 8 10 9 11 10 12 11 13 12 14 13
REMARK SMILES IDX 15 14 16 15 1 16
REMARK H PARENT 1 17 1 18
ROOT
ATOM      1  C   UNL     1     -18.675 -42.033  25.974  1.00  0.00     0.048 A 
ATOM      2  C   UNL     1     -19.369 -41.664  24.800  1.00  0.00    -0.003 A 
ATOM      3  C   UNL     1     -18.743 -41.886  23.578  1.00  0.00     0.046 A 
ATOM      4  N   UNL     1     -17.484 -42.362  23.478  1.00  0.00    -0.252 NA
ATOM      5  C   UNL     1     -16.796 -42.641  24.590  1.00  0.00     0.074 A 
ATOM      6  C   UNL     1     -15.496 -43.090  24.395  1.00  0.00     0.029 A 
ATOM      7  C   UNL     1     -14.656 -43.418  25.455  1.00  0.00     0.004 A 
ATOM      8  C   UNL     1     -15.131 -43.302  26.748  1.00  0.00     0.021 A 
ATOM      9  C   UNL     1     -16.439 -42.855  26.972  1.00  0.00     0.052 A 
ATOM     10  Cl  UNL     1     -16.913 -42.802  28.643  1.00  0.00    -0.084 Cl
ATOM     11  C   UNL     1     -17.316 -42.500  25.895  1.00  0.00     0.042 A 
ATOM     12  C   UNL     1     -19.401 -41.544  22.266  1.00  0.00     0.056 C 
ATOM     13  C   UNL     1     -20.914 -41.399  22.372  1.00  0.00     0.007 C 
ATOM     14  C   UNL     1     -21.260 -40.492  23.541  1.00  0.00     0.005 C 
ATOM     15  C   UNL     1     -20.773 -41.104  24.855  1.00  0.00     0.039 C 
ENDROOT
BRANCH   1  16
ATOM     16  N   UNL     1     -19.272 -41.737  27.222  1.00  0.00    -0.398 N 
ATOM     17  H   UNL     1     -20.227 -41.399  27.165  1.00  0.00     0.156 HD
ATOM     18  H   UNL     1     -19.179 -42.488  27.903  1.00  0.00     0.156 HD
ENDBRANCH   1  16
TORSDOF 1
ENDMDL
MODEL 9
REMARK VINA RESULT:    -7.737      1.764      4.585
REMARK INTER + INTRA:          -7.963
REMARK INTER:                  -7.963
REMARK INTRA:                   0.000
REMARK UNBOUND:                 0.000
REMARK SMILES Nc1c2c(nc3cccc(Cl)c13)CCCC2
REMARK SMILES IDX 2 1 3 2 4 3 5 4 6 5 7 6 8 7 9 8 10 9 11 10 12 11 13 12 14 13
REMARK SMILES IDX 15 14 16 15 1 16
REMARK H PARENT 1 17 1 18
ROOT
ATOM      1  C   UNL     1     -11.083 -44.486  31.661  1.00  0.00     0.048 A 
ATOM      2  C   UNL     1     -12.159 -43.758  32.216  1.00  0.00    -0.003 A 
ATOM      3  C   UNL     1     -13.397 -43.850  31.588  1.00  0.00     0.046 A 
ATOM      4  N   UNL     1     -13.586 -44.537  30.442  1.00  0.00    -0.252 NA
ATOM      5  C   UNL     1     -12.552 -45.165  29.873  1.00  0.00     0.074 A 
ATOM      6  C   UNL     1     -12.828 -45.815  28.678  1.00  0.00     0.029 A 
ATOM      7  C   UNL     1     -11.854 -46.511  27.967  1.00  0.00     0.004 A 
ATOM      8  C   UNL     1     -10.568 -46.565  28.471  1.00  0.00     0.021 A 
ATOM      9  C   UNL     1     -10.264 -45.922  29.676  1.00  0.00     0.052 A 
ATOM     10  Cl  UNL     1      -8.621 -46.113  30.209  1.00  0.00    -0.084 Cl
ATOM     11  C   UNL     1     -11.249 -45.188  30.417  1.00  0.00     0.042 A 
ATOM     12  C   UNL     1     -14.614 -43.126  32.106  1.00  0.00     0.056 C 
ATOM     13  C   UNL     1     -14.489 -42.707  33.565  1.00  0.00     0.007 C 
ATOM     14  C   UNL     1     -13.160 -42.004  33.783  1.00  0.00     0.005 C 
ATOM     15  C   UNL     1     -11.998 -42.952  33.486  1.00  0.00     0.039 C 
ENDROOT
BRANCH   1  16
ATOM     16  N   UNL     1      -9.805 -44.335  32.247  1.00  0.00    -0.398 N 
ATOM     17  H   UNL     1      -9.040 -44.710  31.697  1.00  0.00     0.156 HD
ATOM     18  H   UNL     1      -9.611 -43.386  32.560  1.00  0.00     0.156 HD
ENDBRANCH   1  16
TORSDOF 1
ENDMDL
