MODEL 1
REMARK VINA RESULT:   -10.187      0.000      0.000
REMARK INTER + INTRA:         -10.485
REMARK INTER:                 -10.485
REMARK INTRA:                   0.000
REMARK UNBOUND:                 0.000
REMARK SMILES CC1=C[C@H]2Cc3nc4cc(Cl)ccc4c(N)c3[C@@H](C1)C2
REMARK SMILES IDX 1 1 2 2 3 3 4 4 5 5 6 6 7 7 8 8 9 9 10 10 11 11 12 12 13 13
REMARK SMILES IDX 14 14 15 15 17 16 18 17 19 18 20 19 16 20
REMARK H PARENT 16 21 16 22
ROOT
ATOM      1  C   UNL     1     -11.965 -46.920  27.290  1.00  0.00     0.039 C 
ATOM      2  C   UNL     1     -11.405 -46.339  28.548  1.00  0.00    -0.076 C 
ATOM      3  C   UNL     1     -10.101 -46.217  28.631  1.00  0.00    -0.024 C 
ATOM      4  C   UNL     1      -9.782 -43.972  30.559  1.00  0.00     0.018 C 
ATOM      5  C   UNL     1      -9.776 -44.298  29.105  1.00  0.00     0.064 C 
ATOM      6  C   UNL     1     -11.196 -44.190  28.765  1.00  0.00     0.047 A 
ATOM      7  N   UNL     1     -11.549 -43.555  27.638  1.00  0.00    -0.252 NA
ATOM      8  C   UNL     1     -12.857 -43.461  27.337  1.00  0.00     0.074 A 
ATOM      9  C   UNL     1     -13.226 -42.810  26.181  1.00  0.00     0.049 A 
ATOM     10  C   UNL     1     -14.558 -42.671  25.796  1.00  0.00     0.043 A 
ATOM     11  Cl  UNL     1     -14.934 -41.819  24.296  1.00  0.00    -0.084 Cl
ATOM     12  C   UNL     1     -15.558 -43.199  26.593  1.00  0.00     0.021 A 
ATOM     13  C   UNL     1     -15.179 -43.849  27.749  1.00  0.00     0.014 A 
ATOM     14  C   UNL     1     -13.857 -43.986  28.127  1.00  0.00     0.024 A 
ATOM     15  C   UNL     1     -13.523 -44.643  29.289  1.00  0.00     0.046 A 
ATOM     16  C   UNL     1     -12.179 -44.734  29.591  1.00  0.00     0.001 A 
ATOM     17  C   UNL     1     -11.734 -45.436  30.845  1.00  0.00     0.028 C 
ATOM     18  C   UNL     1     -12.369 -45.949  29.600  1.00  0.00     0.039 C 
ATOM     19  C   UNL     1     -10.383 -45.043  31.440  1.00  0.00     0.017 C 
ENDROOT
BRANCH  15  20
ATOM     20  N   UNL     1     -14.511 -45.205  30.145  1.00  0.00    -0.398 N 
ATOM     21  H   UNL     1     -14.279 -45.829  30.959  1.00  0.00     0.156 HD
ATOM     22  H   UNL     1     -15.521 -44.977  29.941  1.00  0.00     0.156 HD
ENDBRANCH  15  20
TORSDOF 1
ENDMDL
MODEL 2
REMARK VINA RESULT:   -10.077      3.778      4.855
REMARK INTER + INTRA:         -10.371
REMARK INTER:                 -10.371
REMARK INTRA:                   0.000
REMARK UNBOUND:                 0.000
REMARK SMILES CC1=C[C@H]2Cc3nc4cc(Cl)ccc4c(N)c3[C@@H](C1)C2
REMARK SMILES IDX 1 1 2 2 3 3 4 4 5 5 6 6 7 7 8 8 9 9 10 10 11 11 12 12 13 13
REMARK SMILES IDX 14 14 15 15 17 16 18 17 19 18 20 19 16 20
REMARK H PARENT 16 21 16 22
ROOT
ATOM      1  C   UNL     1     -10.777 -42.897  29.170  1.00  0.00     0.039 C 
ATOM      2  C   UNL     1      -9.744 -43.788  29.781  1.00  0.00    -0.076 C 
ATOM      3  C   UNL     1      -8.530 -43.307  29.914  1.00  0.00    -0.024 C 
ATOM      4  C   UNL     1      -7.457 -44.880  32.202  1.00  0.00     0.018 C 
ATOM      5  C   UNL     1      -8.063 -43.567  31.845  1.00  0.00     0.064 C 
ATOM      6  C   UNL     1      -9.495 -43.861  31.936  1.00  0.00     0.047 A 
ATOM      7  N   UNL     1     -10.303 -42.980  32.544  1.00  0.00    -0.252 NA
ATOM      8  C   UNL     1     -11.617 -43.261  32.622  1.00  0.00     0.074 A 
ATOM      9  C   UNL     1     -12.451 -42.361  33.247  1.00  0.00     0.049 A 
ATOM     10  C   UNL     1     -13.822 -42.576  33.369  1.00  0.00     0.043 A 
ATOM     11  Cl  UNL     1     -14.812 -41.364  34.185  1.00  0.00    -0.084 Cl
ATOM     12  C   UNL     1     -14.382 -43.731  32.851  1.00  0.00     0.021 A 
ATOM     13  C   UNL     1     -13.538 -44.627  32.228  1.00  0.00     0.014 A 
ATOM     14  C   UNL     1     -12.178 -44.410  32.108  1.00  0.00     0.024 A 
ATOM     15  C   UNL     1     -11.372 -45.331  31.479  1.00  0.00     0.046 A 
ATOM     16  C   UNL     1     -10.026 -45.035  31.403  1.00  0.00     0.001 A 
ATOM     17  C   UNL     1      -9.080 -45.992  30.731  1.00  0.00     0.028 C 
ATOM     18  C   UNL     1     -10.175 -45.144  30.188  1.00  0.00     0.039 C 
ATOM     19  C   UNL     1      -7.611 -45.950  31.145  1.00  0.00     0.017 C 
ENDROOT
BRANCH  15  20
ATOM     20  N   UNL     1     -11.895 -46.535  30.928  1.00  0.00    -0.398 N 
ATOM     21  H   UNL     1     -12.736 -47.028  31.320  1.00  0.00     0.156 HD
ATOM     22  H   UNL     1     -11.403 -46.940  30.088  1.00  0.00     0.156 HD
ENDBRANCH  15  20
TORSDOF 1
ENDMDL
MODEL 3
REMARK VINA RESULT:    -9.879      1.850      3.699
REMARK INTER + INTRA:         -10.168
REMARK INTER:                 -10.168
REMARK INTRA:                   0.000
REMARK UNBOUND:                 0.000
REMARK SMILES CC1=C[C@H]2Cc3nc4cc(Cl)ccc4c(N)c3[C@@H](C1)C2
REMARK SMILES IDX 1 1 2 2 3 3 4 4 5 5 6 6 7 7 8 8 9 9 10 10 11 11 12 12 13 13
REMARK SMILES IDX 14 14 15 15 17 16 18 17 19 18 20 19 16 20
REMARK H PARENT 16 21 16 22
ROOT
ATOM      1  C   UNL     1     -11.435 -42.740  31.760  1.00  0.00     0.039 C 
ATOM      2  C   UNL     1     -10.221 -43.606  31.647  1.00  0.00    -0.076 C 
ATOM      3  C   UNL     1     -10.114 -44.612  32.483  1.00  0.00    -0.024 C 
ATOM      4  C   UNL     1      -8.396 -46.522  30.980  1.00  0.00     0.018 C 
ATOM      5  C   UNL     1      -9.811 -46.226  31.335  1.00  0.00     0.064 C 
ATOM      6  C   UNL     1     -10.199 -45.290  30.278  1.00  0.00     0.047 A 
ATOM      7  N   UNL     1     -11.390 -45.441  29.680  1.00  0.00    -0.252 NA
ATOM      8  C   UNL     1     -11.735 -44.574  28.709  1.00  0.00     0.074 A 
ATOM      9  C   UNL     1     -12.956 -44.724  28.091  1.00  0.00     0.049 A 
ATOM     10  C   UNL     1     -13.388 -43.870  27.078  1.00  0.00     0.043 A 
ATOM     11  Cl  UNL     1     -14.971 -44.141  26.344  1.00  0.00    -0.084 Cl
ATOM     12  C   UNL     1     -12.574 -42.831  26.667  1.00  0.00     0.021 A 
ATOM     13  C   UNL     1     -11.352 -42.688  27.292  1.00  0.00     0.014 A 
ATOM     14  C   UNL     1     -10.927 -43.537  28.297  1.00  0.00     0.024 A 
ATOM     15  C   UNL     1      -9.700 -43.359  28.894  1.00  0.00     0.046 A 
ATOM     16  C   UNL     1      -9.354 -44.252  29.888  1.00  0.00     0.001 A 
ATOM     17  C   UNL     1      -8.028 -44.125  30.588  1.00  0.00     0.028 C 
ATOM     18  C   UNL     1      -9.236 -43.256  30.599  1.00  0.00     0.039 C 
ATOM     19  C   UNL     1      -7.436 -45.380  31.225  1.00  0.00     0.017 C 
ENDROOT
BRANCH  15  20
ATOM     20  N   UNL     1      -8.822 -42.307  28.510  1.00  0.00    -0.398 N 
ATOM     21  H   UNL     1      -9.108 -41.295  28.498  1.00  0.00     0.156 HD
ATOM     22  H   UNL     1      -7.841 -42.569  28.225  1.00  0.00     0.156 HD
ENDBRANCH  15  20
TORSDOF 1
ENDMDL
MODEL 4
REMARK VINA RESULT:    -9.584      3.290      4.593
REMARK INTER + INTRA:          -9.864
REMARK INTER:                  -9.864
REMARK INTRA:                   0.000
REMARK UNBOUND:                 0.000
REMARK SMILES CC1=C[C@H]2Cc3nc4cc(Cl)ccc4c(N)c3[C@@H](C1)C2
REMARK SMILES IDX 1 1 2 2 3 3 4 4 5 5 6 6 7 7 8 8 9 9 10 10 11 11 12 12 13 13
REMARK SMILES IDX 14 14 15 15 17 16 18 17 19 18 20 19 16 20
REMARK H PARENT 16 21 16 22
ROOT
ATOM      1  C   UNL     1     -14.829 -43.929  28.751  1.00  0.00     0.039 C 
ATOM      2  C   UNL     1     -13.530 -44.652  28.586  1.00  0.00    -0.076 C 
ATOM      3  C   UNL     1     -12.660 -44.151  27.741  1.00  0.00    -0.024 C 
ATOM      4  C   UNL     1     -10.069 -45.149  28.812  1.00  0.00     0.018 C 
ATOM      5  C   UNL     1     -10.960 -43.956  28.783  1.00  0.00     0.064 C 
ATOM      6  C   UNL     1     -11.861 -44.224  29.905  1.00  0.00     0.047 A 
ATOM      7  N   UNL     1     -12.160 -43.229  30.752  1.00  0.00    -0.252 NA
ATOM      8  C   UNL     1     -12.989 -43.488  31.781  1.00  0.00     0.074 A 
ATOM      9  C   UNL     1     -13.299 -42.470  32.655  1.00  0.00     0.049 A 
ATOM     10  C   UNL     1     -14.149 -42.655  33.743  1.00  0.00     0.043 A 
ATOM     11  Cl  UNL     1     -14.489 -41.289  34.809  1.00  0.00    -0.084 Cl
ATOM     12  C   UNL     1     -14.710 -43.899  33.969  1.00  0.00     0.021 A 
ATOM     13  C   UNL     1     -14.393 -44.913  33.088  1.00  0.00     0.014 A 
ATOM     14  C   UNL     1     -13.550 -44.726  32.009  1.00  0.00     0.024 A 
ATOM     15  C   UNL     1     -13.261 -45.765  31.155  1.00  0.00     0.046 A 
ATOM     16  C   UNL     1     -12.409 -45.491  30.103  1.00  0.00     0.001 A 
ATOM     17  C   UNL     1     -12.044 -46.575  29.126  1.00  0.00     0.028 C 
ATOM     18  C   UNL     1     -13.332 -45.879  29.390  1.00  0.00     0.039 C 
ATOM     19  C   UNL     1     -10.727 -46.435  28.367  1.00  0.00     0.017 C 
ENDROOT
BRANCH  15  20
ATOM     20  N   UNL     1     -13.810 -47.065  31.340  1.00  0.00    -0.398 N 
ATOM     21  H   UNL     1     -13.220 -47.923  31.486  1.00  0.00     0.156 HD
ATOM     22  H   UNL     1     -14.861 -47.157  31.328  1.00  0.00     0.156 HD
ENDBRANCH  15  20
TORSDOF 1
ENDMDL
MODEL 5
REMARK VINA RESULT:    -9.318      1.583      2.643
REMARK INTER + INTRA:          -9.590
REMARK INTER:                  -9.590
REMARK INTRA:                   0.000
REMARK UNBOUND:                 0.000
REMARK SMILES CC1=C[C@H]2Cc3nc4cc(Cl)ccc4c(N)c3[C@@H](C1)C2
REMARK SMILES IDX 1 1 2 2 3 3 4 4 5 5 6 6 7 7 8 8 9 9 10 10 11 11 12 12 13 13
REMARK SMILES IDX 14 14 15 15 17 16 18 17 19 18 20 19 16 20
REMARK H PARENT 16 21 16 22
ROOT
ATOM      1  C   UNL     1     -10.954 -42.936  28.024  1.00  0.00     0.039 C 
ATOM      2  C   UNL     1     -11.191 -43.979  29.069  1.00  0.00    -0.076 C 
ATOM      3  C   UNL     1     -11.265 -43.580  30.317  1.00  0.00    -0.024 C 
ATOM      4  C   UNL     1     -12.949 -45.691  31.571  1.00  0.00     0.018 C 
ATOM      5  C   UNL     1     -12.998 -44.314  31.006  1.00  0.00     0.064 C 
ATOM      6  C   UNL     1     -13.213 -44.578  29.582  1.00  0.00     0.047 A 
ATOM      7  N   UNL     1     -14.116 -43.847  28.913  1.00  0.00    -0.252 NA
ATOM      8  C   UNL     1     -14.305 -44.100  27.604  1.00  0.00     0.074 A 
ATOM      9  C   UNL     1     -15.232 -43.353  26.912  1.00  0.00     0.049 A 
ATOM     10  C   UNL     1     -15.486 -43.551  25.556  1.00  0.00     0.043 A 
ATOM     11  Cl  UNL     1     -16.693 -42.544  24.753  1.00  0.00    -0.084 Cl
ATOM     12  C   UNL     1     -14.793 -44.529  24.867  1.00  0.00     0.021 A 
ATOM     13  C   UNL     1     -13.866 -45.273  25.568  1.00  0.00     0.014 A 
ATOM     14  C   UNL     1     -13.616 -45.073  26.913  1.00  0.00     0.024 A 
ATOM     15  C   UNL     1     -12.683 -45.837  27.575  1.00  0.00     0.046 A 
ATOM     16  C   UNL     1     -12.496 -45.572  28.917  1.00  0.00     0.001 A 
ATOM     17  C   UNL     1     -11.494 -46.366  29.710  1.00  0.00     0.028 C 
ATOM     18  C   UNL     1     -11.321 -45.380  28.609  1.00  0.00     0.039 C 
ATOM     19  C   UNL     1     -11.701 -46.469  31.220  1.00  0.00     0.017 C 
ENDROOT
BRANCH  15  20
ATOM     20  N   UNL     1     -11.941 -46.857  26.914  1.00  0.00    -0.398 N 
ATOM     21  H   UNL     1     -12.056 -47.083  25.895  1.00  0.00     0.156 HD
ATOM     22  H   UNL     1     -11.245 -47.404  27.489  1.00  0.00     0.156 HD
ENDBRANCH  15  20
TORSDOF 1
ENDMDL
MODEL 6
REMARK VINA RESULT:    -8.761      3.028      5.440
REMARK INTER + INTRA:          -9.018
REMARK INTER:                  -9.018
REMARK INTRA:                   0.000
REMARK UNBOUND:                 0.000
REMARK SMILES CC1=C[C@H]2Cc3nc4cc(Cl)ccc4c(N)c3[C@@H](C1)C2
REMARK SMILES IDX 1 1 2 2 3 3 4 4 5 5 6 6 7 7 8 8 9 9 10 10 11 11 12 12 13 13
REMARK SMILES IDX 14 14 15 15 17 16 18 17 19 18 20 19 16 20
REMARK H PARENT 16 21 16 22
ROOT
ATOM      1  C   UNL     1     -10.521 -46.782  28.025  1.00  0.00     0.039 C 
ATOM      2  C   UNL     1     -11.796 -46.002  28.069  1.00  0.00    -0.076 C 
ATOM      3  C   UNL     1     -12.874 -46.626  28.482  1.00  0.00    -0.024 C 
ATOM      4  C   UNL     1     -14.543 -44.400  29.542  1.00  0.00     0.018 C 
ATOM      5  C   UNL     1     -13.614 -45.488  29.956  1.00  0.00     0.064 C 
ATOM      6  C   UNL     1     -12.308 -44.837  29.827  1.00  0.00     0.047 A 
ATOM      7  N   UNL     1     -11.398 -45.004  30.797  1.00  0.00    -0.252 NA
ATOM      8  C   UNL     1     -10.203 -44.400  30.667  1.00  0.00     0.074 A 
ATOM      9  C   UNL     1      -9.264 -44.567  31.661  1.00  0.00     0.049 A 
ATOM     10  C   UNL     1      -8.003 -43.977  31.602  1.00  0.00     0.043 A 
ATOM     11  Cl  UNL     1      -6.866 -44.249  32.925  1.00  0.00    -0.084 Cl
ATOM     12  C   UNL     1      -7.666 -43.192  30.515  1.00  0.00     0.021 A 
ATOM     13  C   UNL     1      -8.612 -43.030  29.524  1.00  0.00     0.014 A 
ATOM     14  C   UNL     1      -9.862 -43.617  29.585  1.00  0.00     0.024 A 
ATOM     15  C   UNL     1     -10.777 -43.430  28.574  1.00  0.00     0.046 A 
ATOM     16  C   UNL     1     -12.001 -44.052  28.716  1.00  0.00     0.001 A 
ATOM     17  C   UNL     1     -13.054 -43.894  27.653  1.00  0.00     0.028 C 
ATOM     18  C   UNL     1     -11.737 -44.587  27.640  1.00  0.00     0.039 C 
ATOM     19  C   UNL     1     -14.513 -44.079  28.065  1.00  0.00     0.017 C 
ENDROOT
BRANCH  15  20
ATOM     20  N   UNL     1     -10.482 -42.632  27.432  1.00  0.00    -0.398 N 
ATOM     21  H   UNL     1     -11.204 -42.051  26.936  1.00  0.00     0.156 HD
ATOM     22  H   UNL     1      -9.488 -42.635  27.079  1.00  0.00     0.156 HD
ENDBRANCH  15  20
TORSDOF 1
ENDMDL
MODEL 7
REMARK VINA RESULT:    -8.578      2.871      3.912
REMARK INTER + INTRA:          -8.829
REMARK INTER:                  -8.829
REMARK INTRA:                   0.000
REMARK UNBOUND:                 0.000
REMARK SMILES CC1=C[C@H]2Cc3nc4cc(Cl)ccc4c(N)c3[C@@H](C1)C2
REMARK SMILES IDX 1 1 2 2 3 3 4 4 5 5 6 6 7 7 8 8 9 9 10 10 11 11 12 12 13 13
REMARK SMILES IDX 14 14 15 15 17 16 18 17 19 18 20 19 16 20
REMARK H PARENT 16 21 16 22
ROOT
ATOM      1  C   UNL     1      -9.985 -46.513  29.065  1.00  0.00     0.039 C 
ATOM      2  C   UNL     1     -10.901 -45.934  30.095  1.00  0.00    -0.076 C 
ATOM      3  C   UNL     1     -10.616 -46.161  31.355  1.00  0.00    -0.024 C 
ATOM      4  C   UNL     1     -11.870 -43.837  32.730  1.00  0.00     0.018 C 
ATOM      5  C   UNL     1     -10.569 -44.354  32.222  1.00  0.00     0.064 C 
ATOM      6  C   UNL     1     -10.593 -43.914  30.825  1.00  0.00     0.047 A 
ATOM      7  N   UNL     1      -9.487 -43.373  30.294  1.00  0.00    -0.252 NA
ATOM      8  C   UNL     1      -9.521 -42.972  29.010  1.00  0.00     0.074 A 
ATOM      9  C   UNL     1      -8.388 -42.415  28.459  1.00  0.00     0.049 A 
ATOM     10  C   UNL     1      -8.341 -41.975  27.138  1.00  0.00     0.043 A 
ATOM     11  Cl  UNL     1      -6.843 -41.275  26.520  1.00  0.00    -0.084 Cl
ATOM     12  C   UNL     1      -9.462 -42.093  26.338  1.00  0.00     0.021 A 
ATOM     13  C   UNL     1     -10.593 -42.652  26.898  1.00  0.00     0.014 A 
ATOM     14  C   UNL     1     -10.636 -43.088  28.209  1.00  0.00     0.024 A 
ATOM     15  C   UNL     1     -11.784 -43.640  28.728  1.00  0.00     0.046 A 
ATOM     16  C   UNL     1     -11.741 -44.048  30.046  1.00  0.00     0.001 A 
ATOM     17  C   UNL     1     -12.957 -44.661  30.686  1.00  0.00     0.028 C 
ATOM     18  C   UNL     1     -12.059 -45.152  29.607  1.00  0.00     0.039 C 
ATOM     19  C   UNL     1     -13.084 -44.569  32.205  1.00  0.00     0.017 C 
ENDROOT
BRANCH  15  20
ATOM     20  N   UNL     1     -12.967 -43.786  27.949  1.00  0.00    -0.398 N 
ATOM     21  H   UNL     1     -13.058 -43.422  26.968  1.00  0.00     0.156 HD
ATOM     22  H   UNL     1     -13.784 -44.285  28.393  1.00  0.00     0.156 HD
ENDBRANCH  15  20
TORSDOF 1
ENDMDL
MODEL 8
REMARK VINA RESULT:    -8.517      3.487      5.254
REMARK INTER + INTRA:          -8.766
REMARK INTER:                  -8.766
REMARK INTRA:                   0.000
REMARK UNBOUND:                 0.000
REMARK SMILES CC1=C[C@H]2Cc3nc4cc(Cl)ccc4c(N)c3[C@@H](C1)C2
REMARK SMILES IDX 1 1 2 2 3 3 4 4 5 5 6 6 7 7 8 8 9 9 10 10 11 11 12 12 13 13
REMARK SMILES IDX 14 14 15 15 17 16 18 17 19 18 20 19 16 20
REMARK H PARENT 16 21 16 22
ROOT
ATOM      1  C   UNL     1     -10.781 -41.876  28.764  1.00  0.00     0.039 C 
ATOM      2  C   UNL     1     -11.011 -43.319  28.447  1.00  0.00    -0.076 C 
ATOM      3  C   UNL     1     -10.123 -43.922  27.692  1.00  0.00    -0.024 C 
ATOM      4  C   UNL     1     -10.400 -46.769  28.517  1.00  0.00     0.018 C 
ATOM      5  C   UNL     1      -9.569 -45.550  28.721  1.00  0.00     0.064 C 
ATOM      6  C   UNL     1     -10.295 -44.865  29.792  1.00  0.00     0.047 A 
ATOM      7  N   UNL     1      -9.604 -44.334  30.812  1.00  0.00    -0.252 NA
ATOM      8  C   UNL     1     -10.283 -43.708  31.790  1.00  0.00     0.074 A 
ATOM      9  C   UNL     1      -9.578 -43.162  32.841  1.00  0.00     0.049 A 
ATOM     10  C   UNL     1     -10.205 -42.496  33.892  1.00  0.00     0.043 A 
ATOM     11  Cl  UNL     1      -9.218 -41.828  35.195  1.00  0.00    -0.084 Cl
ATOM     12  C   UNL     1     -11.582 -42.372  33.898  1.00  0.00     0.021 A 
ATOM     13  C   UNL     1     -12.280 -42.922  32.842  1.00  0.00     0.014 A 
ATOM     14  C   UNL     1     -11.655 -43.581  31.800  1.00  0.00     0.024 A 
ATOM     15  C   UNL     1     -12.389 -44.115  30.767  1.00  0.00     0.046 A 
ATOM     16  C   UNL     1     -11.685 -44.757  29.767  1.00  0.00     0.001 A 
ATOM     17  C   UNL     1     -12.416 -45.368  28.603  1.00  0.00     0.028 C 
ATOM     18  C   UNL     1     -12.224 -43.950  29.011  1.00  0.00     0.039 C 
ATOM     19  C   UNL     1     -11.736 -46.514  27.857  1.00  0.00     0.017 C 
ENDROOT
BRANCH  15  20
ATOM     20  N   UNL     1     -13.808 -44.016  30.722  1.00  0.00    -0.398 N 
ATOM     21  H   UNL     1     -14.418 -44.720  30.235  1.00  0.00     0.156 HD
ATOM     22  H   UNL     1     -14.254 -43.191  31.205  1.00  0.00     0.156 HD
ENDBRANCH  15  20
TORSDOF 1
ENDMDL
MODEL 9
REMARK VINA RESULT:    -8.485      3.022      5.461
REMARK INTER + INTRA:          -8.733
REMARK INTER:                  -8.733
REMARK INTRA:                   0.000
REMARK UNBOUND:                 0.000
REMARK SMILES CC1=C[C@H]2Cc3nc4cc(Cl)ccc4c(N)c3[C@@H](C1)C2
REMARK SMILES IDX 1 1 2 2 3 3 4 4 5 5 6 6 7 7 8 8 9 9 10 10 11 11 12 12 13 13
REMARK SMILES IDX 14 14 15 15 17 16 18 17 19 18 20 19 16 20
REMARK H PARENT 16 21 16 22
ROOT
ATOM      1  C   UNL     1     -13.011 -46.232  31.188  1.00  0.00     0.039 C 
ATOM      2  C   UNL     1     -13.182 -45.857  29.751  1.00  0.00    -0.076 C 
ATOM      3  C   UNL     1     -14.189 -45.072  29.445  1.00  0.00    -0.024 C 
ATOM      4  C   UNL     1     -13.237 -43.739  26.959  1.00  0.00     0.018 C 
ATOM      5  C   UNL     1     -13.381 -43.545  28.428  1.00  0.00     0.064 C 
ATOM      6  C   UNL     1     -12.141 -44.136  28.935  1.00  0.00     0.047 A 
ATOM      7  N   UNL     1     -11.455 -43.491  29.889  1.00  0.00    -0.252 NA
ATOM      8  C   UNL     1     -10.316 -44.044  30.346  1.00  0.00     0.074 A 
ATOM      9  C   UNL     1      -9.606 -43.386  31.326  1.00  0.00     0.049 A 
ATOM     10  C   UNL     1      -8.419 -43.891  31.853  1.00  0.00     0.043 A 
ATOM     11  Cl  UNL     1      -7.580 -42.976  33.107  1.00  0.00    -0.084 Cl
ATOM     12  C   UNL     1      -7.921 -45.093  31.386  1.00  0.00     0.021 A 
ATOM     13  C   UNL     1      -8.638 -45.746  30.404  1.00  0.00     0.014 A 
ATOM     14  C   UNL     1      -9.816 -45.243  29.884  1.00  0.00     0.024 A 
ATOM     15  C   UNL     1     -10.500 -45.925  28.905  1.00  0.00     0.046 A 
ATOM     16  C   UNL     1     -11.667 -45.352  28.442  1.00  0.00     0.001 A 
ATOM     17  C   UNL     1     -12.472 -46.037  27.371  1.00  0.00     0.028 C 
ATOM     18  C   UNL     1     -12.201 -46.404  28.788  1.00  0.00     0.039 C 
ATOM     19  C   UNL     1     -13.378 -45.173  26.498  1.00  0.00     0.017 C 
ENDROOT
BRANCH  15  20
ATOM     20  N   UNL     1     -10.033 -47.167  28.389  1.00  0.00    -0.398 N 
ATOM     21  H   UNL     1     -10.092 -48.070  28.922  1.00  0.00     0.156 HD
ATOM     22  H   UNL     1      -9.610 -47.164  27.422  1.00  0.00     0.156 HD
ENDBRANCH  15  20
TORSDOF 1
ENDMDL
