MODEL 1
REMARK VINA RESULT:   -10.520      0.000      0.000
REMARK INTER + INTRA:         -15.903
REMARK INTER:                 -15.132
REMARK INTRA:                  -0.771
REMARK UNBOUND:                -0.771
REMARK SMILES COc1cc(N)c(Cl)cc1C(=O)CC[C@H]1CC[N@@H+](Cc2ccccc2)CC1
REMARK SMILES IDX 13 1 14 2 15 3 17 4 18 5 16 6 26 7 27 8 19 10 20 11 21 12
REMARK SMILES IDX 25 13 22 14 24 15 23 16 11 17 12 18 10 19 9 20 3 21 7 22
REMARK SMILES IDX 4 23 5 24 8 25 2 26 1 27 6 28
REMARK H PARENT 18 9 6 29 6 30
ROOT
ATOM      1  C   UNL     1      -9.941 -45.934  29.458  1.00  0.00     0.081 C 
ENDROOT
BRANCH   1   2
ATOM      2  C   UNL     1     -11.201 -45.792  28.595  1.00  0.00     0.012 C 
BRANCH   2   3
ATOM      3  C   UNL     1     -12.207 -44.749  29.122  1.00  0.00     0.000 C 
ATOM      4  C   UNL     1     -12.121 -43.106  27.171  1.00  0.00     0.262 C 
ATOM      5  N   UNL     1     -13.535 -43.484  26.809  1.00  0.00    -0.331 N 
ATOM      6  C   UNL     1     -11.896 -43.316  28.664  1.00  0.00     0.065 C 
ATOM      7  C   UNL     1     -13.875 -44.907  27.192  1.00  0.00     0.262 C 
ATOM      8  C   UNL     1     -13.637 -45.106  28.686  1.00  0.00     0.065 C 
ATOM      9  H   UNL     1     -14.169 -42.874  27.339  1.00  0.00     0.348 HD
BRANCH   5  10
ATOM     10  C   UNL     1     -13.815 -43.200  25.345  1.00  0.00     0.299 C 
BRANCH  10  11
ATOM     11  C   UNL     1     -15.276 -42.998  25.052  1.00  0.00     0.006 A 
ATOM     12  C   UNL     1     -15.760 -43.101  23.737  1.00  0.00     0.009 A 
ATOM     13  C   UNL     1     -16.174 -42.682  26.083  1.00  0.00     0.009 A 
ATOM     14  C   UNL     1     -17.111 -42.887  23.464  1.00  0.00     0.001 A 
ATOM     15  C   UNL     1     -17.524 -42.468  25.803  1.00  0.00     0.001 A 
ATOM     16  C   UNL     1     -17.991 -42.568  24.495  1.00  0.00     0.000 A 
ENDBRANCH  10  11
ENDBRANCH   5  10
ENDBRANCH   2   3
ENDBRANCH   1   2
BRANCH   1  17
ATOM     17  C   UNL     1     -10.312 -45.963  30.931  1.00  0.00     0.166 C 
ATOM     18  O   UNL     1     -10.968 -46.890  31.404  1.00  0.00    -0.294 OA
BRANCH  17  19
ATOM     19  C   UNL     1      -9.900 -44.840  31.817  1.00  0.00     0.061 A 
ATOM     20  C   UNL     1      -8.522 -44.670  32.005  1.00  0.00     0.038 A 
ATOM     21  C   UNL     1     -10.813 -43.976  32.446  1.00  0.00     0.131 A 
ATOM     22  C   UNL     1      -8.051 -43.656  32.835  1.00  0.00     0.064 A 
ATOM     23  C   UNL     1     -10.318 -42.962  33.281  1.00  0.00     0.074 A 
ATOM     24  C   UNL     1      -8.940 -42.763  33.454  1.00  0.00     0.054 A 
ATOM     25  Cl  UNL     1      -6.344 -43.505  33.064  1.00  0.00    -0.082 Cl
BRANCH  21  26
ATOM     26  O   UNL     1     -12.145 -44.175  32.191  1.00  0.00    -0.496 OA
ATOM     27  C   UNL     1     -13.047 -43.124  32.523  1.00  0.00     0.278 C 
ENDBRANCH  21  26
BRANCH  24  28
ATOM     28  N   UNL     1      -8.503 -41.820  34.401  1.00  0.00    -0.397 N 
ATOM     29  H   UNL     1      -7.597 -42.054  34.807  1.00  0.00     0.156 HD
ATOM     30  H   UNL     1      -8.557 -40.850  34.107  1.00  0.00     0.156 HD
ENDBRANCH  24  28
ENDBRANCH  17  19
ENDBRANCH   1  17
TORSDOF 8
ENDMDL
MODEL 2
REMARK VINA RESULT:   -10.453      2.271      2.909
REMARK INTER + INTRA:         -15.807
REMARK INTER:                 -14.807
REMARK INTRA:                  -1.001
REMARK UNBOUND:                -0.771
REMARK SMILES COc1cc(N)c(Cl)cc1C(=O)CC[C@H]1CC[N@@H+](Cc2ccccc2)CC1
REMARK SMILES IDX 13 1 14 2 15 3 17 4 18 5 16 6 26 7 27 8 19 10 20 11 21 12
REMARK SMILES IDX 25 13 22 14 24 15 23 16 11 17 12 18 10 19 9 20 3 21 7 22
REMARK SMILES IDX 4 23 5 24 8 25 2 26 1 27 6 28
REMARK H PARENT 18 9 6 29 6 30
ROOT
ATOM      1  C   UNL     1     -10.425 -45.905  29.798  1.00  0.00     0.081 C 
ENDROOT
BRANCH   1   2
ATOM      2  C   UNL     1     -11.033 -46.007  28.393  1.00  0.00     0.012 C 
BRANCH   2   3
ATOM      3  C   UNL     1     -12.485 -46.525  28.375  1.00  0.00     0.000 C 
ATOM      4  C   UNL     1     -13.690 -44.313  28.789  1.00  0.00     0.262 C 
ATOM      5  N   UNL     1     -14.232 -44.362  27.382  1.00  0.00    -0.331 N 
ATOM      6  C   UNL     1     -13.427 -45.728  29.291  1.00  0.00     0.065 C 
ATOM      7  C   UNL     1     -13.313 -45.091  26.428  1.00  0.00     0.262 C 
ATOM      8  C   UNL     1     -13.051 -46.502  26.946  1.00  0.00     0.065 C 
ATOM      9  H   UNL     1     -15.115 -44.885  27.404  1.00  0.00     0.348 HD
BRANCH   5  10
ATOM     10  C   UNL     1     -14.586 -42.972  26.889  1.00  0.00     0.299 C 
BRANCH  10  11
ATOM     11  C   UNL     1     -16.066 -42.769  26.709  1.00  0.00     0.006 A 
ATOM     12  C   UNL     1     -16.634 -42.772  25.424  1.00  0.00     0.009 A 
ATOM     13  C   UNL     1     -16.898 -42.554  27.819  1.00  0.00     0.009 A 
ATOM     14  C   UNL     1     -18.002 -42.558  25.257  1.00  0.00     0.001 A 
ATOM     15  C   UNL     1     -18.265 -42.341  27.645  1.00  0.00     0.001 A 
ATOM     16  C   UNL     1     -18.816 -42.340  26.366  1.00  0.00     0.000 A 
ENDBRANCH  10  11
ENDBRANCH   5  10
ENDBRANCH   2   3
ENDBRANCH   1   2
BRANCH   1  17
ATOM     17  C   UNL     1      -9.905 -44.500  30.047  1.00  0.00     0.166 C 
ATOM     18  O   UNL     1      -9.169 -43.940  29.235  1.00  0.00    -0.294 OA
BRANCH  17  19
ATOM     19  C   UNL     1     -10.266 -43.792  31.306  1.00  0.00     0.061 A 
ATOM     20  C   UNL     1     -11.619 -43.471  31.472  1.00  0.00     0.038 A 
ATOM     21  C   UNL     1      -9.329 -43.452  32.298  1.00  0.00     0.131 A 
ATOM     22  C   UNL     1     -12.040 -42.791  32.612  1.00  0.00     0.064 A 
ATOM     23  C   UNL     1      -9.774 -42.765  33.438  1.00  0.00     0.074 A 
ATOM     24  C   UNL     1     -11.131 -42.462  33.629  1.00  0.00     0.054 A 
ATOM     25  Cl  UNL     1     -13.714 -42.385  32.758  1.00  0.00    -0.082 Cl
BRANCH  21  26
ATOM     26  O   UNL     1      -8.029 -43.829  32.090  1.00  0.00    -0.496 OA
ATOM     27  C   UNL     1      -7.027 -43.231  32.907  1.00  0.00     0.278 C 
ENDBRANCH  21  26
BRANCH  24  28
ATOM     28  N   UNL     1     -11.501 -41.659  34.723  1.00  0.00    -0.397 N 
ATOM     29  H   UNL     1     -12.503 -41.681  34.912  1.00  0.00     0.156 HD
ATOM     30  H   UNL     1     -10.945 -41.784  35.563  1.00  0.00     0.156 HD
ENDBRANCH  24  28
ENDBRANCH  17  19
ENDBRANCH   1  17
TORSDOF 8
ENDMDL
MODEL 3
REMARK VINA RESULT:   -10.265      3.965      9.117
REMARK INTER + INTRA:         -15.536
REMARK INTER:                 -14.588
REMARK INTRA:                  -0.948
REMARK UNBOUND:                -0.771
REMARK SMILES COc1cc(N)c(Cl)cc1C(=O)CC[C@H]1CC[N@@H+](Cc2ccccc2)CC1
REMARK SMILES IDX 13 1 14 2 15 3 17 4 18 5 16 6 26 7 27 8 19 10 20 11 21 12
REMARK SMILES IDX 25 13 22 14 24 15 23 16 11 17 12 18 10 19 9 20 3 21 7 22
REMARK SMILES IDX 4 23 5 24 8 25 2 26 1 27 6 28
REMARK H PARENT 18 9 6 29 6 30
ROOT
ATOM      1  C   UNL     1     -14.169 -44.591  26.280  1.00  0.00     0.081 C 
ENDROOT
BRANCH   1   2
ATOM      2  C   UNL     1     -13.737 -45.062  27.674  1.00  0.00     0.012 C 
BRANCH   2   3
ATOM      3  C   UNL     1     -12.231 -45.374  27.791  1.00  0.00     0.000 C 
ATOM      4  C   UNL     1     -11.608 -43.633  29.549  1.00  0.00     0.262 C 
ATOM      5  N   UNL     1     -11.358 -44.743  30.539  1.00  0.00    -0.331 N 
ATOM      6  C   UNL     1     -11.378 -44.142  28.132  1.00  0.00     0.065 C 
ATOM      7  C   UNL     1     -12.215 -45.962  30.277  1.00  0.00     0.262 C 
ATOM      8  C   UNL     1     -11.981 -46.457  28.853  1.00  0.00     0.065 C 
ATOM      9  H   UNL     1     -10.381 -45.040  30.438  1.00  0.00     0.348 HD
BRANCH   5  10
ATOM     10  C   UNL     1     -11.494 -44.241  31.964  1.00  0.00     0.299 C 
BRANCH  10  11
ATOM     11  C   UNL     1     -10.199 -43.733  32.536  1.00  0.00     0.006 A 
ATOM     12  C   UNL     1      -8.969 -44.174  32.017  1.00  0.00     0.009 A 
ATOM     13  C   UNL     1     -10.198 -42.827  33.608  1.00  0.00     0.009 A 
ATOM     14  C   UNL     1      -7.769 -43.722  32.566  1.00  0.00     0.001 A 
ATOM     15  C   UNL     1      -8.994 -42.380  34.153  1.00  0.00     0.001 A 
ATOM     16  C   UNL     1      -7.782 -42.829  33.634  1.00  0.00     0.000 A 
ENDBRANCH  10  11
ENDBRANCH   5  10
ENDBRANCH   2   3
ENDBRANCH   1   2
BRANCH   1  17
ATOM     17  C   UNL     1     -14.605 -43.137  26.327  1.00  0.00     0.166 C 
ATOM     18  O   UNL     1     -13.797 -42.236  26.552  1.00  0.00    -0.294 OA
BRANCH  17  19
ATOM     19  C   UNL     1     -16.038 -42.789  26.124  1.00  0.00     0.061 A 
ATOM     20  C   UNL     1     -16.490 -42.765  24.798  1.00  0.00     0.038 A 
ATOM     21  C   UNL     1     -16.921 -42.500  27.179  1.00  0.00     0.131 A 
ATOM     22  C   UNL     1     -17.813 -42.430  24.518  1.00  0.00     0.064 A 
ATOM     23  C   UNL     1     -18.249 -42.162  26.875  1.00  0.00     0.074 A 
ATOM     24  C   UNL     1     -18.721 -42.162  25.554  1.00  0.00     0.054 A 
ATOM     25  Cl  UNL     1     -18.317 -42.379  22.865  1.00  0.00    -0.082 Cl
BRANCH  21  26
ATOM     26  O   UNL     1     -16.424 -42.578  28.454  1.00  0.00    -0.496 OA
ATOM     27  C   UNL     1     -17.348 -42.813  29.512  1.00  0.00     0.278 C 
ENDBRANCH  21  26
BRANCH  24  28
ATOM     28  N   UNL     1     -20.020 -41.690  25.296  1.00  0.00    -0.397 N 
ATOM     29  H   UNL     1     -20.712 -42.437  25.238  1.00  0.00     0.156 HD
ATOM     30  H   UNL     1     -20.329 -40.921  25.883  1.00  0.00     0.156 HD
ENDBRANCH  24  28
ENDBRANCH  17  19
ENDBRANCH   1  17
TORSDOF 8
ENDMDL
MODEL 4
REMARK VINA RESULT:   -10.134      4.104      9.596
REMARK INTER + INTRA:         -15.348
REMARK INTER:                 -14.505
REMARK INTRA:                  -0.844
REMARK UNBOUND:                -0.771
REMARK SMILES COc1cc(N)c(Cl)cc1C(=O)CC[C@H]1CC[N@@H+](Cc2ccccc2)CC1
REMARK SMILES IDX 13 1 14 2 15 3 17 4 18 5 16 6 26 7 27 8 19 10 20 11 21 12
REMARK SMILES IDX 25 13 22 14 24 15 23 16 11 17 12 18 10 19 9 20 3 21 7 22
REMARK SMILES IDX 4 23 5 24 8 25 2 26 1 27 6 28
REMARK H PARENT 18 9 6 29 6 30
ROOT
ATOM      1  C   UNL     1     -14.609 -44.328  26.209  1.00  0.00     0.081 C 
ENDROOT
BRANCH   1   2
ATOM      2  C   UNL     1     -13.895 -44.591  27.541  1.00  0.00     0.012 C 
BRANCH   2   3
ATOM      3  C   UNL     1     -12.400 -44.937  27.392  1.00  0.00     0.000 C 
ATOM      4  C   UNL     1     -11.511 -43.718  29.450  1.00  0.00     0.262 C 
ATOM      5  N   UNL     1     -11.197 -45.050  30.085  1.00  0.00    -0.331 N 
ATOM      6  C   UNL     1     -11.464 -43.845  27.932  1.00  0.00     0.065 C 
ATOM      7  C   UNL     1     -12.126 -46.150  29.624  1.00  0.00     0.262 C 
ATOM      8  C   UNL     1     -12.076 -46.261  28.104  1.00  0.00     0.065 C 
ATOM      9  H   UNL     1     -10.249 -45.320  29.795  1.00  0.00     0.348 HD
BRANCH   5  10
ATOM     10  C   UNL     1     -11.149 -44.933  31.597  1.00  0.00     0.299 C 
BRANCH  10  11
ATOM     11  C   UNL     1      -9.858 -44.349  32.103  1.00  0.00     0.006 A 
ATOM     12  C   UNL     1      -8.626 -44.886  31.696  1.00  0.00     0.009 A 
ATOM     13  C   UNL     1      -9.866 -43.273  33.004  1.00  0.00     0.009 A 
ATOM     14  C   UNL     1      -7.430 -44.360  32.187  1.00  0.00     0.001 A 
ATOM     15  C   UNL     1      -8.668 -42.752  33.491  1.00  0.00     0.001 A 
ATOM     16  C   UNL     1      -7.452 -43.296  33.086  1.00  0.00     0.000 A 
ENDBRANCH  10  11
ENDBRANCH   5  10
ENDBRANCH   2   3
ENDBRANCH   1   2
BRANCH   1  17
ATOM     17  C   UNL     1     -15.132 -42.903  26.163  1.00  0.00     0.166 C 
ATOM     18  O   UNL     1     -14.425 -41.954  26.503  1.00  0.00    -0.294 OA
BRANCH  17  19
ATOM     19  C   UNL     1     -16.531 -42.644  25.726  1.00  0.00     0.061 A 
ATOM     20  C   UNL     1     -17.515 -42.707  26.722  1.00  0.00     0.038 A 
ATOM     21  C   UNL     1     -16.885 -42.346  24.399  1.00  0.00     0.131 A 
ATOM     22  C   UNL     1     -18.852 -42.496  26.397  1.00  0.00     0.064 A 
ATOM     23  C   UNL     1     -18.239 -42.140  24.092  1.00  0.00     0.074 A 
ATOM     24  C   UNL     1     -19.230 -42.172  25.084  1.00  0.00     0.054 A 
ATOM     25  Cl  UNL     1     -20.035 -42.618  27.653  1.00  0.00    -0.082 Cl
BRANCH  21  26
ATOM     26  O   UNL     1     -15.871 -42.263  23.482  1.00  0.00    -0.496 OA
ATOM     27  C   UNL     1     -16.035 -41.361  22.391  1.00  0.00     0.278 C 
ENDBRANCH  21  26
BRANCH  24  28
ATOM     28  N   UNL     1     -20.580 -42.091  24.701  1.00  0.00    -0.397 N 
ATOM     29  H   UNL     1     -20.974 -42.992  24.434  1.00  0.00     0.156 HD
ATOM     30  H   UNL     1     -21.183 -41.578  25.337  1.00  0.00     0.156 HD
ENDBRANCH  24  28
ENDBRANCH  17  19
ENDBRANCH   1  17
TORSDOF 8
ENDMDL
MODEL 5
REMARK VINA RESULT:   -10.020      2.513      4.041
REMARK INTER + INTRA:         -15.184
REMARK INTER:                 -14.358
REMARK INTRA:                  -0.826
REMARK UNBOUND:                -0.771
REMARK SMILES COc1cc(N)c(Cl)cc1C(=O)CC[C@H]1CC[N@@H+](Cc2ccccc2)CC1
REMARK SMILES IDX 13 1 14 2 15 3 17 4 18 5 16 6 26 7 27 8 19 10 20 11 21 12
REMARK SMILES IDX 25 13 22 14 24 15 23 16 11 17 12 18 10 19 9 20 3 21 7 22
REMARK SMILES IDX 4 23 5 24 8 25 2 26 1 27 6 28
REMARK H PARENT 18 9 6 29 6 30
ROOT
ATOM      1  C   UNL     1     -13.896 -44.810  27.727  1.00  0.00     0.081 C 
ENDROOT
BRANCH   1   2
ATOM      2  C   UNL     1     -14.164 -44.533  26.242  1.00  0.00     0.012 C 
BRANCH   2   3
ATOM      3  C   UNL     1     -14.263 -43.035  25.892  1.00  0.00     0.000 C 
ATOM      4  C   UNL     1     -15.901 -43.198  23.942  1.00  0.00     0.262 C 
ATOM      5  N   UNL     1     -16.948 -42.512  24.783  1.00  0.00    -0.331 N 
ATOM      6  C   UNL     1     -14.510 -42.773  24.398  1.00  0.00     0.065 C 
ATOM      7  C   UNL     1     -16.778 -42.782  26.261  1.00  0.00     0.262 C 
ATOM      8  C   UNL     1     -15.381 -42.360  26.703  1.00  0.00     0.065 C 
ATOM      9  H   UNL     1     -16.841 -41.499  24.651  1.00  0.00     0.348 HD
BRANCH   5  10
ATOM     10  C   UNL     1     -18.344 -42.848  24.293  1.00  0.00     0.299 C 
BRANCH  10  11
ATOM     11  C   UNL     1     -18.981 -41.729  23.515  1.00  0.00     0.006 A 
ATOM     12  C   UNL     1     -18.339 -41.188  22.389  1.00  0.00     0.009 A 
ATOM     13  C   UNL     1     -20.216 -41.195  23.915  1.00  0.00     0.009 A 
ATOM     14  C   UNL     1     -18.920 -40.133  21.685  1.00  0.00     0.001 A 
ATOM     15  C   UNL     1     -20.791 -40.140  23.207  1.00  0.00     0.001 A 
ATOM     16  C   UNL     1     -20.142 -39.608  22.096  1.00  0.00     0.000 A 
ENDBRANCH  10  11
ENDBRANCH   5  10
ENDBRANCH   2   3
ENDBRANCH   1   2
BRANCH   1  17
ATOM     17  C   UNL     1     -12.593 -45.572  27.894  1.00  0.00     0.166 C 
ATOM     18  O   UNL     1     -12.367 -46.597  27.251  1.00  0.00    -0.294 OA
BRANCH  17  19
ATOM     19  C   UNL     1     -11.577 -45.092  28.871  1.00  0.00     0.061 A 
ATOM     20  C   UNL     1     -10.659 -44.146  28.398  1.00  0.00     0.038 A 
ATOM     21  C   UNL     1     -11.514 -45.537  30.203  1.00  0.00     0.131 A 
ATOM     22  C   UNL     1      -9.663 -43.657  29.240  1.00  0.00     0.064 A 
ATOM     23  C   UNL     1     -10.501 -45.035  31.034  1.00  0.00     0.074 A 
ATOM     24  C   UNL     1      -9.593 -44.066  30.581  1.00  0.00     0.054 A 
ATOM     25  Cl  UNL     1      -8.531 -42.517  28.602  1.00  0.00    -0.082 Cl
BRANCH  21  26
ATOM     26  O   UNL     1     -12.465 -46.435  30.611  1.00  0.00    -0.496 OA
ATOM     27  C   UNL     1     -13.402 -46.006  31.594  1.00  0.00     0.278 C 
ENDBRANCH  21  26
BRANCH  24  28
ATOM     28  N   UNL     1      -8.521 -43.696  31.412  1.00  0.00    -0.397 N 
ATOM     29  H   UNL     1      -8.774 -43.665  32.400  1.00  0.00     0.156 HD
ATOM     30  H   UNL     1      -7.652 -44.197  31.252  1.00  0.00     0.156 HD
ENDBRANCH  24  28
ENDBRANCH  17  19
ENDBRANCH   1  17
TORSDOF 8
ENDMDL
MODEL 6
REMARK VINA RESULT:    -9.895      4.099      9.672
REMARK INTER + INTRA:         -15.005
REMARK INTER:                 -14.530
REMARK INTRA:                  -0.474
REMARK UNBOUND:                -0.771
REMARK SMILES COc1cc(N)c(Cl)cc1C(=O)CC[C@H]1CC[N@@H+](Cc2ccccc2)CC1
REMARK SMILES IDX 13 1 14 2 15 3 17 4 18 5 16 6 26 7 27 8 19 10 20 11 21 12
REMARK SMILES IDX 25 13 22 14 24 15 23 16 11 17 12 18 10 19 9 20 3 21 7 22
REMARK SMILES IDX 4 23 5 24 8 25 2 26 1 27 6 28
REMARK H PARENT 18 9 6 29 6 30
ROOT
ATOM      1  C   UNL     1     -14.685 -43.803  26.226  1.00  0.00     0.081 C 
ENDROOT
BRANCH   1   2
ATOM      2  C   UNL     1     -14.138 -44.336  27.557  1.00  0.00     0.012 C 
BRANCH   2   3
ATOM      3  C   UNL     1     -12.801 -45.092  27.427  1.00  0.00     0.000 C 
ATOM      4  C   UNL     1     -11.537 -43.977  29.343  1.00  0.00     0.262 C 
ATOM      5  N   UNL     1     -11.572 -45.279  30.104  1.00  0.00    -0.331 N 
ATOM      6  C   UNL     1     -11.583 -44.253  27.845  1.00  0.00     0.065 C 
ATOM      7  C   UNL     1     -12.783 -46.119  29.766  1.00  0.00     0.262 C 
ATOM      8  C   UNL     1     -12.823 -46.381  28.264  1.00  0.00     0.065 C 
ATOM      9  H   UNL     1     -10.746 -45.824  29.832  1.00  0.00     0.348 HD
BRANCH   5  10
ATOM     10  C   UNL     1     -11.437 -45.038  31.596  1.00  0.00     0.299 C 
BRANCH  10  11
ATOM     11  C   UNL     1     -10.054 -44.608  32.001  1.00  0.00     0.006 A 
ATOM     12  C   UNL     1      -9.863 -43.433  32.747  1.00  0.00     0.009 A 
ATOM     13  C   UNL     1      -8.932 -45.363  31.623  1.00  0.00     0.009 A 
ATOM     14  C   UNL     1      -8.577 -43.022  33.099  1.00  0.00     0.001 A 
ATOM     15  C   UNL     1      -7.649 -44.946  31.978  1.00  0.00     0.001 A 
ATOM     16  C   UNL     1      -7.472 -43.776  32.712  1.00  0.00     0.000 A 
ENDBRANCH  10  11
ENDBRANCH   5  10
ENDBRANCH   2   3
ENDBRANCH   1   2
BRANCH   1  17
ATOM     17  C   UNL     1     -15.859 -42.872  26.473  1.00  0.00     0.166 C 
ATOM     18  O   UNL     1     -16.110 -42.447  27.601  1.00  0.00    -0.294 OA
BRANCH  17  19
ATOM     19  C   UNL     1     -16.743 -42.483  25.340  1.00  0.00     0.061 A 
ATOM     20  C   UNL     1     -16.102 -42.058  24.169  1.00  0.00     0.038 A 
ATOM     21  C   UNL     1     -18.147 -42.530  25.402  1.00  0.00     0.131 A 
ATOM     22  C   UNL     1     -16.854 -41.659  23.067  1.00  0.00     0.064 A 
ATOM     23  C   UNL     1     -18.886 -42.120  24.282  1.00  0.00     0.074 A 
ATOM     24  C   UNL     1     -18.257 -41.720  23.094  1.00  0.00     0.054 A 
ATOM     25  Cl  UNL     1     -16.021 -41.110  21.655  1.00  0.00    -0.082 Cl
BRANCH  21  26
ATOM     26  O   UNL     1     -18.709 -42.990  26.564  1.00  0.00    -0.496 OA
ATOM     27  C   UNL     1     -19.661 -42.154  27.215  1.00  0.00     0.278 C 
ENDBRANCH  21  26
BRANCH  24  28
ATOM     28  N   UNL     1     -19.041 -41.195  22.052  1.00  0.00    -0.397 N 
ATOM     29  H   UNL     1     -18.491 -40.923  21.237  1.00  0.00     0.156 HD
ATOM     30  H   UNL     1     -19.857 -41.745  21.802  1.00  0.00     0.156 HD
ENDBRANCH  24  28
ENDBRANCH  17  19
ENDBRANCH   1  17
TORSDOF 8
ENDMDL
MODEL 7
REMARK VINA RESULT:    -9.575      2.353      3.800
REMARK INTER + INTRA:         -14.544
REMARK INTER:                 -13.603
REMARK INTRA:                  -0.941
REMARK UNBOUND:                -0.771
REMARK SMILES COc1cc(N)c(Cl)cc1C(=O)CC[C@H]1CC[N@@H+](Cc2ccccc2)CC1
REMARK SMILES IDX 13 1 14 2 15 3 17 4 18 5 16 6 26 7 27 8 19 10 20 11 21 12
REMARK SMILES IDX 25 13 22 14 24 15 23 16 11 17 12 18 10 19 9 20 3 21 7 22
REMARK SMILES IDX 4 23 5 24 8 25 2 26 1 27 6 28
REMARK H PARENT 18 9 6 29 6 30
ROOT
ATOM      1  C   UNL     1     -12.770 -45.219  27.554  1.00  0.00     0.081 C 
ENDROOT
BRANCH   1   2
ATOM      2  C   UNL     1     -14.113 -44.679  27.047  1.00  0.00     0.012 C 
BRANCH   2   3
ATOM      3  C   UNL     1     -14.024 -43.281  26.403  1.00  0.00     0.000 C 
ATOM      4  C   UNL     1     -15.499 -43.698  24.363  1.00  0.00     0.262 C 
ATOM      5  N   UNL     1     -16.536 -42.766  24.941  1.00  0.00    -0.331 N 
ATOM      6  C   UNL     1     -14.115 -43.309  24.869  1.00  0.00     0.065 C 
ATOM      7  C   UNL     1     -16.521 -42.743  26.453  1.00  0.00     0.262 C 
ATOM      8  C   UNL     1     -15.129 -42.361  26.946  1.00  0.00     0.065 C 
ATOM      9  H   UNL     1     -16.312 -41.815  24.626  1.00  0.00     0.348 HD
BRANCH   5  10
ATOM     10  C   UNL     1     -17.912 -43.074  24.383  1.00  0.00     0.299 C 
BRANCH  10  11
ATOM     11  C   UNL     1     -18.463 -41.967  23.526  1.00  0.00     0.006 A 
ATOM     12  C   UNL     1     -17.681 -41.401  22.505  1.00  0.00     0.009 A 
ATOM     13  C   UNL     1     -19.757 -41.470  23.747  1.00  0.00     0.009 A 
ATOM     14  C   UNL     1     -18.184 -40.357  21.729  1.00  0.00     0.001 A 
ATOM     15  C   UNL     1     -20.253 -40.425  22.967  1.00  0.00     0.001 A 
ATOM     16  C   UNL     1     -19.467 -39.868  21.962  1.00  0.00     0.000 A 
ENDBRANCH  10  11
ENDBRANCH   5  10
ENDBRANCH   2   3
ENDBRANCH   1   2
BRANCH   1  17
ATOM     17  C   UNL     1     -12.536 -44.786  28.991  1.00  0.00     0.166 C 
ATOM     18  O   UNL     1     -13.478 -44.599  29.762  1.00  0.00    -0.294 OA
BRANCH  17  19
ATOM     19  C   UNL     1     -11.147 -44.556  29.476  1.00  0.00     0.061 A 
ATOM     20  C   UNL     1     -10.500 -45.657  30.051  1.00  0.00     0.038 A 
ATOM     21  C   UNL     1     -10.488 -43.319  29.376  1.00  0.00     0.131 A 
ATOM     22  C   UNL     1      -9.205 -45.525  30.548  1.00  0.00     0.064 A 
ATOM     23  C   UNL     1      -9.185 -43.205  29.886  1.00  0.00     0.074 A 
ATOM     24  C   UNL     1      -8.515 -44.307  30.438  1.00  0.00     0.054 A 
ATOM     25  Cl  UNL     1      -8.459 -46.901  31.280  1.00  0.00    -0.082 Cl
BRANCH  21  26
ATOM     26  O   UNL     1     -11.165 -42.293  28.769  1.00  0.00    -0.496 OA
ATOM     27  C   UNL     1     -10.676 -41.828  27.514  1.00  0.00     0.278 C 
ENDBRANCH  21  26
BRANCH  24  28
ATOM     28  N   UNL     1      -7.265 -44.107  31.051  1.00  0.00    -0.397 N 
ATOM     29  H   UNL     1      -7.234 -43.264  31.625  1.00  0.00     0.156 HD
ATOM     30  H   UNL     1      -6.880 -44.915  31.528  1.00  0.00     0.156 HD
ENDBRANCH  24  28
ENDBRANCH  17  19
ENDBRANCH   1  17
TORSDOF 8
ENDMDL
MODEL 8
REMARK VINA RESULT:    -9.383      4.146      9.320
REMARK INTER + INTRA:         -14.268
REMARK INTER:                 -13.541
REMARK INTRA:                  -0.727
REMARK UNBOUND:                -0.771
REMARK SMILES COc1cc(N)c(Cl)cc1C(=O)CC[C@H]1CC[N@@H+](Cc2ccccc2)CC1
REMARK SMILES IDX 13 1 14 2 15 3 17 4 18 5 16 6 26 7 27 8 19 10 20 11 21 12
REMARK SMILES IDX 25 13 22 14 24 15 23 16 11 17 12 18 10 19 9 20 3 21 7 22
REMARK SMILES IDX 4 23 5 24 8 25 2 26 1 27 6 28
REMARK H PARENT 18 9 6 29 6 30
ROOT
ATOM      1  C   UNL     1     -14.534 -44.783  25.728  1.00  0.00     0.081 C 
ENDROOT
BRANCH   1   2
ATOM      2  C   UNL     1     -13.304 -44.916  26.636  1.00  0.00     0.012 C 
BRANCH   2   3
ATOM      3  C   UNL     1     -13.389 -44.083  27.931  1.00  0.00     0.000 C 
ATOM      4  C   UNL     1     -12.815 -45.917  29.610  1.00  0.00     0.262 C 
ATOM      5  N   UNL     1     -11.506 -45.225  29.897  1.00  0.00    -0.331 N 
ATOM      6  C   UNL     1     -13.850 -44.897  29.150  1.00  0.00     0.065 C 
ATOM      7  C   UNL     1     -10.983 -44.451  28.708  1.00  0.00     0.262 C 
ATOM      8  C   UNL     1     -12.030 -43.440  28.252  1.00  0.00     0.065 C 
ATOM      9  H   UNL     1     -11.670 -44.543  30.647  1.00  0.00     0.348 HD
BRANCH   5  10
ATOM     10  C   UNL     1     -10.483 -46.203  30.442  1.00  0.00     0.299 C 
BRANCH  10  11
ATOM     11  C   UNL     1      -9.340 -45.528  31.149  1.00  0.00     0.006 A 
ATOM     12  C   UNL     1      -8.043 -46.066  31.082  1.00  0.00     0.009 A 
ATOM     13  C   UNL     1      -9.554 -44.363  31.902  1.00  0.00     0.009 A 
ATOM     14  C   UNL     1      -6.990 -45.453  31.760  1.00  0.00     0.001 A 
ATOM     15  C   UNL     1      -8.496 -43.755  32.578  1.00  0.00     0.001 A 
ATOM     16  C   UNL     1      -7.216 -44.301  32.509  1.00  0.00     0.000 A 
ENDBRANCH  10  11
ENDBRANCH   5  10
ENDBRANCH   2   3
ENDBRANCH   1   2
BRANCH   1  17
ATOM     17  C   UNL     1     -14.867 -43.319  25.502  1.00  0.00     0.166 C 
ATOM     18  O   UNL     1     -13.981 -42.485  25.317  1.00  0.00    -0.294 OA
BRANCH  17  19
ATOM     19  C   UNL     1     -16.287 -42.873  25.532  1.00  0.00     0.061 A 
ATOM     20  C   UNL     1     -16.949 -42.822  24.298  1.00  0.00     0.038 A 
ATOM     21  C   UNL     1     -16.962 -42.517  26.712  1.00  0.00     0.131 A 
ATOM     22  C   UNL     1     -18.273 -42.397  24.232  1.00  0.00     0.064 A 
ATOM     23  C   UNL     1     -18.296 -42.088  26.624  1.00  0.00     0.074 A 
ATOM     24  C   UNL     1     -18.978 -42.061  25.398  1.00  0.00     0.054 A 
ATOM     25  Cl  UNL     1     -19.038 -42.319  22.683  1.00  0.00    -0.082 Cl
BRANCH  21  26
ATOM     26  O   UNL     1     -16.269 -42.624  27.889  1.00  0.00    -0.496 OA
ATOM     27  C   UNL     1     -17.013 -42.886  29.075  1.00  0.00     0.278 C 
ENDBRANCH  21  26
BRANCH  24  28
ATOM     28  N   UNL     1     -20.266 -41.500  25.349  1.00  0.00    -0.397 N 
ATOM     29  H   UNL     1     -20.806 -41.666  26.198  1.00  0.00     0.156 HD
ATOM     30  H   UNL     1     -20.308 -40.532  25.047  1.00  0.00     0.156 HD
ENDBRANCH  24  28
ENDBRANCH  17  19
ENDBRANCH   1  17
TORSDOF 8
ENDMDL
MODEL 9
REMARK VINA RESULT:    -9.336      2.625      4.315
REMARK INTER + INTRA:         -14.200
REMARK INTER:                 -13.777
REMARK INTRA:                  -0.423
REMARK UNBOUND:                -0.771
REMARK SMILES COc1cc(N)c(Cl)cc1C(=O)CC[C@H]1CC[N@@H+](Cc2ccccc2)CC1
REMARK SMILES IDX 13 1 14 2 15 3 17 4 18 5 16 6 26 7 27 8 19 10 20 11 21 12
REMARK SMILES IDX 25 13 22 14 24 15 23 16 11 17 12 18 10 19 9 20 3 21 7 22
REMARK SMILES IDX 4 23 5 24 8 25 2 26 1 27 6 28
REMARK H PARENT 18 9 6 29 6 30
ROOT
ATOM      1  C   UNL     1     -13.213 -45.224  26.803  1.00  0.00     0.081 C 
ENDROOT
BRANCH   1   2
ATOM      2  C   UNL     1     -14.487 -44.667  26.154  1.00  0.00     0.012 C 
BRANCH   2   3
ATOM      3  C   UNL     1     -14.409 -43.166  25.810  1.00  0.00     0.000 C 
ATOM      4  C   UNL     1     -15.887 -43.168  23.729  1.00  0.00     0.262 C 
ATOM      5  N   UNL     1     -16.929 -42.383  24.486  1.00  0.00    -0.331 N 
ATOM      6  C   UNL     1     -14.505 -42.881  24.303  1.00  0.00     0.065 C 
ATOM      7  C   UNL     1     -16.911 -42.670  25.970  1.00  0.00     0.262 C 
ATOM      8  C   UNL     1     -15.521 -42.386  26.531  1.00  0.00     0.065 C 
ATOM      9  H   UNL     1     -16.713 -41.386  24.373  1.00  0.00     0.348 HD
BRANCH   5  10
ATOM     10  C   UNL     1     -18.304 -42.581  23.878  1.00  0.00     0.299 C 
BRANCH  10  11
ATOM     11  C   UNL     1     -19.409 -42.560  24.899  1.00  0.00     0.006 A 
ATOM     12  C   UNL     1     -19.752 -41.365  25.552  1.00  0.00     0.009 A 
ATOM     13  C   UNL     1     -20.099 -43.737  25.229  1.00  0.00     0.009 A 
ATOM     14  C   UNL     1     -20.758 -41.353  26.518  1.00  0.00     0.001 A 
ATOM     15  C   UNL     1     -21.104 -43.718  26.196  1.00  0.00     0.001 A 
ATOM     16  C   UNL     1     -21.431 -42.528  26.841  1.00  0.00     0.000 A 
ENDBRANCH  10  11
ENDBRANCH   5  10
ENDBRANCH   2   3
ENDBRANCH   1   2
BRANCH   1  17
ATOM     17  C   UNL     1     -13.039 -44.653  28.199  1.00  0.00     0.166 C 
ATOM     18  O   UNL     1     -14.009 -44.435  28.924  1.00  0.00    -0.294 OA
BRANCH  17  19
ATOM     19  C   UNL     1     -11.675 -44.322  28.696  1.00  0.00     0.061 A 
ATOM     20  C   UNL     1     -10.946 -43.395  27.939  1.00  0.00     0.038 A 
ATOM     21  C   UNL     1     -11.117 -44.885  29.857  1.00  0.00     0.131 A 
ATOM     22  C   UNL     1      -9.654 -43.043  28.322  1.00  0.00     0.064 A 
ATOM     23  C   UNL     1      -9.812 -44.520  30.224  1.00  0.00     0.074 A 
ATOM     24  C   UNL     1      -9.083 -43.571  29.491  1.00  0.00     0.054 A 
ATOM     25  Cl  UNL     1      -8.780 -41.922  27.339  1.00  0.00    -0.082 Cl
BRANCH  21  26
ATOM     26  O   UNL     1     -11.897 -45.756  30.570  1.00  0.00    -0.496 OA
ATOM     27  C   UNL     1     -12.452 -45.295  31.799  1.00  0.00     0.278 C 
ENDBRANCH  21  26
BRANCH  24  28
ATOM     28  N   UNL     1      -7.736 -43.341  29.826  1.00  0.00    -0.397 N 
ATOM     29  H   UNL     1      -7.514 -42.351  29.927  1.00  0.00     0.156 HD
ATOM     30  H   UNL     1      -7.378 -43.899  30.595  1.00  0.00     0.156 HD
ENDBRANCH  24  28
ENDBRANCH  17  19
ENDBRANCH   1  17
TORSDOF 8
ENDMDL
