MODEL 1
REMARK VINA RESULT:   -10.504      0.000      0.000
REMARK INTER + INTRA:         -16.224
REMARK INTER:                 -14.802
REMARK INTRA:                  -1.422
REMARK UNBOUND:                -1.422
REMARK SMILES COc1cccc2c1CCC[C@@H]2NS(=O)(=O)NC(=O)OCc1ccccc1
REMARK SMILES IDX 14 1 15 2 16 3 13 4 12 6 3 7 4 8 8 9 5 10 7 11 9 12 6 13
REMARK SMILES IDX 10 14 11 15 2 16 1 17 17 18 18 19 19 21 20 22 21 23 22 24
REMARK SMILES IDX 23 25 27 26 24 27 26 28 25 29
REMARK H PARENT 13 5 17 20
ROOT
ATOM      1  S   UNL     1      -7.808 -44.138  30.836  1.00  0.00     0.304 S 
ATOM      2  O   UNL     1      -6.723 -45.067  30.660  1.00  0.00    -0.189 OA
ATOM      3  O   UNL     1      -7.633 -42.826  31.407  1.00  0.00    -0.189 OA
ENDROOT
BRANCH   1   4
ATOM      4  N   UNL     1      -8.952 -44.895  31.796  1.00  0.00    -0.190 NA
ATOM      5  H   UNL     1      -8.699 -45.876  31.923  1.00  0.00     0.143 HD
BRANCH   4   6
ATOM      6  C   UNL     1     -10.376 -44.718  31.424  1.00  0.00     0.102 C 
ATOM      7  C   UNL     1     -13.240 -42.800  33.070  1.00  0.00     0.122 A 
ATOM      8  C   UNL     1     -12.552 -41.977  33.964  1.00  0.00     0.047 A 
ATOM      9  C   UNL     1     -12.515 -43.702  32.270  1.00  0.00    -0.001 A 
ATOM     10  C   UNL     1     -11.159 -42.030  34.051  1.00  0.00     0.004 A 
ATOM     11  C   UNL     1     -11.105 -43.758  32.355  1.00  0.00    -0.023 A 
ATOM     12  C   UNL     1     -13.185 -44.587  31.244  1.00  0.00     0.040 C 
ATOM     13  C   UNL     1     -10.438 -42.910  33.247  1.00  0.00     0.006 A 
ATOM     14  C   UNL     1     -12.602 -46.001  31.236  1.00  0.00     0.007 C 
ATOM     15  C   UNL     1     -11.089 -46.079  31.472  1.00  0.00     0.025 C 
BRANCH   7  16
ATOM     16  O   UNL     1     -14.599 -42.800  32.898  1.00  0.00    -0.496 OA
ATOM     17  C   UNL     1     -15.294 -41.587  33.156  1.00  0.00     0.278 C 
ENDBRANCH   7  16
ENDBRANCH   4   6
ENDBRANCH   1   4
BRANCH   1  18
ATOM     18  N   UNL     1      -8.707 -43.990  29.471  1.00  0.00    -0.205 N 
ATOM     19  C   UNL     1      -8.741 -42.813  28.733  1.00  0.00     0.422 C 
ATOM     20  H   UNL     1      -9.603 -44.458  29.531  1.00  0.00     0.188 HD
ATOM     21  O   UNL     1      -7.925 -41.912  28.821  1.00  0.00    -0.223 OA
BRANCH  19  22
ATOM     22  O   UNL     1      -9.815 -42.813  27.904  1.00  0.00    -0.444 OA
BRANCH  22  23
ATOM     23  C   UNL     1     -11.092 -42.776  28.547  1.00  0.00     0.270 C 
BRANCH  23  24
ATOM     24  C   UNL     1     -12.021 -43.741  27.860  1.00  0.00    -0.011 A 
ATOM     25  C   UNL     1     -13.062 -43.271  27.047  1.00  0.00     0.007 A 
ATOM     26  C   UNL     1     -11.830 -45.123  27.987  1.00  0.00     0.007 A 
ATOM     27  C   UNL     1     -13.907 -44.167  26.391  1.00  0.00     0.000 A 
ATOM     28  C   UNL     1     -12.675 -46.018  27.329  1.00  0.00     0.000 A 
ATOM     29  C   UNL     1     -13.714 -45.540  26.532  1.00  0.00     0.000 A 
ENDBRANCH  23  24
ENDBRANCH  22  23
ENDBRANCH  19  22
ENDBRANCH   1  18
TORSDOF 7
ENDMDL
MODEL 2
REMARK VINA RESULT:   -10.170      3.821      7.061
REMARK INTER + INTRA:         -15.754
REMARK INTER:                 -15.268
REMARK INTRA:                  -0.485
REMARK UNBOUND:                -1.422
REMARK SMILES COc1cccc2c1CCC[C@@H]2NS(=O)(=O)NC(=O)OCc1ccccc1
REMARK SMILES IDX 14 1 15 2 16 3 13 4 12 6 3 7 4 8 8 9 5 10 7 11 9 12 6 13
REMARK SMILES IDX 10 14 11 15 2 16 1 17 17 18 18 19 19 21 20 22 21 23 22 24
REMARK SMILES IDX 23 25 27 26 24 27 26 28 25 29
REMARK H PARENT 13 5 17 20
ROOT
ATOM      1  S   UNL     1     -12.286 -43.914  27.954  1.00  0.00     0.304 S 
ATOM      2  O   UNL     1     -11.736 -42.890  27.105  1.00  0.00    -0.189 OA
ATOM      3  O   UNL     1     -11.899 -45.300  27.864  1.00  0.00    -0.189 OA
ENDROOT
BRANCH   1   4
ATOM      4  N   UNL     1     -13.945 -43.897  27.733  1.00  0.00    -0.190 NA
ATOM      5  H   UNL     1     -14.334 -44.805  27.990  1.00  0.00     0.143 HD
BRANCH   4   6
ATOM      6  C   UNL     1     -14.453 -43.407  26.430  1.00  0.00     0.102 C 
ATOM      7  C   UNL     1     -17.921 -42.293  25.279  1.00  0.00     0.122 A 
ATOM      8  C   UNL     1     -18.578 -42.113  26.498  1.00  0.00     0.047 A 
ATOM      9  C   UNL     1     -16.586 -42.738  25.279  1.00  0.00    -0.001 A 
ATOM     10  C   UNL     1     -17.916 -42.350  27.704  1.00  0.00     0.004 A 
ATOM     11  C   UNL     1     -15.912 -42.978  26.499  1.00  0.00    -0.023 A 
ATOM     12  C   UNL     1     -15.793 -42.907  24.002  1.00  0.00     0.040 C 
ATOM     13  C   UNL     1     -16.589 -42.773  27.707  1.00  0.00     0.006 A 
ATOM     14  C   UNL     1     -14.938 -44.175  24.020  1.00  0.00     0.007 C 
ATOM     15  C   UNL     1     -14.320 -44.521  25.380  1.00  0.00     0.025 C 
BRANCH   7  16
ATOM     16  O   UNL     1     -18.479 -42.063  24.050  1.00  0.00    -0.496 OA
ATOM     17  C   UNL     1     -19.804 -41.549  24.017  1.00  0.00     0.278 C 
ENDBRANCH   7  16
ENDBRANCH   4   6
ENDBRANCH   1   4
BRANCH   1  18
ATOM     18  N   UNL     1     -12.254 -43.472  29.534  1.00  0.00    -0.205 N 
ATOM     19  C   UNL     1     -11.125 -42.913  30.123  1.00  0.00     0.422 C 
ATOM     20  H   UNL     1     -12.750 -44.114  30.138  1.00  0.00     0.188 HD
ATOM     21  O   UNL     1     -10.191 -42.425  29.511  1.00  0.00    -0.223 OA
BRANCH  19  22
ATOM     22  O   UNL     1     -11.216 -42.993  31.473  1.00  0.00    -0.444 OA
BRANCH  22  23
ATOM     23  C   UNL     1     -11.155 -44.314  32.020  1.00  0.00     0.270 C 
BRANCH  23  24
ATOM     24  C   UNL     1      -9.755 -44.847  31.872  1.00  0.00    -0.011 A 
ATOM     25  C   UNL     1      -9.528 -46.102  31.289  1.00  0.00     0.007 A 
ATOM     26  C   UNL     1      -8.656 -44.077  32.274  1.00  0.00     0.007 A 
ATOM     27  C   UNL     1      -8.228 -46.584  31.130  1.00  0.00     0.000 A 
ATOM     28  C   UNL     1      -7.357 -44.559  32.113  1.00  0.00     0.000 A 
ATOM     29  C   UNL     1      -7.143 -45.813  31.543  1.00  0.00     0.000 A 
ENDBRANCH  23  24
ENDBRANCH  22  23
ENDBRANCH  19  22
ENDBRANCH   1  18
TORSDOF 7
ENDMDL
MODEL 3
REMARK VINA RESULT:   -10.052      4.002      5.970
REMARK INTER + INTRA:         -15.587
REMARK INTER:                 -14.638
REMARK INTRA:                  -0.949
REMARK UNBOUND:                -1.422
REMARK SMILES COc1cccc2c1CCC[C@@H]2NS(=O)(=O)NC(=O)OCc1ccccc1
REMARK SMILES IDX 14 1 15 2 16 3 13 4 12 6 3 7 4 8 8 9 5 10 7 11 9 12 6 13
REMARK SMILES IDX 10 14 11 15 2 16 1 17 17 18 18 19 19 21 20 22 21 23 22 24
REMARK SMILES IDX 23 25 27 26 24 27 26 28 25 29
REMARK H PARENT 13 5 17 20
ROOT
ATOM      1  S   UNL     1     -13.378 -45.113  28.163  1.00  0.00     0.304 S 
ATOM      2  O   UNL     1     -13.848 -45.651  29.413  1.00  0.00    -0.189 OA
ATOM      3  O   UNL     1     -12.469 -45.821  27.297  1.00  0.00    -0.189 OA
ENDROOT
BRANCH   1   4
ATOM      4  N   UNL     1     -12.627 -43.657  28.506  1.00  0.00    -0.190 NA
ATOM      5  H   UNL     1     -12.992 -42.930  27.890  1.00  0.00     0.143 HD
BRANCH   4   6
ATOM      6  C   UNL     1     -11.147 -43.655  28.576  1.00  0.00     0.102 C 
ATOM      7  C   UNL     1      -8.715 -43.340  31.505  1.00  0.00     0.122 A 
ATOM      8  C   UNL     1      -9.555 -43.577  32.596  1.00  0.00     0.047 A 
ATOM      9  C   UNL     1      -9.258 -43.346  30.207  1.00  0.00    -0.001 A 
ATOM     10  C   UNL     1     -10.913 -43.838  32.403  1.00  0.00     0.004 A 
ATOM     11  C   UNL     1     -10.633 -43.611  30.009  1.00  0.00    -0.023 A 
ATOM     12  C   UNL     1      -8.404 -43.148  28.976  1.00  0.00     0.040 C 
ATOM     13  C   UNL     1     -11.449 -43.863  31.118  1.00  0.00     0.006 A 
ATOM     14  C   UNL     1      -9.084 -42.248  27.942  1.00  0.00     0.007 C 
ATOM     15  C   UNL     1     -10.602 -42.431  27.824  1.00  0.00     0.025 C 
BRANCH   7  16
ATOM     16  O   UNL     1      -7.370 -43.099  31.594  1.00  0.00    -0.496 OA
ATOM     17  C   UNL     1      -6.782 -43.127  32.888  1.00  0.00     0.278 C 
ENDBRANCH   7  16
ENDBRANCH   4   6
ENDBRANCH   1   4
BRANCH   1  18
ATOM     18  N   UNL     1     -14.613 -44.533  27.251  1.00  0.00    -0.205 N 
ATOM     19  C   UNL     1     -14.424 -43.541  26.297  1.00  0.00     0.422 C 
ATOM     20  H   UNL     1     -15.480 -44.440  27.766  1.00  0.00     0.188 HD
ATOM     21  O   UNL     1     -13.345 -43.223  25.828  1.00  0.00    -0.223 OA
BRANCH  19  22
ATOM     22  O   UNL     1     -15.613 -42.979  25.966  1.00  0.00    -0.444 OA
BRANCH  22  23
ATOM     23  C   UNL     1     -16.533 -42.797  27.047  1.00  0.00     0.270 C 
BRANCH  23  24
ATOM     24  C   UNL     1     -17.862 -42.352  26.498  1.00  0.00    -0.011 A 
ATOM     25  C   UNL     1     -18.882 -41.926  27.359  1.00  0.00     0.007 A 
ATOM     26  C   UNL     1     -18.081 -42.313  25.114  1.00  0.00     0.007 A 
ATOM     27  C   UNL     1     -20.105 -41.490  26.847  1.00  0.00     0.000 A 
ATOM     28  C   UNL     1     -19.303 -41.876  24.603  1.00  0.00     0.000 A 
ATOM     29  C   UNL     1     -20.316 -41.466  25.469  1.00  0.00     0.000 A 
ENDBRANCH  23  24
ENDBRANCH  22  23
ENDBRANCH  19  22
ENDBRANCH   1  18
TORSDOF 7
ENDMDL
MODEL 4
REMARK VINA RESULT:    -9.829      4.624      8.111
REMARK INTER + INTRA:         -15.273
REMARK INTER:                 -15.046
REMARK INTRA:                  -0.227
REMARK UNBOUND:                -1.422
REMARK SMILES COc1cccc2c1CCC[C@@H]2NS(=O)(=O)NC(=O)OCc1ccccc1
REMARK SMILES IDX 14 1 15 2 16 3 13 4 12 6 3 7 4 8 8 9 5 10 7 11 9 12 6 13
REMARK SMILES IDX 10 14 11 15 2 16 1 17 17 18 18 19 19 21 20 22 21 23 22 24
REMARK SMILES IDX 23 25 27 26 24 27 26 28 25 29
REMARK H PARENT 13 5 17 20
ROOT
ATOM      1  S   UNL     1     -13.788 -43.898  27.023  1.00  0.00     0.304 S 
ATOM      2  O   UNL     1     -12.581 -43.169  26.732  1.00  0.00    -0.189 OA
ATOM      3  O   UNL     1     -14.346 -44.881  26.129  1.00  0.00    -0.189 OA
ENDROOT
BRANCH   1   4
ATOM      4  N   UNL     1     -15.000 -42.767  27.259  1.00  0.00    -0.190 NA
ATOM      5  H   UNL     1     -15.085 -42.558  28.255  1.00  0.00     0.143 HD
BRANCH   4   6
ATOM      6  C   UNL     1     -16.309 -43.031  26.617  1.00  0.00     0.102 C 
ATOM      7  C   UNL     1     -17.776 -41.983  23.249  1.00  0.00     0.122 A 
ATOM      8  C   UNL     1     -16.635 -41.558  22.564  1.00  0.00     0.047 A 
ATOM      9  C   UNL     1     -17.651 -42.436  24.575  1.00  0.00    -0.001 A 
ATOM     10  C   UNL     1     -15.381 -41.600  23.178  1.00  0.00     0.004 A 
ATOM     11  C   UNL     1     -16.383 -42.481  25.199  1.00  0.00    -0.023 A 
ATOM     12  C   UNL     1     -18.831 -42.959  25.362  1.00  0.00     0.040 C 
ATOM     13  C   UNL     1     -15.253 -42.065  24.485  1.00  0.00     0.006 A 
ATOM     14  C   UNL     1     -18.817 -42.473  26.812  1.00  0.00     0.007 C 
ATOM     15  C   UNL     1     -17.426 -42.382  27.451  1.00  0.00     0.025 C 
BRANCH   7  16
ATOM     16  O   UNL     1     -19.040 -42.001  22.723  1.00  0.00    -0.496 OA
ATOM     17  C   UNL     1     -19.617 -40.754  22.359  1.00  0.00     0.278 C 
ENDBRANCH   7  16
ENDBRANCH   4   6
ENDBRANCH   1   4
BRANCH   1  18
ATOM     18  N   UNL     1     -13.761 -44.533  28.536  1.00  0.00    -0.205 N 
ATOM     19  C   UNL     1     -13.025 -45.671  28.847  1.00  0.00     0.422 C 
ATOM     20  H   UNL     1     -14.658 -44.491  29.002  1.00  0.00     0.188 HD
ATOM     21  O   UNL     1     -12.123 -46.124  28.164  1.00  0.00    -0.223 OA
BRANCH  19  22
ATOM     22  O   UNL     1     -13.458 -46.202  30.017  1.00  0.00    -0.444 OA
BRANCH  22  23
ATOM     23  C   UNL     1     -13.237 -45.397  31.180  1.00  0.00     0.270 C 
BRANCH  23  24
ATOM     24  C   UNL     1     -11.756 -45.280  31.426  1.00  0.00    -0.011 A 
ATOM     25  C   UNL     1     -10.912 -46.382  31.233  1.00  0.00     0.007 A 
ATOM     26  C   UNL     1     -11.195 -44.054  31.809  1.00  0.00     0.007 A 
ATOM     27  C   UNL     1      -9.537 -46.265  31.438  1.00  0.00     0.000 A 
ATOM     28  C   UNL     1      -9.820 -43.938  32.012  1.00  0.00     0.000 A 
ATOM     29  C   UNL     1      -8.991 -45.044  31.828  1.00  0.00     0.000 A 
ENDBRANCH  23  24
ENDBRANCH  22  23
ENDBRANCH  19  22
ENDBRANCH   1  18
TORSDOF 7
ENDMDL
MODEL 5
REMARK VINA RESULT:    -9.448      3.218      5.821
REMARK INTER + INTRA:         -14.736
REMARK INTER:                 -14.549
REMARK INTRA:                  -0.188
REMARK UNBOUND:                -1.422
REMARK SMILES COc1cccc2c1CCC[C@@H]2NS(=O)(=O)NC(=O)OCc1ccccc1
REMARK SMILES IDX 14 1 15 2 16 3 13 4 12 6 3 7 4 8 8 9 5 10 7 11 9 12 6 13
REMARK SMILES IDX 10 14 11 15 2 16 1 17 17 18 18 19 19 21 20 22 21 23 22 24
REMARK SMILES IDX 23 25 27 26 24 27 26 28 25 29
REMARK H PARENT 13 5 17 20
ROOT
ATOM      1  S   UNL     1     -13.297 -45.667  31.429  1.00  0.00     0.304 S 
ATOM      2  O   UNL     1     -12.947 -44.644  32.379  1.00  0.00    -0.189 OA
ATOM      3  O   UNL     1     -13.894 -46.922  31.811  1.00  0.00    -0.189 OA
ENDROOT
BRANCH   1   4
ATOM      4  N   UNL     1     -11.898 -46.069  30.602  1.00  0.00    -0.190 NA
ATOM      5  H   UNL     1     -11.640 -47.033  30.814  1.00  0.00     0.143 HD
BRANCH   4   6
ATOM      6  C   UNL     1     -10.753 -45.135  30.709  1.00  0.00     0.102 C 
ATOM      7  C   UNL     1      -9.329 -42.531  28.303  1.00  0.00     0.122 A 
ATOM      8  C   UNL     1     -10.372 -42.395  27.384  1.00  0.00     0.047 A 
ATOM      9  C   UNL     1      -9.464 -43.446  29.364  1.00  0.00    -0.001 A 
ATOM     10  C   UNL     1     -11.544 -43.142  27.525  1.00  0.00     0.004 A 
ATOM     11  C   UNL     1     -10.650 -44.202  29.510  1.00  0.00    -0.023 A 
ATOM     12  C   UNL     1      -8.400 -43.610  30.426  1.00  0.00     0.040 C 
ATOM     13  C   UNL     1     -11.687 -44.035  28.585  1.00  0.00     0.006 A 
ATOM     14  C   UNL     1      -8.179 -45.077  30.796  1.00  0.00     0.007 C 
ATOM     15  C   UNL     1      -9.447 -45.938  30.815  1.00  0.00     0.025 C 
BRANCH   7  16
ATOM     16  O   UNL     1      -8.156 -41.826  28.261  1.00  0.00    -0.496 OA
ATOM     17  C   UNL     1      -7.671 -41.435  26.984  1.00  0.00     0.278 C 
ENDBRANCH   7  16
ENDBRANCH   4   6
ENDBRANCH   1   4
BRANCH   1  18
ATOM     18  N   UNL     1     -14.149 -45.054  30.167  1.00  0.00    -0.205 N 
ATOM     19  C   UNL     1     -15.021 -43.982  30.314  1.00  0.00     0.422 C 
ATOM     20  H   UNL     1     -14.486 -45.766  29.531  1.00  0.00     0.188 HD
ATOM     21  O   UNL     1     -15.025 -43.214  31.261  1.00  0.00    -0.223 OA
BRANCH  19  22
ATOM     22  O   UNL     1     -15.864 -43.917  29.254  1.00  0.00    -0.444 OA
BRANCH  22  23
ATOM     23  C   UNL     1     -16.611 -42.702  29.133  1.00  0.00     0.270 C 
BRANCH  23  24
ATOM     24  C   UNL     1     -17.135 -42.581  27.726  1.00  0.00    -0.011 A 
ATOM     25  C   UNL     1     -18.482 -42.271  27.492  1.00  0.00     0.007 A 
ATOM     26  C   UNL     1     -16.273 -42.732  26.632  1.00  0.00     0.007 A 
ATOM     27  C   UNL     1     -18.960 -42.135  26.188  1.00  0.00     0.000 A 
ATOM     28  C   UNL     1     -16.752 -42.595  25.329  1.00  0.00     0.000 A 
ATOM     29  C   UNL     1     -18.096 -42.298  25.107  1.00  0.00     0.000 A 
ENDBRANCH  23  24
ENDBRANCH  22  23
ENDBRANCH  19  22
ENDBRANCH   1  18
TORSDOF 7
ENDMDL
MODEL 6
REMARK VINA RESULT:    -9.405      4.315      7.606
REMARK INTER + INTRA:         -14.676
REMARK INTER:                 -13.810
REMARK INTRA:                  -0.866
REMARK UNBOUND:                -1.422
REMARK SMILES COc1cccc2c1CCC[C@@H]2NS(=O)(=O)NC(=O)OCc1ccccc1
REMARK SMILES IDX 14 1 15 2 16 3 13 4 12 6 3 7 4 8 8 9 5 10 7 11 9 12 6 13
REMARK SMILES IDX 10 14 11 15 2 16 1 17 17 18 18 19 19 21 20 22 21 23 22 24
REMARK SMILES IDX 23 25 27 26 24 27 26 28 25 29
REMARK H PARENT 13 5 17 20
ROOT
ATOM      1  S   UNL     1     -13.828 -44.561  28.065  1.00  0.00     0.304 S 
ATOM      2  O   UNL     1     -13.552 -45.431  26.952  1.00  0.00    -0.189 OA
ATOM      3  O   UNL     1     -14.674 -44.943  29.168  1.00  0.00    -0.189 OA
ENDROOT
BRANCH   1   4
ATOM      4  N   UNL     1     -14.511 -43.166  27.440  1.00  0.00    -0.190 NA
ATOM      5  H   UNL     1     -14.304 -42.378  28.054  1.00  0.00     0.143 HD
BRANCH   4   6
ATOM      6  C   UNL     1     -15.939 -43.224  27.048  1.00  0.00     0.102 C 
ATOM      7  C   UNL     1     -17.805 -41.991  23.951  1.00  0.00     0.122 A 
ATOM      8  C   UNL     1     -16.754 -41.761  23.061  1.00  0.00     0.047 A 
ATOM      9  C   UNL     1     -17.517 -42.445  25.252  1.00  0.00    -0.001 A 
ATOM     10  C   UNL     1     -15.433 -41.995  23.447  1.00  0.00     0.004 A 
ATOM     11  C   UNL     1     -16.180 -42.684  25.645  1.00  0.00    -0.023 A 
ATOM     12  C   UNL     1     -18.603 -42.765  26.253  1.00  0.00     0.040 C 
ATOM     13  C   UNL     1     -15.145 -42.461  24.728  1.00  0.00     0.006 A 
ATOM     14  C   UNL     1     -18.254 -42.273  27.658  1.00  0.00     0.007 C 
ATOM     15  C   UNL     1     -16.774 -42.397  28.039  1.00  0.00     0.025 C 
BRANCH   7  16
ATOM     16  O   UNL     1     -19.131 -41.813  23.656  1.00  0.00    -0.496 OA
ATOM     17  C   UNL     1     -19.575 -42.212  22.366  1.00  0.00     0.278 C 
ENDBRANCH   7  16
ENDBRANCH   4   6
ENDBRANCH   1   4
BRANCH   1  18
ATOM     18  N   UNL     1     -12.455 -43.899  28.672  1.00  0.00    -0.205 N 
ATOM     19  C   UNL     1     -11.564 -43.186  27.879  1.00  0.00     0.422 C 
ATOM     20  H   UNL     1     -12.003 -44.484  29.364  1.00  0.00     0.188 HD
ATOM     21  O   UNL     1     -11.825 -42.725  26.781  1.00  0.00    -0.223 OA
BRANCH  19  22
ATOM     22  O   UNL     1     -10.365 -43.081  28.503  1.00  0.00    -0.444 OA
BRANCH  22  23
ATOM     23  C   UNL     1     -10.408 -43.104  29.933  1.00  0.00     0.270 C 
BRANCH  23  24
ATOM     24  C   UNL     1      -9.497 -44.190  30.439  1.00  0.00    -0.011 A 
ATOM     25  C   UNL     1      -8.213 -43.882  30.909  1.00  0.00     0.007 A 
ATOM     26  C   UNL     1      -9.939 -45.519  30.491  1.00  0.00     0.007 A 
ATOM     27  C   UNL     1      -7.380 -44.887  31.401  1.00  0.00     0.000 A 
ATOM     28  C   UNL     1      -9.105 -46.523  30.984  1.00  0.00     0.000 A 
ATOM     29  C   UNL     1      -7.824 -46.207  31.437  1.00  0.00     0.000 A 
ENDBRANCH  23  24
ENDBRANCH  22  23
ENDBRANCH  19  22
ENDBRANCH   1  18
TORSDOF 7
ENDMDL
MODEL 7
REMARK VINA RESULT:    -9.399      3.297      5.119
REMARK INTER + INTRA:         -14.666
REMARK INTER:                 -14.097
REMARK INTRA:                  -0.569
REMARK UNBOUND:                -1.422
REMARK SMILES COc1cccc2c1CCC[C@@H]2NS(=O)(=O)NC(=O)OCc1ccccc1
REMARK SMILES IDX 14 1 15 2 16 3 13 4 12 6 3 7 4 8 8 9 5 10 7 11 9 12 6 13
REMARK SMILES IDX 10 14 11 15 2 16 1 17 17 18 18 19 19 21 20 22 21 23 22 24
REMARK SMILES IDX 23 25 27 26 24 27 26 28 25 29
REMARK H PARENT 13 5 17 20
ROOT
ATOM      1  S   UNL     1     -13.654 -45.023  31.081  1.00  0.00     0.304 S 
ATOM      2  O   UNL     1     -14.181 -44.557  32.337  1.00  0.00    -0.189 OA
ATOM      3  O   UNL     1     -13.213 -46.379  30.869  1.00  0.00    -0.189 OA
ENDROOT
BRANCH   1   4
ATOM      4  N   UNL     1     -12.334 -44.061  30.715  1.00  0.00    -0.190 NA
ATOM      5  H   UNL     1     -12.370 -43.789  29.732  1.00  0.00     0.143 HD
BRANCH   4   6
ATOM      6  C   UNL     1     -10.998 -44.556  31.122  1.00  0.00     0.102 C 
ATOM      7  C   UNL     1      -8.359 -43.166  33.508  1.00  0.00     0.122 A 
ATOM      8  C   UNL     1      -9.093 -42.212  34.216  1.00  0.00     0.047 A 
ATOM      9  C   UNL     1      -8.991 -43.901  32.488  1.00  0.00    -0.001 A 
ATOM     10  C   UNL     1     -10.444 -42.002  33.933  1.00  0.00     0.004 A 
ATOM     11  C   UNL     1     -10.360 -43.691  32.201  1.00  0.00    -0.023 A 
ATOM     12  C   UNL     1      -8.276 -44.984  31.714  1.00  0.00     0.040 C 
ATOM     13  C   UNL     1     -11.078 -42.742  32.937  1.00  0.00     0.006 A 
ATOM     14  C   UNL     1      -8.615 -44.945  30.223  1.00  0.00     0.007 C 
ATOM     15  C   UNL     1     -10.067 -44.576  29.899  1.00  0.00     0.025 C 
BRANCH   7  16
ATOM     16  O   UNL     1      -7.039 -43.457  33.731  1.00  0.00    -0.496 OA
ATOM     17  C   UNL     1      -6.085 -42.914  32.828  1.00  0.00     0.278 C 
ENDBRANCH   7  16
ENDBRANCH   4   6
ENDBRANCH   1   4
BRANCH   1  18
ATOM     18  N   UNL     1     -14.616 -44.592  29.824  1.00  0.00    -0.205 N 
ATOM     19  C   UNL     1     -14.176 -44.640  28.506  1.00  0.00     0.422 C 
ATOM     20  H   UNL     1     -15.202 -43.791  30.026  1.00  0.00     0.188 HD
ATOM     21  O   UNL     1     -13.201 -45.262  28.120  1.00  0.00    -0.223 OA
BRANCH  19  22
ATOM     22  O   UNL     1     -14.987 -43.894  27.715  1.00  0.00    -0.444 OA
BRANCH  22  23
ATOM     23  C   UNL     1     -14.471 -43.587  26.416  1.00  0.00     0.270 C 
BRANCH  23  24
ATOM     24  C   UNL     1     -15.611 -43.210  25.507  1.00  0.00    -0.011 A 
ATOM     25  C   UNL     1     -16.829 -42.764  26.039  1.00  0.00     0.007 A 
ATOM     26  C   UNL     1     -15.453 -43.256  24.116  1.00  0.00     0.007 A 
ATOM     27  C   UNL     1     -17.875 -42.392  25.195  1.00  0.00     0.000 A 
ATOM     28  C   UNL     1     -16.500 -42.882  23.273  1.00  0.00     0.000 A 
ATOM     29  C   UNL     1     -17.712 -42.452  23.812  1.00  0.00     0.000 A 
ENDBRANCH  23  24
ENDBRANCH  22  23
ENDBRANCH  19  22
ENDBRANCH   1  18
TORSDOF 7
ENDMDL
MODEL 8
REMARK VINA RESULT:    -9.247      3.188      4.476
REMARK INTER + INTRA:         -14.453
REMARK INTER:                 -14.454
REMARK INTRA:                   0.001
REMARK UNBOUND:                -1.422
REMARK SMILES COc1cccc2c1CCC[C@@H]2NS(=O)(=O)NC(=O)OCc1ccccc1
REMARK SMILES IDX 14 1 15 2 16 3 13 4 12 6 3 7 4 8 8 9 5 10 7 11 9 12 6 13
REMARK SMILES IDX 10 14 11 15 2 16 1 17 17 18 18 19 19 21 20 22 21 23 22 24
REMARK SMILES IDX 23 25 27 26 24 27 26 28 25 29
REMARK H PARENT 13 5 17 20
ROOT
ATOM      1  S   UNL     1     -11.569 -45.666  28.186  1.00  0.00     0.304 S 
ATOM      2  O   UNL     1     -10.968 -46.885  27.713  1.00  0.00    -0.189 OA
ATOM      3  O   UNL     1     -10.879 -44.400  28.186  1.00  0.00    -0.189 OA
ENDROOT
BRANCH   1   4
ATOM      4  N   UNL     1     -12.026 -45.927  29.775  1.00  0.00    -0.190 NA
ATOM      5  H   UNL     1     -12.769 -46.626  29.808  1.00  0.00     0.143 HD
BRANCH   4   6
ATOM      6  C   UNL     1     -12.328 -44.734  30.600  1.00  0.00     0.102 C 
ATOM      7  C   UNL     1     -10.336 -42.907  33.300  1.00  0.00     0.122 A 
ATOM      8  C   UNL     1      -9.053 -43.423  33.101  1.00  0.00     0.047 A 
ATOM      9  C   UNL     1     -11.392 -43.365  32.491  1.00  0.00    -0.001 A 
ATOM     10  C   UNL     1      -8.813 -44.366  32.100  1.00  0.00     0.004 A 
ATOM     11  C   UNL     1     -11.152 -44.319  31.475  1.00  0.00    -0.023 A 
ATOM     12  C   UNL     1     -12.795 -42.816  32.612  1.00  0.00     0.040 C 
ATOM     13  C   UNL     1      -9.854 -44.808  31.286  1.00  0.00     0.006 A 
ATOM     14  C   UNL     1     -13.853 -43.916  32.508  1.00  0.00     0.007 C 
ATOM     15  C   UNL     1     -13.530 -45.033  31.509  1.00  0.00     0.025 C 
BRANCH   7  16
ATOM     16  O   UNL     1     -10.661 -41.963  34.238  1.00  0.00    -0.496 OA
ATOM     17  C   UNL     1      -9.730 -41.734  35.287  1.00  0.00     0.278 C 
ENDBRANCH   7  16
ENDBRANCH   4   6
ENDBRANCH   1   4
BRANCH   1  18
ATOM     18  N   UNL     1     -13.062 -45.439  27.545  1.00  0.00    -0.205 N 
ATOM     19  C   UNL     1     -13.564 -44.172  27.270  1.00  0.00     0.422 C 
ATOM     20  H   UNL     1     -13.756 -46.077  27.914  1.00  0.00     0.188 HD
ATOM     21  O   UNL     1     -12.888 -43.161  27.180  1.00  0.00    -0.223 OA
BRANCH  19  22
ATOM     22  O   UNL     1     -14.910 -44.225  27.118  1.00  0.00    -0.444 OA
BRANCH  22  23
ATOM     23  C   UNL     1     -15.607 -42.996  27.344  1.00  0.00     0.270 C 
BRANCH  23  24
ATOM     24  C   UNL     1     -16.566 -42.754  26.210  1.00  0.00    -0.011 A 
ATOM     25  C   UNL     1     -17.892 -42.377  26.466  1.00  0.00     0.007 A 
ATOM     26  C   UNL     1     -16.135 -42.859  24.881  1.00  0.00     0.007 A 
ATOM     27  C   UNL     1     -18.773 -42.130  25.413  1.00  0.00     0.000 A 
ATOM     28  C   UNL     1     -17.017 -42.610  23.829  1.00  0.00     0.000 A 
ATOM     29  C   UNL     1     -18.337 -42.247  24.095  1.00  0.00     0.000 A 
ENDBRANCH  23  24
ENDBRANCH  22  23
ENDBRANCH  19  22
ENDBRANCH   1  18
TORSDOF 7
ENDMDL
MODEL 9
REMARK VINA RESULT:    -9.119      2.399      6.506
REMARK INTER + INTRA:         -14.272
REMARK INTER:                 -13.488
REMARK INTRA:                  -0.785
REMARK UNBOUND:                -1.422
REMARK SMILES COc1cccc2c1CCC[C@@H]2NS(=O)(=O)NC(=O)OCc1ccccc1
REMARK SMILES IDX 14 1 15 2 16 3 13 4 12 6 3 7 4 8 8 9 5 10 7 11 9 12 6 13
REMARK SMILES IDX 10 14 11 15 2 16 1 17 17 18 18 19 19 21 20 22 21 23 22 24
REMARK SMILES IDX 23 25 27 26 24 27 26 28 25 29
REMARK H PARENT 13 5 17 20
ROOT
ATOM      1  S   UNL     1     -13.468 -45.817  30.782  1.00  0.00     0.304 S 
ATOM      2  O   UNL     1     -13.833 -46.935  31.612  1.00  0.00    -0.189 OA
ATOM      3  O   UNL     1     -14.333 -45.282  29.760  1.00  0.00    -0.189 OA
ENDROOT
BRANCH   1   4
ATOM      4  N   UNL     1     -12.049 -46.231  29.996  1.00  0.00    -0.190 NA
ATOM      5  H   UNL     1     -11.837 -47.215  30.166  1.00  0.00     0.143 HD
BRANCH   4   6
ATOM      6  C   UNL     1     -10.876 -45.350  30.202  1.00  0.00     0.102 C 
ATOM      7  C   UNL     1      -9.391 -42.516  28.115  1.00  0.00     0.122 A 
ATOM      8  C   UNL     1     -10.436 -42.240  27.230  1.00  0.00     0.047 A 
ATOM      9  C   UNL     1      -9.546 -43.548  29.058  1.00  0.00    -0.001 A 
ATOM     10  C   UNL     1     -11.629 -42.963  27.292  1.00  0.00     0.004 A 
ATOM     11  C   UNL     1     -10.753 -44.282  29.124  1.00  0.00    -0.023 A 
ATOM     12  C   UNL     1      -8.480 -43.871  30.081  1.00  0.00     0.040 C 
ATOM     13  C   UNL     1     -11.791 -43.974  28.237  1.00  0.00     0.006 A 
ATOM     14  C   UNL     1      -8.300 -45.378  30.268  1.00  0.00     0.007 C 
ATOM     15  C   UNL     1      -9.594 -46.198  30.197  1.00  0.00     0.025 C 
BRANCH   7  16
ATOM     16  O   UNL     1      -8.198 -41.845  28.146  1.00  0.00    -0.496 OA
ATOM     17  C   UNL     1      -7.657 -41.411  26.905  1.00  0.00     0.278 C 
ENDBRANCH   7  16
ENDBRANCH   4   6
ENDBRANCH   1   4
BRANCH   1  18
ATOM     18  N   UNL     1     -12.887 -44.566  31.672  1.00  0.00    -0.205 N 
ATOM     19  C   UNL     1     -13.594 -43.379  31.828  1.00  0.00     0.422 C 
ATOM     20  H   UNL     1     -11.889 -44.433  31.569  1.00  0.00     0.188 HD
ATOM     21  O   UNL     1     -14.784 -43.244  31.604  1.00  0.00    -0.223 OA
BRANCH  19  22
ATOM     22  O   UNL     1     -12.766 -42.397  32.263  1.00  0.00    -0.444 OA
BRANCH  22  23
ATOM     23  C   UNL     1     -12.501 -42.391  33.669  1.00  0.00     0.270 C 
BRANCH  23  24
ATOM     24  C   UNL     1     -11.012 -42.379  33.892  1.00  0.00    -0.011 A 
ATOM     25  C   UNL     1     -10.456 -41.649  34.952  1.00  0.00     0.007 A 
ATOM     26  C   UNL     1     -10.165 -43.134  33.070  1.00  0.00     0.007 A 
ATOM     27  C   UNL     1      -9.078 -41.659  35.172  1.00  0.00     0.000 A 
ATOM     28  C   UNL     1      -8.788 -43.144  33.292  1.00  0.00     0.000 A 
ATOM     29  C   UNL     1      -8.244 -42.405  34.342  1.00  0.00     0.000 A 
ENDBRANCH  23  24
ENDBRANCH  22  23
ENDBRANCH  19  22
ENDBRANCH   1  18
TORSDOF 7
ENDMDL
