MODEL 1
REMARK VINA RESULT:   -10.314      0.000      0.000
REMARK INTER + INTRA:         -17.262
REMARK INTER:                 -16.043
REMARK INTRA:                  -1.220
REMARK UNBOUND:                -1.220
REMARK SMILES N#Cc1cc(C#N)c(=N)[nH]c1NCCC[C@H]1CC[N@H+](Cc2ccccc2)CC1
REMARK SMILES IDX 13 1 12 2 11 4 10 5 8 6 3 7 5 8 4 9 9 11 2 13 1 14 6 15 7 16
REMARK SMILES IDX 14 17 15 18 16 19 17 20 28 21 18 22 27 23 19 24 20 26 21 27
REMARK SMILES IDX 22 28 26 29 23 30 25 31 24 32
REMARK H PARENT 12 3 10 10 9 12 19 25
ROOT
ATOM      1  C   UNL     1      -9.894 -46.207  31.091  1.00  0.00     0.114 C 
ENDROOT
BRANCH   1   2
ATOM      2  N   UNL     1      -9.927 -44.899  31.715  1.00  0.00    -0.370 N 
ATOM      3  H   UNL     1      -9.014 -44.532  31.981  1.00  0.00     0.162 HD
BRANCH   2   4
ATOM      4  C   UNL     1     -11.028 -44.162  32.118  1.00  0.00     0.123 A 
ATOM      5  N   UNL     1     -12.284 -44.450  31.616  1.00  0.00    -0.325 N 
ATOM      6  C   UNL     1     -13.442 -43.791  31.936  1.00  0.00     0.141 A 
ATOM      7  C   UNL     1     -10.943 -43.127  33.003  1.00  0.00     0.094 A 
ATOM      8  C   UNL     1     -13.370 -42.656  32.913  1.00  0.00     0.096 A 
ATOM      9  C   UNL     1     -12.143 -42.380  33.395  1.00  0.00     0.046 A 
ATOM     10  H   UNL     1     -12.381 -45.240  30.998  1.00  0.00     0.170 HD
BRANCH   6  11
ATOM     11  N   UNL     1     -14.530 -44.200  31.361  1.00  0.00    -0.283 NA
ATOM     12  H   UNL     1     -14.783 -43.632  30.543  1.00  0.00     0.189 HD
ENDBRANCH   6  11
BRANCH   7  13
ATOM     13  C   UNL     1      -9.696 -42.715  33.558  1.00  0.00     0.103 C 
ATOM     14  N   UNL     1      -8.678 -42.410  34.025  1.00  0.00    -0.192 NA
ENDBRANCH   7  13
BRANCH   8  15
ATOM     15  C   UNL     1     -14.520 -41.919  33.290  1.00  0.00     0.103 C 
ATOM     16  N   UNL     1     -15.466 -41.326  33.603  1.00  0.00    -0.192 NA
ENDBRANCH   8  15
ENDBRANCH   2   4
ENDBRANCH   1   2
BRANCH   1  17
ATOM     17  C   UNL     1      -9.898 -46.092  29.564  1.00  0.00     0.021 C 
BRANCH  17  18
ATOM     18  C   UNL     1     -11.224 -46.548  28.938  1.00  0.00     0.006 C 
BRANCH  18  19
ATOM     19  C   UNL     1     -11.765 -45.575  27.871  1.00  0.00     0.000 C 
ATOM     20  C   UNL     1     -11.610 -44.102  28.278  1.00  0.00     0.065 C 
ATOM     21  C   UNL     1     -13.242 -45.892  27.580  1.00  0.00     0.065 C 
ATOM     22  C   UNL     1     -12.232 -43.159  27.251  1.00  0.00     0.262 C 
ATOM     23  C   UNL     1     -13.839 -44.934  26.558  1.00  0.00     0.262 C 
ATOM     24  N   UNL     1     -13.681 -43.521  27.058  1.00  0.00    -0.331 N 
ATOM     25  H   UNL     1     -14.119 -43.487  27.986  1.00  0.00     0.348 HD
BRANCH  24  26
ATOM     26  C   UNL     1     -14.453 -42.502  26.241  1.00  0.00     0.299 C 
BRANCH  26  27
ATOM     27  C   UNL     1     -15.946 -42.499  26.432  1.00  0.00     0.006 A 
ATOM     28  C   UNL     1     -16.502 -42.486  27.721  1.00  0.00     0.009 A 
ATOM     29  C   UNL     1     -16.809 -42.514  25.325  1.00  0.00     0.009 A 
ATOM     30  C   UNL     1     -17.886 -42.505  27.897  1.00  0.00     0.001 A 
ATOM     31  C   UNL     1     -18.193 -42.533  25.505  1.00  0.00     0.001 A 
ATOM     32  C   UNL     1     -18.731 -42.531  26.789  1.00  0.00     0.000 A 
ENDBRANCH  26  27
ENDBRANCH  24  26
ENDBRANCH  18  19
ENDBRANCH  17  18
ENDBRANCH   1  17
TORSDOF 10
ENDMDL
MODEL 2
REMARK VINA RESULT:   -10.308      3.459      9.709
REMARK INTER + INTRA:         -17.252
REMARK INTER:                 -16.618
REMARK INTRA:                  -0.635
REMARK UNBOUND:                -1.220
REMARK SMILES N#Cc1cc(C#N)c(=N)[nH]c1NCCC[C@H]1CC[N@H+](Cc2ccccc2)CC1
REMARK SMILES IDX 13 1 12 2 11 4 10 5 8 6 3 7 5 8 4 9 9 11 2 13 1 14 6 15 7 16
REMARK SMILES IDX 14 17 15 18 16 19 17 20 28 21 18 22 27 23 19 24 20 26 21 27
REMARK SMILES IDX 22 28 26 29 23 30 25 31 24 32
REMARK H PARENT 12 3 10 10 9 12 19 25
ROOT
ATOM      1  C   UNL     1     -15.169 -42.657  25.837  1.00  0.00     0.114 C 
ENDROOT
BRANCH   1   2
ATOM      2  N   UNL     1     -16.506 -42.885  25.324  1.00  0.00    -0.370 N 
ATOM      3  H   UNL     1     -16.993 -43.676  25.745  1.00  0.00     0.162 HD
BRANCH   2   4
ATOM      4  C   UNL     1     -17.139 -42.267  24.259  1.00  0.00     0.123 A 
ATOM      5  N   UNL     1     -16.399 -41.699  23.240  1.00  0.00    -0.325 N 
ATOM      6  C   UNL     1     -16.911 -41.060  22.141  1.00  0.00     0.141 A 
ATOM      7  C   UNL     1     -18.497 -42.175  24.157  1.00  0.00     0.094 A 
ATOM      8  C   UNL     1     -18.401 -40.955  22.007  1.00  0.00     0.096 A 
ATOM      9  C   UNL     1     -19.115 -41.509  23.006  1.00  0.00     0.046 A 
ATOM     10  H   UNL     1     -15.396 -41.796  23.268  1.00  0.00     0.170 HD
BRANCH   6  11
ATOM     11  N   UNL     1     -16.059 -40.584  21.287  1.00  0.00    -0.283 NA
ATOM     12  H   UNL     1     -16.296 -39.632  20.981  1.00  0.00     0.189 HD
ENDBRANCH   6  11
BRANCH   7  13
ATOM     13  C   UNL     1     -19.362 -42.691  25.166  1.00  0.00     0.103 C 
ATOM     14  N   UNL     1     -20.066 -43.142  25.971  1.00  0.00    -0.192 NA
ENDBRANCH   7  13
BRANCH   8  15
ATOM     15  C   UNL     1     -19.009 -40.304  20.906  1.00  0.00     0.103 C 
ATOM     16  N   UNL     1     -19.497 -39.764  20.003  1.00  0.00    -0.192 NA
ENDBRANCH   8  15
ENDBRANCH   2   4
ENDBRANCH   1   2
BRANCH   1  17
ATOM     17  C   UNL     1     -14.853 -43.604  26.999  1.00  0.00     0.021 C 
BRANCH  17  18
ATOM     18  C   UNL     1     -13.960 -44.780  26.577  1.00  0.00     0.006 C 
BRANCH  18  19
ATOM     19  C   UNL     1     -13.379 -45.567  27.769  1.00  0.00     0.000 C 
ATOM     20  C   UNL     1     -13.816 -44.996  29.127  1.00  0.00     0.065 C 
ATOM     21  C   UNL     1     -11.844 -45.594  27.675  1.00  0.00     0.065 C 
ATOM     22  C   UNL     1     -13.159 -45.731  30.292  1.00  0.00     0.262 C 
ATOM     23  C   UNL     1     -11.214 -46.327  28.852  1.00  0.00     0.262 C 
ATOM     24  N   UNL     1     -11.663 -45.676  30.134  1.00  0.00    -0.331 N 
ATOM     25  H   UNL     1     -11.411 -44.682  30.063  1.00  0.00     0.348 HD
BRANCH  24  26
ATOM     26  C   UNL     1     -10.909 -46.166  31.357  1.00  0.00     0.299 C 
BRANCH  26  27
ATOM     27  C   UNL     1      -9.635 -45.434  31.682  1.00  0.00     0.006 A 
ATOM     28  C   UNL     1      -9.671 -44.136  32.216  1.00  0.00     0.009 A 
ATOM     29  C   UNL     1      -8.386 -46.035  31.453  1.00  0.00     0.009 A 
ATOM     30  C   UNL     1      -8.489 -43.452  32.497  1.00  0.00     0.001 A 
ATOM     31  C   UNL     1      -7.206 -45.346  31.737  1.00  0.00     0.001 A 
ATOM     32  C   UNL     1      -7.257 -44.055  32.255  1.00  0.00     0.000 A 
ENDBRANCH  26  27
ENDBRANCH  24  26
ENDBRANCH  18  19
ENDBRANCH  17  18
ENDBRANCH   1  17
TORSDOF 10
ENDMDL
MODEL 3
REMARK VINA RESULT:   -10.138      2.869      8.354
REMARK INTER + INTRA:         -16.988
REMARK INTER:                 -16.221
REMARK INTRA:                  -0.767
REMARK UNBOUND:                -1.220
REMARK SMILES N#Cc1cc(C#N)c(=N)[nH]c1NCCC[C@H]1CC[N@H+](Cc2ccccc2)CC1
REMARK SMILES IDX 13 1 12 2 11 4 10 5 8 6 3 7 5 8 4 9 9 11 2 13 1 14 6 15 7 16
REMARK SMILES IDX 14 17 15 18 16 19 17 20 28 21 18 22 27 23 19 24 20 26 21 27
REMARK SMILES IDX 22 28 26 29 23 30 25 31 24 32
REMARK H PARENT 12 3 10 10 9 12 19 25
ROOT
ATOM      1  C   UNL     1     -14.592 -42.474  26.410  1.00  0.00     0.114 C 
ENDROOT
BRANCH   1   2
ATOM      2  N   UNL     1     -15.830 -43.133  26.044  1.00  0.00    -0.370 N 
ATOM      3  H   UNL     1     -15.711 -44.037  25.588  1.00  0.00     0.162 HD
BRANCH   2   4
ATOM      4  C   UNL     1     -17.123 -42.639  26.106  1.00  0.00     0.123 A 
ATOM      5  N   UNL     1     -17.820 -42.359  24.947  1.00  0.00    -0.325 N 
ATOM      6  C   UNL     1     -19.097 -41.866  24.882  1.00  0.00     0.141 A 
ATOM      7  C   UNL     1     -17.767 -42.395  27.284  1.00  0.00     0.094 A 
ATOM      8  C   UNL     1     -19.824 -41.599  26.166  1.00  0.00     0.096 A 
ATOM      9  C   UNL     1     -19.137 -41.872  27.291  1.00  0.00     0.046 A 
ATOM     10  H   UNL     1     -17.385 -42.576  24.064  1.00  0.00     0.170 HD
BRANCH   6  11
ATOM     11  N   UNL     1     -19.589 -41.661  23.700  1.00  0.00    -0.283 NA
ATOM     12  H   UNL     1     -18.928 -41.187  23.073  1.00  0.00     0.189 HD
ENDBRANCH   6  11
BRANCH   7  13
ATOM     13  C   UNL     1     -17.133 -42.611  28.544  1.00  0.00     0.103 C 
ATOM     14  N   UNL     1     -16.605 -42.754  29.567  1.00  0.00    -0.192 NA
ENDBRANCH   7  13
BRANCH   8  15
ATOM     15  C   UNL     1     -21.143 -41.083  26.185  1.00  0.00     0.103 C 
ATOM     16  N   UNL     1     -22.219 -40.648  26.201  1.00  0.00    -0.192 NA
ENDBRANCH   8  15
ENDBRANCH   2   4
ENDBRANCH   1   2
BRANCH   1  17
ATOM     17  C   UNL     1     -13.427 -43.467  26.451  1.00  0.00     0.021 C 
BRANCH  17  18
ATOM     18  C   UNL     1     -13.895 -44.926  26.552  1.00  0.00     0.006 C 
BRANCH  18  19
ATOM     19  C   UNL     1     -13.352 -45.660  27.795  1.00  0.00     0.000 C 
ATOM     20  C   UNL     1     -13.700 -44.942  29.107  1.00  0.00     0.065 C 
ATOM     21  C   UNL     1     -11.828 -45.831  27.672  1.00  0.00     0.065 C 
ATOM     22  C   UNL     1     -13.077 -45.634  30.317  1.00  0.00     0.262 C 
ATOM     23  C   UNL     1     -11.231 -46.518  28.893  1.00  0.00     0.262 C 
ATOM     24  N   UNL     1     -11.586 -45.725  30.125  1.00  0.00    -0.331 N 
ATOM     25  H   UNL     1     -11.251 -44.767  29.964  1.00  0.00     0.348 HD
BRANCH  24  26
ATOM     26  C   UNL     1     -10.844 -46.177  31.369  1.00  0.00     0.299 C 
BRANCH  26  27
ATOM     27  C   UNL     1      -9.559 -45.454  31.668  1.00  0.00     0.006 A 
ATOM     28  C   UNL     1      -8.319 -46.062  31.411  1.00  0.00     0.009 A 
ATOM     29  C   UNL     1      -9.576 -44.160  32.213  1.00  0.00     0.009 A 
ATOM     30  C   UNL     1      -7.129 -45.398  31.708  1.00  0.00     0.001 A 
ATOM     31  C   UNL     1      -8.382 -43.500  32.509  1.00  0.00     0.001 A 
ATOM     32  C   UNL     1      -7.160 -44.119  32.259  1.00  0.00     0.000 A 
ENDBRANCH  26  27
ENDBRANCH  24  26
ENDBRANCH  18  19
ENDBRANCH  17  18
ENDBRANCH   1  17
TORSDOF 10
ENDMDL
MODEL 4
REMARK VINA RESULT:    -9.935      1.058      2.394
REMARK INTER + INTRA:         -16.672
REMARK INTER:                 -15.680
REMARK INTRA:                  -0.992
REMARK UNBOUND:                -1.220
REMARK SMILES N#Cc1cc(C#N)c(=N)[nH]c1NCCC[C@H]1CC[N@H+](Cc2ccccc2)CC1
REMARK SMILES IDX 13 1 12 2 11 4 10 5 8 6 3 7 5 8 4 9 9 11 2 13 1 14 6 15 7 16
REMARK SMILES IDX 14 17 15 18 16 19 17 20 28 21 18 22 27 23 19 24 20 26 21 27
REMARK SMILES IDX 22 28 26 29 23 30 25 31 24 32
REMARK H PARENT 12 3 10 10 9 12 19 25
ROOT
ATOM      1  C   UNL     1      -9.590 -45.217  30.326  1.00  0.00     0.114 C 
ENDROOT
BRANCH   1   2
ATOM      2  N   UNL     1     -10.506 -45.489  31.417  1.00  0.00    -0.370 N 
ATOM      3  H   UNL     1     -10.558 -46.469  31.693  1.00  0.00     0.162 HD
BRANCH   2   4
ATOM      4  C   UNL     1     -11.405 -44.629  32.024  1.00  0.00     0.123 A 
ATOM      5  N   UNL     1     -10.958 -43.494  32.673  1.00  0.00    -0.325 N 
ATOM      6  C   UNL     1     -11.748 -42.573  33.310  1.00  0.00     0.141 A 
ATOM      7  C   UNL     1     -12.752 -44.847  32.028  1.00  0.00     0.094 A 
ATOM      8  C   UNL     1     -13.232 -42.792  33.318  1.00  0.00     0.096 A 
ATOM      9  C   UNL     1     -13.660 -43.902  32.686  1.00  0.00     0.046 A 
ATOM     10  H   UNL     1      -9.972 -43.284  32.643  1.00  0.00     0.170 HD
BRANCH   6  11
ATOM     11  N   UNL     1     -11.148 -41.569  33.869  1.00  0.00    -0.283 NA
ATOM     12  H   UNL     1     -11.735 -40.727  33.903  1.00  0.00     0.189 HD
ENDBRANCH   6  11
BRANCH   7  13
ATOM     13  C   UNL     1     -13.326 -46.004  31.423  1.00  0.00     0.103 C 
ATOM     14  N   UNL     1     -13.814 -46.924  30.911  1.00  0.00    -0.192 NA
ENDBRANCH   7  13
BRANCH   8  15
ATOM     15  C   UNL     1     -14.117 -41.893  33.961  1.00  0.00     0.103 C 
ATOM     16  N   UNL     1     -14.839 -41.148  34.479  1.00  0.00    -0.192 NA
ENDBRANCH   8  15
ENDBRANCH   2   4
ENDBRANCH   1   2
BRANCH   1  17
ATOM     17  C   UNL     1      -9.740 -46.251  29.206  1.00  0.00     0.021 C 
BRANCH  17  18
ATOM     18  C   UNL     1     -11.207 -46.517  28.837  1.00  0.00     0.006 C 
BRANCH  18  19
ATOM     19  C   UNL     1     -11.768 -45.522  27.800  1.00  0.00     0.000 C 
ATOM     20  C   UNL     1     -11.706 -44.065  28.283  1.00  0.00     0.065 C 
ATOM     21  C   UNL     1     -13.215 -45.903  27.446  1.00  0.00     0.065 C 
ATOM     22  C   UNL     1     -12.348 -43.107  27.283  1.00  0.00     0.262 C 
ATOM     23  C   UNL     1     -13.834 -44.929  26.452  1.00  0.00     0.262 C 
ATOM     24  N   UNL     1     -13.768 -43.536  27.024  1.00  0.00    -0.331 N 
ATOM     25  H   UNL     1     -14.236 -43.572  27.938  1.00  0.00     0.348 HD
BRANCH  24  26
ATOM     26  C   UNL     1     -14.571 -42.520  26.232  1.00  0.00     0.299 C 
BRANCH  26  27
ATOM     27  C   UNL     1     -16.056 -42.521  26.474  1.00  0.00     0.006 A 
ATOM     28  C   UNL     1     -16.956 -42.567  25.397  1.00  0.00     0.009 A 
ATOM     29  C   UNL     1     -16.569 -42.474  27.780  1.00  0.00     0.009 A 
ATOM     30  C   UNL     1     -18.333 -42.548  25.622  1.00  0.00     0.001 A 
ATOM     31  C   UNL     1     -17.946 -42.455  28.000  1.00  0.00     0.001 A 
ATOM     32  C   UNL     1     -18.828 -42.489  26.923  1.00  0.00     0.000 A 
ENDBRANCH  26  27
ENDBRANCH  24  26
ENDBRANCH  18  19
ENDBRANCH  17  18
ENDBRANCH   1  17
TORSDOF 10
ENDMDL
MODEL 5
REMARK VINA RESULT:    -9.789      2.507      8.329
REMARK INTER + INTRA:         -16.445
REMARK INTER:                 -15.630
REMARK INTRA:                  -0.815
REMARK UNBOUND:                -1.220
REMARK SMILES N#Cc1cc(C#N)c(=N)[nH]c1NCCC[C@H]1CC[N@H+](Cc2ccccc2)CC1
REMARK SMILES IDX 13 1 12 2 11 4 10 5 8 6 3 7 5 8 4 9 9 11 2 13 1 14 6 15 7 16
REMARK SMILES IDX 14 17 15 18 16 19 17 20 28 21 18 22 27 23 19 24 20 26 21 27
REMARK SMILES IDX 22 28 26 29 23 30 25 31 24 32
REMARK H PARENT 12 3 10 10 9 12 19 25
ROOT
ATOM      1  C   UNL     1     -14.142 -44.221  26.100  1.00  0.00     0.114 C 
ENDROOT
BRANCH   1   2
ATOM      2  N   UNL     1     -14.960 -43.030  26.223  1.00  0.00    -0.370 N 
ATOM      3  H   UNL     1     -14.551 -42.291  26.792  1.00  0.00     0.162 HD
BRANCH   2   4
ATOM      4  C   UNL     1     -16.260 -42.828  25.792  1.00  0.00     0.123 A 
ATOM      5  N   UNL     1     -16.570 -42.897  24.447  1.00  0.00    -0.325 N 
ATOM      6  C   UNL     1     -17.814 -42.712  23.902  1.00  0.00     0.141 A 
ATOM      7  C   UNL     1     -17.288 -42.546  26.644  1.00  0.00     0.094 A 
ATOM      8  C   UNL     1     -18.958 -42.409  24.824  1.00  0.00     0.096 A 
ATOM      9  C   UNL     1     -18.647 -42.341  26.133  1.00  0.00     0.046 A 
ATOM     10  H   UNL     1     -15.838 -43.151  23.801  1.00  0.00     0.170 HD
BRANCH   6  11
ATOM     11  N   UNL     1     -17.913 -42.812  22.613  1.00  0.00    -0.283 NA
ATOM     12  H   UNL     1     -18.846 -43.119  22.311  1.00  0.00     0.189 HD
ENDBRANCH   6  11
BRANCH   7  13
ATOM     13  C   UNL     1     -17.082 -42.413  28.049  1.00  0.00     0.103 C 
ATOM     14  N   UNL     1     -16.895 -42.334  29.192  1.00  0.00    -0.192 NA
ENDBRANCH   7  13
BRANCH   8  15
ATOM     15  C   UNL     1     -20.272 -42.198  24.341  1.00  0.00     0.103 C 
ATOM     16  N   UNL     1     -21.344 -42.022  23.934  1.00  0.00    -0.192 NA
ENDBRANCH   8  15
ENDBRANCH   2   4
ENDBRANCH   1   2
BRANCH   1  17
ATOM     17  C   UNL     1     -13.855 -44.839  27.471  1.00  0.00     0.021 C 
BRANCH  17  18
ATOM     18  C   UNL     1     -12.882 -46.025  27.394  1.00  0.00     0.006 C 
BRANCH  18  19
ATOM     19  C   UNL     1     -11.552 -45.776  28.135  1.00  0.00     0.000 C 
ATOM     20  C   UNL     1     -11.523 -46.415  29.532  1.00  0.00     0.065 C 
ATOM     21  C   UNL     1     -11.289 -44.264  28.237  1.00  0.00     0.065 C 
ATOM     22  C   UNL     1     -10.237 -46.082  30.284  1.00  0.00     0.262 C 
ATOM     23  C   UNL     1     -10.004 -43.959  28.996  1.00  0.00     0.262 C 
ATOM     24  N   UNL     1     -10.082 -44.586  30.365  1.00  0.00    -0.331 N 
ATOM     25  H   UNL     1     -10.937 -44.225  30.805  1.00  0.00     0.348 HD
BRANCH  24  26
ATOM     26  C   UNL     1      -8.967 -44.145  31.295  1.00  0.00     0.299 C 
BRANCH  26  27
ATOM     27  C   UNL     1      -9.391 -43.355  32.503  1.00  0.00     0.006 A 
ATOM     28  C   UNL     1     -10.740 -43.021  32.702  1.00  0.00     0.009 A 
ATOM     29  C   UNL     1      -8.445 -42.936  33.453  1.00  0.00     0.009 A 
ATOM     30  C   UNL     1     -11.128 -42.271  33.813  1.00  0.00     0.001 A 
ATOM     31  C   UNL     1      -8.838 -42.187  34.562  1.00  0.00     0.001 A 
ATOM     32  C   UNL     1     -10.178 -41.852  34.741  1.00  0.00     0.000 A 
ENDBRANCH  26  27
ENDBRANCH  24  26
ENDBRANCH  18  19
ENDBRANCH  17  18
ENDBRANCH   1  17
TORSDOF 10
ENDMDL
MODEL 6
REMARK VINA RESULT:    -9.748      1.777      4.078
REMARK INTER + INTRA:         -16.382
REMARK INTER:                 -16.285
REMARK INTRA:                  -0.097
REMARK UNBOUND:                -1.220
REMARK SMILES N#Cc1cc(C#N)c(=N)[nH]c1NCCC[C@H]1CC[N@H+](Cc2ccccc2)CC1
REMARK SMILES IDX 13 1 12 2 11 4 10 5 8 6 3 7 5 8 4 9 9 11 2 13 1 14 6 15 7 16
REMARK SMILES IDX 14 17 15 18 16 19 17 20 28 21 18 22 27 23 19 24 20 26 21 27
REMARK SMILES IDX 22 28 26 29 23 30 25 31 24 32
REMARK H PARENT 12 3 10 10 9 12 19 25
ROOT
ATOM      1  C   UNL     1     -12.737 -46.160  29.590  1.00  0.00     0.114 C 
ENDROOT
BRANCH   1   2
ATOM      2  N   UNL     1     -12.424 -45.708  30.931  1.00  0.00    -0.370 N 
ATOM      3  H   UNL     1     -13.212 -45.721  31.578  1.00  0.00     0.162 HD
BRANCH   2   4
ATOM      4  C   UNL     1     -11.251 -45.140  31.399  1.00  0.00     0.123 A 
ATOM      5  N   UNL     1     -10.055 -45.824  31.299  1.00  0.00    -0.325 N 
ATOM      6  C   UNL     1      -8.836 -45.368  31.728  1.00  0.00     0.141 A 
ATOM      7  C   UNL     1     -11.207 -43.907  31.981  1.00  0.00     0.094 A 
ATOM      8  C   UNL     1      -8.765 -44.011  32.363  1.00  0.00     0.096 A 
ATOM      9  C   UNL     1      -9.936 -43.352  32.459  1.00  0.00     0.046 A 
ATOM     10  H   UNL     1     -10.053 -46.716  30.830  1.00  0.00     0.170 HD
BRANCH   6  11
ATOM     11  N   UNL     1      -7.819 -46.153  31.553  1.00  0.00    -0.283 NA
ATOM     12  H   UNL     1      -6.940 -45.639  31.415  1.00  0.00     0.189 HD
ENDBRANCH   6  11
BRANCH   7  13
ATOM     13  C   UNL     1     -12.384 -43.125  32.173  1.00  0.00     0.103 C 
ATOM     14  N   UNL     1     -13.348 -42.490  32.294  1.00  0.00    -0.192 NA
ENDBRANCH   7  13
BRANCH   8  15
ATOM     15  C   UNL     1      -7.546 -43.471  32.839  1.00  0.00     0.103 C 
ATOM     16  N   UNL     1      -6.551 -43.017  33.228  1.00  0.00    -0.192 NA
ENDBRANCH   8  15
ENDBRANCH   2   4
ENDBRANCH   1   2
BRANCH   1  17
ATOM     17  C   UNL     1     -13.453 -45.068  28.790  1.00  0.00     0.021 C 
BRANCH  17  18
ATOM     18  C   UNL     1     -13.092 -45.094  27.297  1.00  0.00     0.006 C 
BRANCH  18  19
ATOM     19  C   UNL     1     -13.865 -44.054  26.461  1.00  0.00     0.000 C 
ATOM     20  C   UNL     1     -15.038 -43.427  27.231  1.00  0.00     0.065 C 
ATOM     21  C   UNL     1     -14.371 -44.704  25.162  1.00  0.00     0.065 C 
ATOM     22  C   UNL     1     -15.844 -42.469  26.358  1.00  0.00     0.262 C 
ATOM     23  C   UNL     1     -15.176 -43.729  24.313  1.00  0.00     0.262 C 
ATOM     24  N   UNL     1     -16.325 -43.199  25.131  1.00  0.00    -0.331 N 
ATOM     25  H   UNL     1     -16.852 -44.016  25.463  1.00  0.00     0.348 HD
BRANCH  24  26
ATOM     26  C   UNL     1     -17.333 -42.410  24.317  1.00  0.00     0.299 C 
BRANCH  26  27
ATOM     27  C   UNL     1     -18.587 -41.998  25.039  1.00  0.00     0.006 A 
ATOM     28  C   UNL     1     -19.698 -41.518  24.328  1.00  0.00     0.009 A 
ATOM     29  C   UNL     1     -18.668 -42.085  26.439  1.00  0.00     0.009 A 
ATOM     30  C   UNL     1     -20.853 -41.118  25.002  1.00  0.00     0.001 A 
ATOM     31  C   UNL     1     -19.825 -41.684  27.108  1.00  0.00     0.001 A 
ATOM     32  C   UNL     1     -20.915 -41.198  26.391  1.00  0.00     0.000 A 
ENDBRANCH  26  27
ENDBRANCH  24  26
ENDBRANCH  18  19
ENDBRANCH  17  18
ENDBRANCH   1  17
TORSDOF 10
ENDMDL
MODEL 7
REMARK VINA RESULT:    -9.627      3.644      9.588
REMARK INTER + INTRA:         -16.193
REMARK INTER:                 -15.710
REMARK INTRA:                  -0.482
REMARK UNBOUND:                -1.220
REMARK SMILES N#Cc1cc(C#N)c(=N)[nH]c1NCCC[C@H]1CC[N@H+](Cc2ccccc2)CC1
REMARK SMILES IDX 13 1 12 2 11 4 10 5 8 6 3 7 5 8 4 9 9 11 2 13 1 14 6 15 7 16
REMARK SMILES IDX 14 17 15 18 16 19 17 20 28 21 18 22 27 23 19 24 20 26 21 27
REMARK SMILES IDX 22 28 26 29 23 30 25 31 24 32
REMARK H PARENT 12 3 10 10 9 12 19 25
ROOT
ATOM      1  C   UNL     1     -15.792 -43.168  24.867  1.00  0.00     0.114 C 
ENDROOT
BRANCH   1   2
ATOM      2  N   UNL     1     -17.146 -42.805  25.237  1.00  0.00    -0.370 N 
ATOM      3  H   UNL     1     -17.473 -43.219  26.109  1.00  0.00     0.162 HD
BRANCH   2   4
ATOM      4  C   UNL     1     -18.081 -42.096  24.502  1.00  0.00     0.123 A 
ATOM      5  N   UNL     1     -17.792 -41.682  23.215  1.00  0.00    -0.325 N 
ATOM      6  C   UNL     1     -18.631 -40.975  22.395  1.00  0.00     0.141 A 
ATOM      7  C   UNL     1     -19.309 -41.762  24.992  1.00  0.00     0.094 A 
ATOM      8  C   UNL     1     -19.989 -40.605  22.914  1.00  0.00     0.096 A 
ATOM      9  C   UNL     1     -20.262 -41.010  24.169  1.00  0.00     0.046 A 
ATOM     10  H   UNL     1     -16.909 -41.958  22.813  1.00  0.00     0.170 HD
BRANCH   6  11
ATOM     11  N   UNL     1     -18.184 -40.670  21.217  1.00  0.00    -0.283 NA
ATOM     12  H   UNL     1     -17.159 -40.605  21.187  1.00  0.00     0.189 HD
ENDBRANCH   6  11
BRANCH   7  13
ATOM     13  C   UNL     1     -19.705 -42.102  26.319  1.00  0.00     0.103 C 
ATOM     14  N   UNL     1     -20.056 -42.359  27.395  1.00  0.00    -0.192 NA
ENDBRANCH   7  13
BRANCH   8  15
ATOM     15  C   UNL     1     -20.913 -39.869  22.132  1.00  0.00     0.103 C 
ATOM     16  N   UNL     1     -21.661 -39.259  21.488  1.00  0.00    -0.192 NA
ENDBRANCH   8  15
ENDBRANCH   2   4
ENDBRANCH   1   2
BRANCH   1  17
ATOM     17  C   UNL     1     -14.887 -43.261  26.098  1.00  0.00     0.021 C 
BRANCH  17  18
ATOM     18  C   UNL     1     -14.200 -44.629  26.227  1.00  0.00     0.006 C 
BRANCH  18  19
ATOM     19  C   UNL     1     -13.284 -44.741  27.462  1.00  0.00     0.000 C 
ATOM     20  C   UNL     1     -12.495 -46.059  27.497  1.00  0.00     0.065 C 
ATOM     21  C   UNL     1     -14.119 -44.589  28.745  1.00  0.00     0.065 C 
ATOM     22  C   UNL     1     -11.664 -46.191  28.771  1.00  0.00     0.262 C 
ATOM     23  C   UNL     1     -13.268 -44.731  30.000  1.00  0.00     0.262 C 
ATOM     24  N   UNL     1     -12.567 -46.065  29.969  1.00  0.00    -0.331 N 
ATOM     25  H   UNL     1     -13.299 -46.779  29.863  1.00  0.00     0.348 HD
BRANCH  24  26
ATOM     26  C   UNL     1     -11.886 -46.419  31.278  1.00  0.00     0.299 C 
BRANCH  26  27
ATOM     27  C   UNL     1     -10.490 -45.887  31.459  1.00  0.00     0.006 A 
ATOM     28  C   UNL     1     -10.277 -44.573  31.904  1.00  0.00     0.009 A 
ATOM     29  C   UNL     1      -9.375 -46.696  31.183  1.00  0.00     0.009 A 
ATOM     30  C   UNL     1      -8.982 -44.075  32.051  1.00  0.00     0.001 A 
ATOM     31  C   UNL     1      -8.082 -46.193  31.332  1.00  0.00     0.001 A 
ATOM     32  C   UNL     1      -7.885 -44.884  31.762  1.00  0.00     0.000 A 
ENDBRANCH  26  27
ENDBRANCH  24  26
ENDBRANCH  18  19
ENDBRANCH  17  18
ENDBRANCH   1  17
TORSDOF 10
ENDMDL
MODEL 8
REMARK VINA RESULT:    -9.465      3.897      9.801
REMARK INTER + INTRA:         -15.940
REMARK INTER:                 -15.473
REMARK INTRA:                  -0.467
REMARK UNBOUND:                -1.220
REMARK SMILES N#Cc1cc(C#N)c(=N)[nH]c1NCCC[C@H]1CC[N@H+](Cc2ccccc2)CC1
REMARK SMILES IDX 13 1 12 2 11 4 10 5 8 6 3 7 5 8 4 9 9 11 2 13 1 14 6 15 7 16
REMARK SMILES IDX 14 17 15 18 16 19 17 20 28 21 18 22 27 23 19 24 20 26 21 27
REMARK SMILES IDX 22 28 26 29 23 30 25 31 24 32
REMARK H PARENT 12 3 10 10 9 12 19 25
ROOT
ATOM      1  C   UNL     1     -15.675 -42.342  24.318  1.00  0.00     0.114 C 
ENDROOT
BRANCH   1   2
ATOM      2  N   UNL     1     -16.937 -42.769  23.748  1.00  0.00    -0.370 N 
ATOM      3  H   UNL     1     -16.978 -43.756  23.498  1.00  0.00     0.162 HD
BRANCH   2   4
ATOM      4  C   UNL     1     -18.023 -41.994  23.377  1.00  0.00     0.123 A 
ATOM      5  N   UNL     1     -18.129 -41.510  22.086  1.00  0.00    -0.325 N 
ATOM      6  C   UNL     1     -19.150 -40.734  21.605  1.00  0.00     0.141 A 
ATOM      7  C   UNL     1     -19.025 -41.660  24.241  1.00  0.00     0.094 A 
ATOM      8  C   UNL     1     -20.264 -40.363  22.537  1.00  0.00     0.096 A 
ATOM      9  C   UNL     1     -20.153 -40.836  23.794  1.00  0.00     0.046 A 
ATOM     10  H   UNL     1     -17.426 -41.783  21.416  1.00  0.00     0.170 HD
BRANCH   6  11
ATOM     11  N   UNL     1     -19.077 -40.370  20.362  1.00  0.00    -0.283 NA
ATOM     12  H   UNL     1     -18.518 -39.517  20.232  1.00  0.00     0.189 HD
ENDBRANCH   6  11
BRANCH   7  13
ATOM     13  C   UNL     1     -19.005 -42.070  25.607  1.00  0.00     0.103 C 
ATOM     14  N   UNL     1     -18.969 -42.431  26.709  1.00  0.00    -0.192 NA
ENDBRANCH   7  13
BRANCH   8  15
ATOM     15  C   UNL     1     -21.352 -39.558  22.120  1.00  0.00     0.103 C 
ATOM     16  N   UNL     1     -22.241 -38.902  21.767  1.00  0.00    -0.192 NA
ENDBRANCH   8  15
ENDBRANCH   2   4
ENDBRANCH   1   2
BRANCH   1  17
ATOM     17  C   UNL     1     -15.241 -43.266  25.460  1.00  0.00     0.021 C 
BRANCH  17  18
ATOM     18  C   UNL     1     -13.736 -43.182  25.751  1.00  0.00     0.006 C 
BRANCH  18  19
ATOM     19  C   UNL     1     -13.294 -44.044  26.951  1.00  0.00     0.000 C 
ATOM     20  C   UNL     1     -14.425 -44.272  27.966  1.00  0.00     0.065 C 
ATOM     21  C   UNL     1     -12.085 -43.391  27.643  1.00  0.00     0.065 C 
ATOM     22  C   UNL     1     -13.945 -45.050  29.188  1.00  0.00     0.262 C 
ATOM     23  C   UNL     1     -11.630 -44.183  28.862  1.00  0.00     0.262 C 
ATOM     24  N   UNL     1     -12.787 -44.321  29.818  1.00  0.00    -0.331 N 
ATOM     25  H   UNL     1     -13.115 -43.369  30.022  1.00  0.00     0.348 HD
BRANCH  24  26
ATOM     26  C   UNL     1     -12.388 -44.878  31.172  1.00  0.00     0.299 C 
BRANCH  26  27
ATOM     27  C   UNL     1     -10.921 -45.146  31.367  1.00  0.00     0.006 A 
ATOM     28  C   UNL     1     -10.364 -46.381  30.998  1.00  0.00     0.009 A 
ATOM     29  C   UNL     1     -10.082 -44.168  31.925  1.00  0.00     0.009 A 
ATOM     30  C   UNL     1      -9.007 -46.636  31.199  1.00  0.00     0.001 A 
ATOM     31  C   UNL     1      -8.725 -44.427  32.123  1.00  0.00     0.001 A 
ATOM     32  C   UNL     1      -8.189 -45.661  31.764  1.00  0.00     0.000 A 
ENDBRANCH  26  27
ENDBRANCH  24  26
ENDBRANCH  18  19
ENDBRANCH  17  18
ENDBRANCH   1  17
TORSDOF 10
ENDMDL
MODEL 9
REMARK VINA RESULT:    -8.985      3.551      9.668
REMARK INTER + INTRA:         -15.195
REMARK INTER:                 -14.588
REMARK INTRA:                  -0.606
REMARK UNBOUND:                -1.220
REMARK SMILES N#Cc1cc(C#N)c(=N)[nH]c1NCCC[C@H]1CC[N@H+](Cc2ccccc2)CC1
REMARK SMILES IDX 13 1 12 2 11 4 10 5 8 6 3 7 5 8 4 9 9 11 2 13 1 14 6 15 7 16
REMARK SMILES IDX 14 17 15 18 16 19 17 20 28 21 18 22 27 23 19 24 20 26 21 27
REMARK SMILES IDX 22 28 26 29 23 30 25 31 24 32
REMARK H PARENT 12 3 10 10 9 12 19 25
ROOT
ATOM      1  C   UNL     1     -15.281 -43.574  24.776  1.00  0.00     0.114 C 
ENDROOT
BRANCH   1   2
ATOM      2  N   UNL     1     -16.041 -42.405  24.378  1.00  0.00    -0.370 N 
ATOM      3  H   UNL     1     -15.549 -41.519  24.490  1.00  0.00     0.162 HD
BRANCH   2   4
ATOM      4  C   UNL     1     -17.373 -42.327  24.006  1.00  0.00     0.123 A 
ATOM      5  N   UNL     1     -18.347 -42.959  24.756  1.00  0.00    -0.325 N 
ATOM      6  C   UNL     1     -19.690 -42.956  24.487  1.00  0.00     0.141 A 
ATOM      7  C   UNL     1     -17.795 -41.648  22.901  1.00  0.00     0.094 A 
ATOM      8  C   UNL     1     -20.174 -42.208  23.281  1.00  0.00     0.096 A 
ATOM      9  C   UNL     1     -19.219 -41.597  22.554  1.00  0.00     0.046 A 
ATOM     10  H   UNL     1     -18.067 -43.427  25.604  1.00  0.00     0.170 HD
BRANCH   6  11
ATOM     11  N   UNL     1     -20.456 -43.610  25.304  1.00  0.00    -0.283 NA
ATOM     12  H   UNL     1     -20.613 -43.108  26.187  1.00  0.00     0.189 HD
ENDBRANCH   6  11
BRANCH   7  13
ATOM     13  C   UNL     1     -16.877 -40.988  22.030  1.00  0.00     0.103 C 
ATOM     14  N   UNL     1     -16.131 -40.480  21.301  1.00  0.00    -0.192 NA
ENDBRANCH   7  13
BRANCH   8  15
ATOM     15  C   UNL     1     -21.545 -42.162  22.929  1.00  0.00     0.103 C 
ATOM     16  N   UNL     1     -22.665 -42.120  22.630  1.00  0.00    -0.192 NA
ENDBRANCH   8  15
ENDBRANCH   2   4
ENDBRANCH   1   2
BRANCH   1  17
ATOM     17  C   UNL     1     -15.011 -43.572  26.283  1.00  0.00     0.021 C 
BRANCH  17  18
ATOM     18  C   UNL     1     -13.563 -43.189  26.624  1.00  0.00     0.006 C 
BRANCH  18  19
ATOM     19  C   UNL     1     -12.840 -44.238  27.492  1.00  0.00     0.000 C 
ATOM     20  C   UNL     1     -13.729 -44.797  28.613  1.00  0.00     0.065 C 
ATOM     21  C   UNL     1     -11.559 -43.627  28.087  1.00  0.00     0.065 C 
ATOM     22  C   UNL     1     -12.969 -45.765  29.515  1.00  0.00     0.262 C 
ATOM     23  C   UNL     1     -10.823 -44.611  28.987  1.00  0.00     0.262 C 
ATOM     24  N   UNL     1     -11.755 -45.072  30.077  1.00  0.00    -0.331 N 
ATOM     25  H   UNL     1     -12.093 -44.226  30.552  1.00  0.00     0.348 HD
BRANCH  24  26
ATOM     26  C   UNL     1     -11.061 -45.863  31.171  1.00  0.00     0.299 C 
BRANCH  26  27
ATOM     27  C   UNL     1      -9.699 -45.369  31.577  1.00  0.00     0.006 A 
ATOM     28  C   UNL     1      -9.550 -44.132  32.223  1.00  0.00     0.009 A 
ATOM     29  C   UNL     1      -8.552 -46.136  31.313  1.00  0.00     0.009 A 
ATOM     30  C   UNL     1      -8.284 -43.667  32.581  1.00  0.00     0.001 A 
ATOM     31  C   UNL     1      -7.288 -45.666  31.673  1.00  0.00     0.001 A 
ATOM     32  C   UNL     1      -7.154 -44.432  32.303  1.00  0.00     0.000 A 
ENDBRANCH  26  27
ENDBRANCH  24  26
ENDBRANCH  18  19
ENDBRANCH  17  18
ENDBRANCH   1  17
TORSDOF 10
ENDMDL
