MODEL 1
REMARK VINA RESULT:   -12.868      0.000      0.000
REMARK INTER + INTRA:         -19.855
REMARK INTER:                 -18.886
REMARK INTRA:                  -0.969
REMARK UNBOUND:                -0.969
REMARK SMILES Cc1cc(O)nc2c1C(=O)C(=NCCCCNc1c3c(nc4cc(Cl)ccc14)CCCC3)C=C2O
REMARK SMILES IDX 14 1 13 2 12 3 11 4 34 5 33 6 7 7 6 8 8 9 9 10 4 11 2 12
REMARK SMILES IDX 3 13 10 14 1 15 35 16 5 18 15 20 16 21 17 22 18 24 19 25
REMARK SMILES IDX 28 26 20 27 32 28 27 29 22 30 21 31 29 32 31 33 26 34 23 35
REMARK SMILES IDX 30 36 24 37 25 38
REMARK H PARENT 35 17 5 19 17 23
ROOT
ATOM      1  C   UNL     1     -12.739 -45.703  27.410  1.00  0.00     0.025 C 
ENDROOT
BRANCH   1   2
ATOM      2  C   UNL     1     -12.971 -44.217  27.683  1.00  0.00     0.143 C 
BRANCH   2   3
ATOM      3  N   UNL     1     -14.400 -43.962  27.766  1.00  0.00    -0.281 NA
BRANCH   3   4
ATOM      4  C   UNL     1     -14.995 -43.263  26.864  1.00  0.00     0.109 C 
ATOM      5  C   UNL     1     -15.312 -42.456  24.582  1.00  0.00     0.144 C 
ATOM      6  C   UNL     1     -14.473 -42.892  25.528  1.00  0.00     0.080 C 
ATOM      7  C   UNL     1     -16.771 -42.345  24.805  1.00  0.00     0.120 A 
ATOM      8  N   UNL     1     -17.530 -42.095  23.711  1.00  0.00    -0.210 NA
ATOM      9  C   UNL     1     -17.319 -42.484  26.080  1.00  0.00     0.057 A 
ATOM     10  C   UNL     1     -16.389 -42.738  27.199  1.00  0.00     0.213 C 
ATOM     11  C   UNL     1     -18.853 -41.968  23.887  1.00  0.00     0.211 A 
ATOM     12  C   UNL     1     -18.711 -42.355  26.246  1.00  0.00    -0.032 A 
ATOM     13  C   UNL     1     -19.486 -42.084  25.112  1.00  0.00     0.072 A 
ATOM     14  O   UNL     1     -16.689 -42.514  28.362  1.00  0.00    -0.287 OA
ATOM     15  C   UNL     1     -19.391 -42.485  27.580  1.00  0.00     0.045 C 
BRANCH   5  16
ATOM     16  O   UNL     1     -14.867 -42.110  23.319  1.00  0.00    -0.506 OA
ATOM     17  H   UNL     1     -14.963 -41.156  23.175  1.00  0.00     0.293 HD
ENDBRANCH   5  16
BRANCH  11  18
ATOM     18  O   UNL     1     -19.557 -41.713  22.749  1.00  0.00    -0.493 OA
ATOM     19  H   UNL     1     -19.326 -40.826  22.436  1.00  0.00     0.295 HD
ENDBRANCH  11  18
ENDBRANCH   3   4
ENDBRANCH   2   3
ENDBRANCH   1   2
BRANCH   1  20
ATOM     20  C   UNL     1     -12.382 -46.551  28.639  1.00  0.00     0.023 C 
BRANCH  20  21
ATOM     21  C   UNL     1     -11.032 -46.243  29.285  1.00  0.00     0.113 C 
BRANCH  21  22
ATOM     22  N   UNL     1     -11.118 -46.431  30.742  1.00  0.00    -0.384 N 
ATOM     23  H   UNL     1     -10.440 -47.122  31.050  1.00  0.00     0.160 HD
BRANCH  22  24
ATOM     24  C   UNL     1     -10.912 -45.210  31.448  1.00  0.00     0.049 A 
ATOM     25  C   UNL     1      -9.594 -44.851  31.794  1.00  0.00    -0.003 A 
ATOM     26  C   UNL     1     -12.000 -44.400  31.880  1.00  0.00     0.024 A 
ATOM     27  C   UNL     1      -9.411 -43.699  32.559  1.00  0.00     0.046 A 
ATOM     28  C   UNL     1      -8.420 -45.708  31.383  1.00  0.00     0.039 C 
ATOM     29  C   UNL     1     -13.363 -44.675  31.605  1.00  0.00     0.014 A 
ATOM     30  C   UNL     1     -11.688 -43.249  32.634  1.00  0.00     0.074 A 
ATOM     31  N   UNL     1     -10.434 -42.909  32.959  1.00  0.00    -0.252 NA
ATOM     32  C   UNL     1      -8.037 -43.215  32.946  1.00  0.00     0.056 C 
ATOM     33  C   UNL     1      -7.067 -45.007  31.510  1.00  0.00     0.005 C 
ATOM     34  C   UNL     1     -14.377 -43.833  32.058  1.00  0.00     0.021 A 
ATOM     35  C   UNL     1     -12.709 -42.421  33.074  1.00  0.00     0.049 A 
ATOM     36  C   UNL     1      -6.964 -44.294  32.850  1.00  0.00     0.007 C 
ATOM     37  C   UNL     1     -14.042 -42.704  32.791  1.00  0.00     0.043 A 
ATOM     38  Cl  UNL     1     -15.282 -41.653  33.355  1.00  0.00    -0.084 Cl
ENDBRANCH  22  24
ENDBRANCH  21  22
ENDBRANCH  20  21
ENDBRANCH   1  20
TORSDOF 9
ENDMDL
MODEL 2
REMARK VINA RESULT:   -11.820      1.425      2.307
REMARK INTER + INTRA:         -18.317
REMARK INTER:                 -17.417
REMARK INTRA:                  -0.900
REMARK UNBOUND:                -0.969
REMARK SMILES Cc1cc(O)nc2c1C(=O)C(=NCCCCNc1c3c(nc4cc(Cl)ccc14)CCCC3)C=C2O
REMARK SMILES IDX 14 1 13 2 12 3 11 4 34 5 33 6 7 7 6 8 8 9 9 10 4 11 2 12
REMARK SMILES IDX 3 13 10 14 1 15 35 16 5 18 15 20 16 21 17 22 18 24 19 25
REMARK SMILES IDX 28 26 20 27 32 28 27 29 22 30 21 31 29 32 31 33 26 34 23 35
REMARK SMILES IDX 30 36 24 37 25 38
REMARK H PARENT 35 17 5 19 17 23
ROOT
ATOM      1  C   UNL     1     -13.427 -45.008  26.974  1.00  0.00     0.025 C 
ENDROOT
BRANCH   1   2
ATOM      2  C   UNL     1     -13.036 -43.530  26.977  1.00  0.00     0.143 C 
BRANCH   2   3
ATOM      3  N   UNL     1     -14.073 -42.759  26.309  1.00  0.00    -0.281 NA
BRANCH   3   4
ATOM      4  C   UNL     1     -15.304 -42.870  26.663  1.00  0.00     0.109 C 
ATOM      5  C   UNL     1     -17.125 -42.790  28.288  1.00  0.00     0.144 C 
ATOM      6  C   UNL     1     -15.831 -43.020  28.040  1.00  0.00     0.080 C 
ATOM      7  C   UNL     1     -18.071 -42.364  27.233  1.00  0.00     0.120 A 
ATOM      8  N   UNL     1     -19.297 -41.963  27.649  1.00  0.00    -0.210 NA
ATOM      9  C   UNL     1     -17.709 -42.389  25.886  1.00  0.00     0.057 A 
ATOM     10  C   UNL     1     -16.352 -42.862  25.552  1.00  0.00     0.213 C 
ATOM     11  C   UNL     1     -20.181 -41.592  26.714  1.00  0.00     0.211 A 
ATOM     12  C   UNL     1     -18.649 -41.989  24.917  1.00  0.00    -0.032 A 
ATOM     13  C   UNL     1     -19.917 -41.588  25.355  1.00  0.00     0.072 A 
ATOM     14  O   UNL     1     -16.056 -43.269  24.439  1.00  0.00    -0.287 OA
ATOM     15  C   UNL     1     -18.351 -41.984  23.443  1.00  0.00     0.045 C 
BRANCH   5  16
ATOM     16  O   UNL     1     -17.654 -42.909  29.560  1.00  0.00    -0.506 OA
ATOM     17  H   UNL     1     -17.546 -42.081  30.052  1.00  0.00     0.293 HD
ENDBRANCH   5  16
BRANCH  11  18
ATOM     18  O   UNL     1     -21.395 -41.205  27.198  1.00  0.00    -0.493 OA
ATOM     19  H   UNL     1     -21.284 -40.924  28.117  1.00  0.00     0.295 HD
ENDBRANCH  11  18
ENDBRANCH   3   4
ENDBRANCH   2   3
ENDBRANCH   1   2
BRANCH   1  20
ATOM     20  C   UNL     1     -13.202 -45.751  28.298  1.00  0.00     0.023 C 
BRANCH  20  21
ATOM     21  C   UNL     1     -11.757 -45.791  28.797  1.00  0.00     0.113 C 
BRANCH  21  22
ATOM     22  N   UNL     1     -11.726 -46.200  30.210  1.00  0.00    -0.384 N 
ATOM     23  H   UNL     1     -11.106 -46.996  30.335  1.00  0.00     0.160 HD
BRANCH  22  24
ATOM     24  C   UNL     1     -11.315 -45.135  31.063  1.00  0.00     0.049 A 
ATOM     25  C   UNL     1      -9.940 -44.991  31.339  1.00  0.00    -0.003 A 
ATOM     26  C   UNL     1     -12.256 -44.278  31.701  1.00  0.00     0.024 A 
ATOM     27  C   UNL     1      -9.556 -43.999  32.242  1.00  0.00     0.046 A 
ATOM     28  C   UNL     1      -8.919 -45.907  30.707  1.00  0.00     0.039 C 
ATOM     29  C   UNL     1     -13.659 -44.345  31.511  1.00  0.00     0.014 A 
ATOM     30  C   UNL     1     -11.745 -43.301  32.582  1.00  0.00     0.074 A 
ATOM     31  N   UNL     1     -10.438 -43.165  32.840  1.00  0.00    -0.252 NA
ATOM     32  C   UNL     1      -8.108 -43.745  32.571  1.00  0.00     0.056 C 
ATOM     33  C   UNL     1      -7.482 -45.399  30.813  1.00  0.00     0.005 C 
ATOM     34  C   UNL     1     -14.521 -43.469  32.168  1.00  0.00     0.021 A 
ATOM     35  C   UNL     1     -12.617 -42.436  33.224  1.00  0.00     0.049 A 
ATOM     36  C   UNL     1      -7.194 -44.916  32.227  1.00  0.00     0.007 C 
ATOM     37  C   UNL     1     -13.992 -42.513  33.022  1.00  0.00     0.043 A 
ATOM     38  Cl  UNL     1     -15.043 -41.423  33.838  1.00  0.00    -0.084 Cl
ENDBRANCH  22  24
ENDBRANCH  21  22
ENDBRANCH  20  21
ENDBRANCH   1  20
TORSDOF 9
ENDMDL
MODEL 3
REMARK VINA RESULT:   -11.608      4.128     10.923
REMARK INTER + INTRA:         -18.007
REMARK INTER:                 -17.509
REMARK INTRA:                  -0.498
REMARK UNBOUND:                -0.969
REMARK SMILES Cc1cc(O)nc2c1C(=O)C(=NCCCCNc1c3c(nc4cc(Cl)ccc14)CCCC3)C=C2O
REMARK SMILES IDX 14 1 13 2 12 3 11 4 34 5 33 6 7 7 6 8 8 9 9 10 4 11 2 12
REMARK SMILES IDX 3 13 10 14 1 15 35 16 5 18 15 20 16 21 17 22 18 24 19 25
REMARK SMILES IDX 28 26 20 27 32 28 27 29 22 30 21 31 29 32 31 33 26 34 23 35
REMARK SMILES IDX 30 36 24 37 25 38
REMARK H PARENT 35 17 5 19 17 23
ROOT
ATOM      1  C   UNL     1     -14.517 -42.544  25.624  1.00  0.00     0.025 C 
ENDROOT
BRANCH   1   2
ATOM      2  C   UNL     1     -13.463 -43.534  26.119  1.00  0.00     0.143 C 
BRANCH   2   3
ATOM      3  N   UNL     1     -13.041 -43.156  27.458  1.00  0.00    -0.281 NA
BRANCH   3   4
ATOM      4  C   UNL     1     -11.805 -43.241  27.806  1.00  0.00     0.109 C 
ATOM      5  C   UNL     1      -9.526 -42.387  27.995  1.00  0.00     0.144 C 
ATOM      6  C   UNL     1     -10.677 -42.417  27.314  1.00  0.00     0.080 C 
ATOM      7  C   UNL     1      -9.330 -43.140  29.254  1.00  0.00     0.120 A 
ATOM      8  N   UNL     1      -8.202 -42.863  29.952  1.00  0.00    -0.210 NA
ATOM      9  C   UNL     1     -10.260 -44.087  29.681  1.00  0.00     0.057 A 
ATOM     10  C   UNL     1     -11.442 -44.316  28.828  1.00  0.00     0.213 C 
ATOM     11  C   UNL     1      -7.988 -43.545  31.086  1.00  0.00     0.211 A 
ATOM     12  C   UNL     1     -10.023 -44.790  30.878  1.00  0.00    -0.032 A 
ATOM     13  C   UNL     1      -8.849 -44.506  31.586  1.00  0.00     0.072 A 
ATOM     14  O   UNL     1     -12.110 -45.338  28.894  1.00  0.00    -0.287 OA
ATOM     15  C   UNL     1     -10.966 -45.830  31.416  1.00  0.00     0.045 C 
BRANCH   5  16
ATOM     16  O   UNL     1      -8.452 -41.623  27.576  1.00  0.00    -0.506 OA
ATOM     17  H   UNL     1      -8.295 -40.892  28.193  1.00  0.00     0.293 HD
ENDBRANCH   5  16
BRANCH  11  18
ATOM     18  O   UNL     1      -6.835 -43.223  31.736  1.00  0.00    -0.493 OA
ATOM     19  H   UNL     1      -6.548 -43.990  32.252  1.00  0.00     0.295 HD
ENDBRANCH  11  18
ENDBRANCH   3   4
ENDBRANCH   2   3
ENDBRANCH   1   2
BRANCH   1  20
ATOM     20  C   UNL     1     -15.291 -42.978  24.372  1.00  0.00     0.023 C 
BRANCH  20  21
ATOM     21  C   UNL     1     -16.175 -41.905  23.736  1.00  0.00     0.113 C 
BRANCH  21  22
ATOM     22  N   UNL     1     -17.403 -42.517  23.205  1.00  0.00    -0.384 N 
ATOM     23  H   UNL     1     -17.511 -43.462  23.562  1.00  0.00     0.160 HD
BRANCH  22  24
ATOM     24  C   UNL     1     -18.561 -41.749  23.524  1.00  0.00     0.049 A 
ATOM     25  C   UNL     1     -19.138 -41.907  24.800  1.00  0.00    -0.003 A 
ATOM     26  C   UNL     1     -19.187 -40.902  22.566  1.00  0.00     0.024 A 
ATOM     27  C   UNL     1     -20.319 -41.217  25.072  1.00  0.00     0.046 A 
ATOM     28  C   UNL     1     -18.518 -42.827  25.826  1.00  0.00     0.039 C 
ATOM     29  C   UNL     1     -18.705 -40.683  21.251  1.00  0.00     0.014 A 
ATOM     30  C   UNL     1     -20.369 -40.242  22.965  1.00  0.00     0.074 A 
ATOM     31  N   UNL     1     -20.914 -40.392  24.179  1.00  0.00    -0.252 NA
ATOM     32  C   UNL     1     -20.989 -41.294  26.420  1.00  0.00     0.056 C 
ATOM     33  C   UNL     1     -19.038 -42.609  27.247  1.00  0.00     0.005 C 
ATOM     34  C   UNL     1     -19.370 -39.835  20.368  1.00  0.00     0.021 A 
ATOM     35  C   UNL     1     -21.016 -39.400  22.074  1.00  0.00     0.049 A 
ATOM     36  C   UNL     1     -20.556 -42.502  27.244  1.00  0.00     0.007 C 
ATOM     37  C   UNL     1     -20.526 -39.193  20.788  1.00  0.00     0.043 A 
ATOM     38  Cl  UNL     1     -21.357 -38.141  19.710  1.00  0.00    -0.084 Cl
ENDBRANCH  22  24
ENDBRANCH  21  22
ENDBRANCH  20  21
ENDBRANCH   1  20
TORSDOF 9
ENDMDL
MODEL 4
REMARK VINA RESULT:   -11.063      3.687     10.730
REMARK INTER + INTRA:         -17.206
REMARK INTER:                 -16.771
REMARK INTRA:                  -0.435
REMARK UNBOUND:                -0.969
REMARK SMILES Cc1cc(O)nc2c1C(=O)C(=NCCCCNc1c3c(nc4cc(Cl)ccc14)CCCC3)C=C2O
REMARK SMILES IDX 14 1 13 2 12 3 11 4 34 5 33 6 7 7 6 8 8 9 9 10 4 11 2 12
REMARK SMILES IDX 3 13 10 14 1 15 35 16 5 18 15 20 16 21 17 22 18 24 19 25
REMARK SMILES IDX 28 26 20 27 32 28 27 29 22 30 21 31 29 32 31 33 26 34 23 35
REMARK SMILES IDX 30 36 24 37 25 38
REMARK H PARENT 35 17 5 19 17 23
ROOT
ATOM      1  C   UNL     1     -14.848 -43.758  25.807  1.00  0.00     0.025 C 
ENDROOT
BRANCH   1   2
ATOM      2  C   UNL     1     -13.638 -42.978  26.319  1.00  0.00     0.143 C 
BRANCH   2   3
ATOM      3  N   UNL     1     -13.155 -43.593  27.546  1.00  0.00    -0.281 NA
BRANCH   3   4
ATOM      4  C   UNL     1     -11.907 -43.549  27.855  1.00  0.00     0.109 C 
ATOM      5  C   UNL     1      -9.733 -42.449  28.010  1.00  0.00     0.144 C 
ATOM      6  C   UNL     1     -10.895 -42.586  27.361  1.00  0.00     0.080 C 
ATOM      7  C   UNL     1      -9.413 -43.216  29.235  1.00  0.00     0.120 A 
ATOM      8  N   UNL     1      -8.302 -42.836  29.910  1.00  0.00    -0.210 NA
ATOM      9  C   UNL     1     -10.218 -44.276  29.654  1.00  0.00     0.057 A 
ATOM     10  C   UNL     1     -11.394 -44.609  28.826  1.00  0.00     0.213 C 
ATOM     11  C   UNL     1      -7.976 -43.526  31.011  1.00  0.00     0.211 A 
ATOM     12  C   UNL     1      -9.865 -44.986  30.817  1.00  0.00    -0.032 A 
ATOM     13  C   UNL     1      -8.707 -44.594  31.501  1.00  0.00     0.072 A 
ATOM     14  O   UNL     1     -11.940 -45.701  28.874  1.00  0.00    -0.287 OA
ATOM     15  C   UNL     1     -10.667 -46.142  31.344  1.00  0.00     0.045 C 
BRANCH   5  16
ATOM     16  O   UNL     1      -8.766 -41.555  27.588  1.00  0.00    -0.506 OA
ATOM     17  H   UNL     1      -8.380 -41.844  26.747  1.00  0.00     0.293 HD
ENDBRANCH   5  16
BRANCH  11  18
ATOM     18  O   UNL     1      -6.846 -43.097  31.640  1.00  0.00    -0.493 OA
ATOM     19  H   UNL     1      -6.928 -43.289  32.585  1.00  0.00     0.295 HD
ENDBRANCH  11  18
ENDBRANCH   3   4
ENDBRANCH   2   3
ENDBRANCH   1   2
BRANCH   1  20
ATOM     20  C   UNL     1     -15.654 -43.070  24.695  1.00  0.00     0.023 C 
BRANCH  20  21
ATOM     21  C   UNL     1     -17.055 -42.602  25.087  1.00  0.00     0.113 C 
BRANCH  21  22
ATOM     22  N   UNL     1     -18.061 -43.277  24.251  1.00  0.00    -0.384 N 
ATOM     23  H   UNL     1     -18.168 -44.245  24.537  1.00  0.00     0.160 HD
BRANCH  22  24
ATOM     24  C   UNL     1     -19.324 -42.619  24.305  1.00  0.00     0.049 A 
ATOM     25  C   UNL     1     -19.559 -41.548  23.419  1.00  0.00    -0.003 A 
ATOM     26  C   UNL     1     -20.307 -42.959  25.277  1.00  0.00     0.024 A 
ATOM     27  C   UNL     1     -20.764 -40.856  23.537  1.00  0.00     0.046 A 
ATOM     28  C   UNL     1     -18.522 -41.138  22.400  1.00  0.00     0.039 C 
ATOM     29  C   UNL     1     -20.168 -44.003  26.226  1.00  0.00     0.014 A 
ATOM     30  C   UNL     1     -21.494 -42.196  25.288  1.00  0.00     0.074 A 
ATOM     31  N   UNL     1     -21.716 -41.182  24.443  1.00  0.00    -0.252 NA
ATOM     32  C   UNL     1     -21.121 -39.722  22.611  1.00  0.00     0.056 C 
ATOM     33  C   UNL     1     -19.063 -40.227  21.298  1.00  0.00     0.005 C 
ATOM     34  C   UNL     1     -21.176 -44.282  27.147  1.00  0.00     0.021 A 
ATOM     35  C   UNL     1     -22.487 -42.490  26.209  1.00  0.00     0.049 A 
ATOM     36  C   UNL     1     -19.916 -39.119  21.898  1.00  0.00     0.007 C 
ATOM     37  C   UNL     1     -22.336 -43.522  27.131  1.00  0.00     0.043 A 
ATOM     38  Cl  UNL     1     -23.591 -43.855  28.260  1.00  0.00    -0.084 Cl
ENDBRANCH  22  24
ENDBRANCH  21  22
ENDBRANCH  20  21
ENDBRANCH   1  20
TORSDOF 9
ENDMDL
MODEL 5
REMARK VINA RESULT:   -11.061      4.070     11.130
REMARK INTER + INTRA:         -17.204
REMARK INTER:                 -16.563
REMARK INTRA:                  -0.641
REMARK UNBOUND:                -0.969
REMARK SMILES Cc1cc(O)nc2c1C(=O)C(=NCCCCNc1c3c(nc4cc(Cl)ccc14)CCCC3)C=C2O
REMARK SMILES IDX 14 1 13 2 12 3 11 4 34 5 33 6 7 7 6 8 8 9 9 10 4 11 2 12
REMARK SMILES IDX 3 13 10 14 1 15 35 16 5 18 15 20 16 21 17 22 18 24 19 25
REMARK SMILES IDX 28 26 20 27 32 28 27 29 22 30 21 31 29 32 31 33 26 34 23 35
REMARK SMILES IDX 30 36 24 37 25 38
REMARK H PARENT 35 17 5 19 17 23
ROOT
ATOM      1  C   UNL     1     -15.524 -42.702  25.056  1.00  0.00     0.025 C 
ENDROOT
BRANCH   1   2
ATOM      2  C   UNL     1     -14.814 -43.888  25.707  1.00  0.00     0.143 C 
BRANCH   2   3
ATOM      3  N   UNL     1     -13.547 -43.441  26.265  1.00  0.00    -0.281 NA
BRANCH   3   4
ATOM      4  C   UNL     1     -13.117 -43.916  27.381  1.00  0.00     0.109 C 
ATOM      5  C   UNL     1     -13.040 -45.589  29.157  1.00  0.00     0.144 C 
ATOM      6  C   UNL     1     -13.752 -44.964  28.213  1.00  0.00     0.080 C 
ATOM      7  C   UNL     1     -11.611 -45.291  29.400  1.00  0.00     0.120 A 
ATOM      8  N   UNL     1     -10.953 -46.133  30.233  1.00  0.00    -0.210 NA
ATOM      9  C   UNL     1     -10.991 -44.193  28.803  1.00  0.00     0.057 A 
ATOM     10  C   UNL     1     -11.815 -43.336  27.928  1.00  0.00     0.213 C 
ATOM     11  C   UNL     1      -9.663 -45.875  30.488  1.00  0.00     0.211 A 
ATOM     12  C   UNL     1      -9.633 -43.940  29.076  1.00  0.00    -0.032 A 
ATOM     13  C   UNL     1      -8.965 -44.809  29.948  1.00  0.00     0.072 A 
ATOM     14  O   UNL     1     -11.504 -42.185  27.658  1.00  0.00    -0.287 OA
ATOM     15  C   UNL     1      -8.881 -42.782  28.482  1.00  0.00     0.045 C 
BRANCH   5  16
ATOM     16  O   UNL     1     -13.592 -46.579  29.949  1.00  0.00    -0.506 OA
ATOM     17  H   UNL     1     -14.322 -46.223  30.478  1.00  0.00     0.293 HD
ENDBRANCH   5  16
BRANCH  11  18
ATOM     18  O   UNL     1      -9.062 -46.755  31.336  1.00  0.00    -0.493 OA
ATOM     19  H   UNL     1      -8.153 -46.460  31.493  1.00  0.00     0.295 HD
ENDBRANCH  11  18
ENDBRANCH   3   4
ENDBRANCH   2   3
ENDBRANCH   1   2
BRANCH   1  20
ATOM     20  C   UNL     1     -15.767 -42.828  23.546  1.00  0.00     0.023 C 
BRANCH  20  21
ATOM     21  C   UNL     1     -16.674 -41.762  22.931  1.00  0.00     0.113 C 
BRANCH  21  22
ATOM     22  N   UNL     1     -17.979 -42.351  22.589  1.00  0.00    -0.384 N 
ATOM     23  H   UNL     1     -18.081 -43.263  23.025  1.00  0.00     0.160 HD
BRANCH  22  24
ATOM     24  C   UNL     1     -19.060 -41.509  22.981  1.00  0.00     0.049 A 
ATOM     25  C   UNL     1     -19.596 -41.668  24.275  1.00  0.00    -0.003 A 
ATOM     26  C   UNL     1     -19.657 -40.584  22.079  1.00  0.00     0.024 A 
ATOM     27  C   UNL     1     -20.709 -40.900  24.619  1.00  0.00     0.046 A 
ATOM     28  C   UNL     1     -19.009 -42.667  25.244  1.00  0.00     0.039 C 
ATOM     29  C   UNL     1     -19.212 -40.356  20.753  1.00  0.00     0.014 A 
ATOM     30  C   UNL     1     -20.768 -39.851  22.549  1.00  0.00     0.074 A 
ATOM     31  N   UNL     1     -21.273 -40.002  23.779  1.00  0.00    -0.252 NA
ATOM     32  C   UNL     1     -21.329 -40.973  25.991  1.00  0.00     0.056 C 
ATOM     33  C   UNL     1     -19.454 -42.460  26.692  1.00  0.00     0.005 C 
ATOM     34  C   UNL     1     -19.844 -39.429  19.926  1.00  0.00     0.021 A 
ATOM     35  C   UNL     1     -21.382 -38.931  21.713  1.00  0.00     0.049 A 
ATOM     36  C   UNL     1     -20.958 -42.239  26.757  1.00  0.00     0.007 C 
ATOM     37  C   UNL     1     -20.929 -38.717  20.414  1.00  0.00     0.043 A 
ATOM     38  Cl  UNL     1     -21.719 -37.568  19.407  1.00  0.00    -0.084 Cl
ENDBRANCH  22  24
ENDBRANCH  21  22
ENDBRANCH  20  21
ENDBRANCH   1  20
TORSDOF 9
ENDMDL
MODEL 6
REMARK VINA RESULT:   -10.887      1.960      3.711
REMARK INTER + INTRA:         -16.948
REMARK INTER:                 -16.604
REMARK INTRA:                  -0.344
REMARK UNBOUND:                -0.969
REMARK SMILES Cc1cc(O)nc2c1C(=O)C(=NCCCCNc1c3c(nc4cc(Cl)ccc14)CCCC3)C=C2O
REMARK SMILES IDX 14 1 13 2 12 3 11 4 34 5 33 6 7 7 6 8 8 9 9 10 4 11 2 12
REMARK SMILES IDX 3 13 10 14 1 15 35 16 5 18 15 20 16 21 17 22 18 24 19 25
REMARK SMILES IDX 28 26 20 27 32 28 27 29 22 30 21 31 29 32 31 33 26 34 23 35
REMARK SMILES IDX 30 36 24 37 25 38
REMARK H PARENT 35 17 5 19 17 23
ROOT
ATOM      1  C   UNL     1     -13.049 -44.736  27.252  1.00  0.00     0.025 C 
ENDROOT
BRANCH   1   2
ATOM      2  C   UNL     1     -13.820 -43.504  26.780  1.00  0.00     0.143 C 
BRANCH   2   3
ATOM      3  N   UNL     1     -14.839 -43.912  25.826  1.00  0.00    -0.281 NA
BRANCH   3   4
ATOM      4  C   UNL     1     -15.502 -43.035  25.159  1.00  0.00     0.109 C 
ATOM      5  C   UNL     1     -15.982 -41.711  23.164  1.00  0.00     0.144 C 
ATOM      6  C   UNL     1     -15.076 -42.336  23.924  1.00  0.00     0.080 C 
ATOM      7  C   UNL     1     -17.424 -41.703  23.495  1.00  0.00     0.120 A 
ATOM      8  N   UNL     1     -18.258 -41.219  22.543  1.00  0.00    -0.210 NA
ATOM      9  C   UNL     1     -17.885 -42.163  24.729  1.00  0.00     0.057 A 
ATOM     10  C   UNL     1     -16.879 -42.650  25.694  1.00  0.00     0.213 C 
ATOM     11  C   UNL     1     -19.568 -41.180  22.823  1.00  0.00     0.211 A 
ATOM     12  C   UNL     1     -19.265 -42.121  25.005  1.00  0.00    -0.032 A 
ATOM     13  C   UNL     1     -20.117 -41.608  24.019  1.00  0.00     0.072 A 
ATOM     14  O   UNL     1     -17.105 -42.724  26.893  1.00  0.00    -0.287 OA
ATOM     15  C   UNL     1     -19.853 -42.591  26.305  1.00  0.00     0.045 C 
BRANCH   5  16
ATOM     16  O   UNL     1     -15.627 -41.056  22.000  1.00  0.00    -0.506 OA
ATOM     17  H   UNL     1     -15.028 -40.318  22.194  1.00  0.00     0.293 HD
ENDBRANCH   5  16
BRANCH  11  18
ATOM     18  O   UNL     1     -20.350 -40.679  21.827  1.00  0.00    -0.493 OA
ATOM     19  H   UNL     1     -20.611 -39.778  22.064  1.00  0.00     0.295 HD
ENDBRANCH  11  18
ENDBRANCH   3   4
ENDBRANCH   2   3
ENDBRANCH   1   2
BRANCH   1  20
ATOM     20  C   UNL     1     -12.977 -44.926  28.774  1.00  0.00     0.023 C 
BRANCH  20  21
ATOM     21  C   UNL     1     -11.583 -45.187  29.342  1.00  0.00     0.113 C 
BRANCH  21  22
ATOM     22  N   UNL     1     -11.689 -45.675  30.727  1.00  0.00    -0.384 N 
ATOM     23  H   UNL     1     -11.087 -46.482  30.865  1.00  0.00     0.160 HD
BRANCH  22  24
ATOM     24  C   UNL     1     -11.359 -44.662  31.674  1.00  0.00     0.049 A 
ATOM     25  C   UNL     1     -12.405 -43.899  32.230  1.00  0.00    -0.003 A 
ATOM     26  C   UNL     1     -10.009 -44.353  32.002  1.00  0.00     0.024 A 
ATOM     27  C   UNL     1     -12.066 -42.855  33.089  1.00  0.00     0.046 A 
ATOM     28  C   UNL     1     -13.847 -44.178  31.873  1.00  0.00     0.039 C 
ATOM     29  C   UNL     1      -8.881 -45.042  31.489  1.00  0.00     0.014 A 
ATOM     30  C   UNL     1      -9.792 -43.284  32.898  1.00  0.00     0.074 A 
ATOM     31  N   UNL     1     -10.788 -42.563  33.426  1.00  0.00    -0.252 NA
ATOM     32  C   UNL     1     -13.116 -42.007  33.761  1.00  0.00     0.056 C 
ATOM     33  C   UNL     1     -14.855 -43.525  32.819  1.00  0.00     0.005 C 
ATOM     34  C   UNL     1      -7.585 -44.686  31.860  1.00  0.00     0.021 A 
ATOM     35  C   UNL     1      -8.496 -42.946  33.257  1.00  0.00     0.049 A 
ATOM     36  C   UNL     1     -14.477 -42.074  33.077  1.00  0.00     0.007 C 
ATOM     37  C   UNL     1      -7.400 -43.636  32.747  1.00  0.00     0.043 A 
ATOM     38  Cl  UNL     1      -5.807 -43.185  33.215  1.00  0.00    -0.084 Cl
ENDBRANCH  22  24
ENDBRANCH  21  22
ENDBRANCH  20  21
ENDBRANCH   1  20
TORSDOF 9
ENDMDL
MODEL 7
REMARK VINA RESULT:   -10.462      3.708     10.102
REMARK INTER + INTRA:         -16.324
REMARK INTER:                 -16.138
REMARK INTRA:                  -0.185
REMARK UNBOUND:                -0.969
REMARK SMILES Cc1cc(O)nc2c1C(=O)C(=NCCCCNc1c3c(nc4cc(Cl)ccc14)CCCC3)C=C2O
REMARK SMILES IDX 14 1 13 2 12 3 11 4 34 5 33 6 7 7 6 8 8 9 9 10 4 11 2 12
REMARK SMILES IDX 3 13 10 14 1 15 35 16 5 18 15 20 16 21 17 22 18 24 19 25
REMARK SMILES IDX 28 26 20 27 32 28 27 29 22 30 21 31 29 32 31 33 26 34 23 35
REMARK SMILES IDX 30 36 24 37 25 38
REMARK H PARENT 35 17 5 19 17 23
ROOT
ATOM      1  C   UNL     1     -14.840 -43.635  30.832  1.00  0.00     0.025 C 
ENDROOT
BRANCH   1   2
ATOM      2  C   UNL     1     -14.482 -43.648  32.318  1.00  0.00     0.143 C 
BRANCH   2   3
ATOM      3  N   UNL     1     -13.261 -44.416  32.509  1.00  0.00    -0.281 NA
BRANCH   3   4
ATOM      4  C   UNL     1     -12.113 -43.837  32.499  1.00  0.00     0.109 C 
ATOM      5  C   UNL     1     -10.446 -42.276  33.362  1.00  0.00     0.144 C 
ATOM      6  C   UNL     1     -11.737 -42.579  33.186  1.00  0.00     0.080 C 
ATOM      7  C   UNL     1      -9.353 -43.166  32.911  1.00  0.00     0.120 A 
ATOM      8  N   UNL     1      -8.105 -42.848  33.333  1.00  0.00    -0.210 NA
ATOM      9  C   UNL     1      -9.609 -44.263  32.089  1.00  0.00     0.057 A 
ATOM     10  C   UNL     1     -11.007 -44.498  31.679  1.00  0.00     0.213 C 
ATOM     11  C   UNL     1      -7.093 -43.625  32.922  1.00  0.00     0.211 A 
ATOM     12  C   UNL     1      -8.534 -45.072  31.672  1.00  0.00    -0.032 A 
ATOM     13  C   UNL     1      -7.247 -44.729  32.103  1.00  0.00     0.072 A 
ATOM     14  O   UNL     1     -11.298 -45.171  30.702  1.00  0.00    -0.287 OA
ATOM     15  C   UNL     1      -8.712 -46.273  30.785  1.00  0.00     0.045 C 
BRANCH   5  16
ATOM     16  O   UNL     1     -10.053 -41.117  34.007  1.00  0.00    -0.506 OA
ATOM     17  H   UNL     1      -9.088 -41.093  34.104  1.00  0.00     0.293 HD
ENDBRANCH   5  16
BRANCH  11  18
ATOM     18  O   UNL     1      -5.865 -43.249  33.377  1.00  0.00    -0.493 OA
ATOM     19  H   UNL     1      -5.191 -43.753  32.897  1.00  0.00     0.295 HD
ENDBRANCH  11  18
ENDBRANCH   3   4
ENDBRANCH   2   3
ENDBRANCH   1   2
BRANCH   1  20
ATOM     20  C   UNL     1     -16.066 -42.790  30.458  1.00  0.00     0.023 C 
BRANCH  20  21
ATOM     21  C   UNL     1     -16.772 -43.188  29.162  1.00  0.00     0.113 C 
BRANCH  21  22
ATOM     22  N   UNL     1     -17.182 -41.982  28.424  1.00  0.00    -0.384 N 
ATOM     23  H   UNL     1     -16.475 -41.257  28.509  1.00  0.00     0.160 HD
BRANCH  22  24
ATOM     24  C   UNL     1     -17.420 -42.258  27.046  1.00  0.00     0.049 A 
ATOM     25  C   UNL     1     -16.354 -42.755  26.269  1.00  0.00    -0.003 A 
ATOM     26  C   UNL     1     -18.669 -41.967  26.427  1.00  0.00     0.024 A 
ATOM     27  C   UNL     1     -16.573 -42.941  24.904  1.00  0.00     0.046 A 
ATOM     28  C   UNL     1     -15.006 -43.039  26.888  1.00  0.00     0.039 C 
ATOM     29  C   UNL     1     -19.800 -41.450  27.107  1.00  0.00     0.014 A 
ATOM     30  C   UNL     1     -18.774 -42.214  25.041  1.00  0.00     0.074 A 
ATOM     31  N   UNL     1     -17.761 -42.688  24.307  1.00  0.00    -0.252 NA
ATOM     32  C   UNL     1     -15.506 -43.503  24.000  1.00  0.00     0.056 C 
ATOM     33  C   UNL     1     -14.094 -43.901  26.015  1.00  0.00     0.005 C 
ATOM     34  C   UNL     1     -20.993 -41.193  26.435  1.00  0.00     0.021 A 
ATOM     35  C   UNL     1     -19.970 -41.955  24.390  1.00  0.00     0.049 A 
ATOM     36  C   UNL     1     -14.101 -43.394  24.581  1.00  0.00     0.007 C 
ATOM     37  C   UNL     1     -21.072 -41.450  25.074  1.00  0.00     0.043 A 
ATOM     38  Cl  UNL     1     -22.539 -41.140  24.231  1.00  0.00    -0.084 Cl
ENDBRANCH  22  24
ENDBRANCH  21  22
ENDBRANCH  20  21
ENDBRANCH   1  20
TORSDOF 9
ENDMDL
MODEL 8
REMARK VINA RESULT:   -10.310      2.337      3.528
REMARK INTER + INTRA:         -16.101
REMARK INTER:                 -15.372
REMARK INTRA:                  -0.729
REMARK UNBOUND:                -0.969
REMARK SMILES Cc1cc(O)nc2c1C(=O)C(=NCCCCNc1c3c(nc4cc(Cl)ccc14)CCCC3)C=C2O
REMARK SMILES IDX 14 1 13 2 12 3 11 4 34 5 33 6 7 7 6 8 8 9 9 10 4 11 2 12
REMARK SMILES IDX 3 13 10 14 1 15 35 16 5 18 15 20 16 21 17 22 18 24 19 25
REMARK SMILES IDX 28 26 20 27 32 28 27 29 22 30 21 31 29 32 31 33 26 34 23 35
REMARK SMILES IDX 30 36 24 37 25 38
REMARK H PARENT 35 17 5 19 17 23
ROOT
ATOM      1  C   UNL     1     -13.091 -45.614  27.031  1.00  0.00     0.025 C 
ENDROOT
BRANCH   1   2
ATOM      2  C   UNL     1     -14.196 -44.662  27.487  1.00  0.00     0.143 C 
BRANCH   2   3
ATOM      3  N   UNL     1     -13.904 -43.321  27.004  1.00  0.00    -0.281 NA
BRANCH   3   4
ATOM      4  C   UNL     1     -14.704 -42.727  26.191  1.00  0.00     0.109 C 
ATOM      5  C   UNL     1     -15.392 -41.948  23.982  1.00  0.00     0.144 C 
ATOM      6  C   UNL     1     -14.397 -42.239  24.827  1.00  0.00     0.080 C 
ATOM      7  C   UNL     1     -16.817 -42.115  24.348  1.00  0.00     0.120 A 
ATOM      8  N   UNL     1     -17.715 -41.989  23.341  1.00  0.00    -0.210 NA
ATOM      9  C   UNL     1     -17.198 -42.380  25.663  1.00  0.00     0.057 A 
ATOM     10  C   UNL     1     -16.130 -42.478  26.677  1.00  0.00     0.213 C 
ATOM     11  C   UNL     1     -19.014 -42.115  23.647  1.00  0.00     0.211 A 
ATOM     12  C   UNL     1     -18.567 -42.515  25.965  1.00  0.00    -0.032 A 
ATOM     13  C   UNL     1     -19.489 -42.371  24.921  1.00  0.00     0.072 A 
ATOM     14  O   UNL     1     -16.347 -42.338  27.872  1.00  0.00    -0.287 OA
ATOM     15  C   UNL     1     -19.073 -42.797  27.352  1.00  0.00     0.045 C 
BRANCH   5  16
ATOM     16  O   UNL     1     -15.148 -41.499  22.697  1.00  0.00    -0.506 OA
ATOM     17  H   UNL     1     -15.978 -41.419  22.202  1.00  0.00     0.293 HD
ENDBRANCH   5  16
BRANCH  11  18
ATOM     18  O   UNL     1     -19.865 -41.972  22.593  1.00  0.00    -0.493 OA
ATOM     19  H   UNL     1     -19.352 -42.030  21.773  1.00  0.00     0.295 HD
ENDBRANCH  11  18
ENDBRANCH   3   4
ENDBRANCH   2   3
ENDBRANCH   1   2
BRANCH   1  20
ATOM     20  C   UNL     1     -12.708 -46.708  28.036  1.00  0.00     0.023 C 
BRANCH  20  21
ATOM     21  C   UNL     1     -13.339 -46.583  29.423  1.00  0.00     0.113 C 
BRANCH  21  22
ATOM     22  N   UNL     1     -12.290 -46.405  30.438  1.00  0.00    -0.384 N 
ATOM     23  H   UNL     1     -11.431 -46.860  30.143  1.00  0.00     0.160 HD
BRANCH  22  24
ATOM     24  C   UNL     1     -12.035 -45.028  30.703  1.00  0.00     0.049 A 
ATOM     25  C   UNL     1     -12.812 -44.381  31.685  1.00  0.00    -0.003 A 
ATOM     26  C   UNL     1     -11.086 -44.281  29.949  1.00  0.00     0.024 A 
ATOM     27  C   UNL     1     -12.614 -43.013  31.877  1.00  0.00     0.046 A 
ATOM     28  C   UNL     1     -13.853 -45.136  32.477  1.00  0.00     0.039 C 
ATOM     29  C   UNL     1     -10.266 -44.825  28.928  1.00  0.00     0.014 A 
ATOM     30  C   UNL     1     -10.963 -42.907  30.247  1.00  0.00     0.074 A 
ATOM     31  N   UNL     1     -11.701 -42.296  31.182  1.00  0.00    -0.252 NA
ATOM     32  C   UNL     1     -13.370 -42.243  32.929  1.00  0.00     0.056 C 
ATOM     33  C   UNL     1     -14.336 -44.399  33.726  1.00  0.00     0.005 C 
ATOM     34  C   UNL     1      -9.354 -44.032  28.234  1.00  0.00     0.021 A 
ATOM     35  C   UNL     1     -10.049 -42.135  29.547  1.00  0.00     0.049 A 
ATOM     36  C   UNL     1     -14.640 -42.945  33.398  1.00  0.00     0.007 C 
ATOM     37  C   UNL     1      -9.249 -42.686  28.551  1.00  0.00     0.043 A 
ATOM     38  Cl  UNL     1      -8.126 -41.695  27.704  1.00  0.00    -0.084 Cl
ENDBRANCH  22  24
ENDBRANCH  21  22
ENDBRANCH  20  21
ENDBRANCH   1  20
TORSDOF 9
ENDMDL
MODEL 9
REMARK VINA RESULT:    -9.957      3.575     10.799
REMARK INTER + INTRA:         -15.583
REMARK INTER:                 -14.945
REMARK INTRA:                  -0.638
REMARK UNBOUND:                -0.969
REMARK SMILES Cc1cc(O)nc2c1C(=O)C(=NCCCCNc1c3c(nc4cc(Cl)ccc14)CCCC3)C=C2O
REMARK SMILES IDX 14 1 13 2 12 3 11 4 34 5 33 6 7 7 6 8 8 9 9 10 4 11 2 12
REMARK SMILES IDX 3 13 10 14 1 15 35 16 5 18 15 20 16 21 17 22 18 24 19 25
REMARK SMILES IDX 28 26 20 27 32 28 27 29 22 30 21 31 29 32 31 33 26 34 23 35
REMARK SMILES IDX 30 36 24 37 25 38
REMARK H PARENT 35 17 5 19 17 23
ROOT
ATOM      1  C   UNL     1     -15.423 -42.665  25.520  1.00  0.00     0.025 C 
ENDROOT
BRANCH   1   2
ATOM      2  C   UNL     1     -14.330 -42.793  26.581  1.00  0.00     0.143 C 
BRANCH   2   3
ATOM      3  N   UNL     1     -14.730 -43.788  27.563  1.00  0.00    -0.281 NA
BRANCH   3   4
ATOM      4  C   UNL     1     -13.898 -44.683  27.967  1.00  0.00     0.109 C 
ATOM      5  C   UNL     1     -12.148 -46.351  27.625  1.00  0.00     0.144 C 
ATOM      6  C   UNL     1     -13.222 -45.714  27.145  1.00  0.00     0.080 C 
ATOM      7  C   UNL     1     -11.580 -46.053  28.958  1.00  0.00     0.120 A 
ATOM      8  N   UNL     1     -10.378 -46.612  29.239  1.00  0.00    -0.210 NA
ATOM      9  C   UNL     1     -12.262 -45.247  29.870  1.00  0.00     0.057 A 
ATOM     10  C   UNL     1     -13.573 -44.709  29.458  1.00  0.00     0.213 C 
ATOM     11  C   UNL     1      -9.849 -46.377  30.448  1.00  0.00     0.211 A 
ATOM     12  C   UNL     1     -11.688 -45.005  31.133  1.00  0.00    -0.032 A 
ATOM     13  C   UNL     1     -10.452 -45.597  31.419  1.00  0.00     0.072 A 
ATOM     14  O   UNL     1     -14.403 -44.318  30.266  1.00  0.00    -0.287 OA
ATOM     15  C   UNL     1     -12.348 -44.153  32.180  1.00  0.00     0.045 C 
BRANCH   5  16
ATOM     16  O   UNL     1     -11.482 -47.312  26.886  1.00  0.00    -0.506 OA
ATOM     17  H   UNL     1     -10.778 -46.906  26.357  1.00  0.00     0.293 HD
ENDBRANCH   5  16
BRANCH  11  18
ATOM     18  O   UNL     1      -8.643 -46.972  30.668  1.00  0.00    -0.493 OA
ATOM     19  H   UNL     1      -8.324 -47.340  29.832  1.00  0.00     0.295 HD
ENDBRANCH  11  18
ENDBRANCH   3   4
ENDBRANCH   2   3
ENDBRANCH   1   2
BRANCH   1  20
ATOM     20  C   UNL     1     -16.862 -42.798  26.038  1.00  0.00     0.023 C 
BRANCH  20  21
ATOM     21  C   UNL     1     -17.962 -42.536  25.010  1.00  0.00     0.113 C 
BRANCH  21  22
ATOM     22  N   UNL     1     -18.983 -41.645  25.583  1.00  0.00    -0.384 N 
ATOM     23  H   UNL     1     -18.821 -40.686  25.290  1.00  0.00     0.160 HD
BRANCH  22  24
ATOM     24  C   UNL     1     -20.302 -42.043  25.215  1.00  0.00     0.049 A 
ATOM     25  C   UNL     1     -20.888 -41.447  24.080  1.00  0.00    -0.003 A 
ATOM     26  C   UNL     1     -21.060 -42.951  26.007  1.00  0.00     0.024 A 
ATOM     27  C   UNL     1     -22.208 -41.778  23.778  1.00  0.00     0.046 A 
ATOM     28  C   UNL     1     -20.122 -40.452  23.240  1.00  0.00     0.039 C 
ATOM     29  C   UNL     1     -20.578 -43.592  27.175  1.00  0.00     0.014 A 
ATOM     30  C   UNL     1     -22.381 -43.221  25.590  1.00  0.00     0.074 A 
ATOM     31  N   UNL     1     -22.934 -42.655  24.510  1.00  0.00    -0.252 NA
ATOM     32  C   UNL     1     -22.907 -41.222  22.564  1.00  0.00     0.056 C 
ATOM     33  C   UNL     1     -20.747 -40.187  21.871  1.00  0.00     0.005 C 
ATOM     34  C   UNL     1     -21.378 -44.475  27.898  1.00  0.00     0.021 A 
ATOM     35  C   UNL     1     -23.162 -44.103  26.320  1.00  0.00     0.049 A 
ATOM     36  C   UNL     1     -22.246 -39.966  22.007  1.00  0.00     0.007 C 
ATOM     37  C   UNL     1     -22.671 -44.728  27.463  1.00  0.00     0.043 A 
ATOM     38  Cl  UNL     1     -23.670 -45.816  28.344  1.00  0.00    -0.084 Cl
ENDBRANCH  22  24
ENDBRANCH  21  22
ENDBRANCH  20  21
ENDBRANCH   1  20
TORSDOF 9
ENDMDL
