MODEL 1
REMARK VINA RESULT:   -10.767      0.000      0.000
REMARK INTER + INTRA:         -11.082
REMARK INTER:                 -11.082
REMARK INTRA:                   0.000
REMARK UNBOUND:                 0.000
REMARK SMILES CC1=C[C@H]2Cc3nc4cc(Cl)ccc4c(N)c3[C@@H](C1)C2
REMARK SMILES IDX 1 1 2 2 3 3 4 4 5 5 6 6 7 7 8 8 9 9 10 10 11 11 12 12 13 13
REMARK SMILES IDX 14 14 15 15 17 16 18 17 19 18 20 19 16 20
REMARK H PARENT 16 21 16 22
ROOT
ATOM      1  C   UNL     1     -12.073 -46.278  27.463  1.00  0.00     0.039 C 
ATOM      2  C   UNL     1     -11.330 -46.381  28.770  1.00  0.00    -0.076 C 
ATOM      3  C   UNL     1     -10.055 -46.697  28.752  1.00  0.00    -0.024 C 
ATOM      4  C   UNL     1      -9.207 -44.632  30.833  1.00  0.00     0.018 C 
ATOM      5  C   UNL     1      -9.328 -44.772  29.360  1.00  0.00     0.064 C 
ATOM      6  C   UNL     1     -10.796 -44.677  29.147  1.00  0.00     0.047 A 
ATOM      7  N   UNL     1     -11.252 -44.029  28.059  1.00  0.00    -0.252 NA
ATOM      8  C   UNL     1     -12.569 -43.909  27.812  1.00  0.00     0.074 A 
ATOM      9  C   UNL     1     -12.943 -43.235  26.683  1.00  0.00     0.049 A 
ATOM     10  C   UNL     1     -14.306 -43.100  26.409  1.00  0.00     0.043 A 
ATOM     11  Cl  UNL     1     -14.784 -42.224  24.946  1.00  0.00    -0.084 Cl
ATOM     12  C   UNL     1     -15.273 -43.625  27.242  1.00  0.00     0.021 A 
ATOM     13  C   UNL     1     -14.885 -44.305  28.380  1.00  0.00     0.014 A 
ATOM     14  C   UNL     1     -13.539 -44.439  28.651  1.00  0.00     0.024 A 
ATOM     15  C   UNL     1     -13.085 -45.109  29.774  1.00  0.00     0.046 A 
ATOM     16  C   UNL     1     -11.724 -45.219  30.008  1.00  0.00     0.001 A 
ATOM     17  C   UNL     1     -11.270 -45.942  31.221  1.00  0.00     0.028 C 
ATOM     18  C   UNL     1     -12.113 -46.110  29.995  1.00  0.00     0.039 C 
ATOM     19  C   UNL     1      -9.819 -45.762  31.627  1.00  0.00     0.017 C 
ENDROOT
BRANCH  15  20
ATOM     20  N   UNL     1     -14.030 -45.678  30.680  1.00  0.00    -0.398 N 
ATOM     21  H   UNL     1     -14.700 -45.098  31.236  1.00  0.00     0.156 HD
ATOM     22  H   UNL     1     -14.096 -46.721  30.829  1.00  0.00     0.156 HD
ENDBRANCH  15  20
TORSDOF 1
ENDMDL
MODEL 2
REMARK VINA RESULT:   -10.394      1.738      3.451
REMARK INTER + INTRA:         -10.698
REMARK INTER:                 -10.698
REMARK INTRA:                   0.000
REMARK UNBOUND:                 0.000
REMARK SMILES CC1=C[C@H]2Cc3nc4cc(Cl)ccc4c(N)c3[C@@H](C1)C2
REMARK SMILES IDX 1 1 2 2 3 3 4 4 5 5 6 6 7 7 8 8 9 9 10 10 11 11 12 12 13 13
REMARK SMILES IDX 14 14 15 15 17 16 18 17 19 18 20 19 16 20
REMARK H PARENT 16 21 16 22
ROOT
ATOM      1  C   UNL     1     -11.505 -43.259  30.904  1.00  0.00     0.039 C 
ATOM      2  C   UNL     1     -10.132 -43.732  31.308  1.00  0.00    -0.076 C 
ATOM      3  C   UNL     1      -9.999 -44.422  32.418  1.00  0.00    -0.024 C 
ATOM      4  C   UNL     1      -8.085 -46.495  31.254  1.00  0.00     0.018 C 
ATOM      5  C   UNL     1      -9.540 -46.294  31.477  1.00  0.00     0.064 C 
ATOM      6  C   UNL     1      -9.894 -45.310  30.421  1.00  0.00     0.047 A 
ATOM      7  N   UNL     1     -11.083 -45.426  29.801  1.00  0.00    -0.252 NA
ATOM      8  C   UNL     1     -11.461 -44.565  28.837  1.00  0.00     0.074 A 
ATOM      9  C   UNL     1     -12.685 -44.758  28.261  1.00  0.00     0.049 A 
ATOM     10  C   UNL     1     -13.095 -43.875  27.259  1.00  0.00     0.043 A 
ATOM     11  Cl  UNL     1     -14.682 -44.130  26.515  1.00  0.00    -0.084 Cl
ATOM     12  C   UNL     1     -12.302 -42.825  26.841  1.00  0.00     0.021 A 
ATOM     13  C   UNL     1     -11.066 -42.639  27.431  1.00  0.00     0.014 A 
ATOM     14  C   UNL     1     -10.661 -43.511  28.420  1.00  0.00     0.024 A 
ATOM     15  C   UNL     1      -9.435 -43.379  29.050  1.00  0.00     0.046 A 
ATOM     16  C   UNL     1      -9.068 -44.276  30.039  1.00  0.00     0.001 A 
ATOM     17  C   UNL     1      -7.748 -44.108  30.694  1.00  0.00     0.028 C 
ATOM     18  C   UNL     1      -9.019 -43.375  30.400  1.00  0.00     0.039 C 
ATOM     19  C   UNL     1      -7.233 -45.276  31.516  1.00  0.00     0.017 C 
ENDROOT
BRANCH  15  20
ATOM     20  N   UNL     1      -8.563 -42.315  28.670  1.00  0.00    -0.398 N 
ATOM     21  H   UNL     1      -7.681 -42.473  28.128  1.00  0.00     0.156 HD
ATOM     22  H   UNL     1      -8.771 -41.311  28.920  1.00  0.00     0.156 HD
ENDBRANCH  15  20
TORSDOF 1
ENDMDL
MODEL 3
REMARK VINA RESULT:   -10.212      3.539      4.387
REMARK INTER + INTRA:         -10.510
REMARK INTER:                 -10.510
REMARK INTRA:                   0.000
REMARK UNBOUND:                 0.000
REMARK SMILES CC1=C[C@H]2Cc3nc4cc(Cl)ccc4c(N)c3[C@@H](C1)C2
REMARK SMILES IDX 1 1 2 2 3 3 4 4 5 5 6 6 7 7 8 8 9 9 10 10 11 11 12 12 13 13
REMARK SMILES IDX 14 14 15 15 17 16 18 17 19 18 20 19 16 20
REMARK H PARENT 16 21 16 22
ROOT
ATOM      1  C   UNL     1     -10.809 -42.904  30.178  1.00  0.00     0.039 C 
ATOM      2  C   UNL     1      -9.601 -43.802  30.276  1.00  0.00    -0.076 C 
ATOM      3  C   UNL     1      -8.407 -43.281  30.105  1.00  0.00    -0.024 C 
ATOM      4  C   UNL     1      -7.099 -44.766  32.428  1.00  0.00     0.018 C 
ATOM      5  C   UNL     1      -7.774 -43.474  32.146  1.00  0.00     0.064 C 
ATOM      6  C   UNL     1      -9.204 -43.871  32.056  1.00  0.00     0.047 A 
ATOM      7  N   UNL     1     -10.139 -43.038  32.550  1.00  0.00    -0.252 NA
ATOM      8  C   UNL     1     -11.449 -43.341  32.497  1.00  0.00     0.074 A 
ATOM      9  C   UNL     1     -12.329 -42.437  33.023  1.00  0.00     0.049 A 
ATOM     10  C   UNL     1     -13.694 -42.733  32.978  1.00  0.00     0.043 A 
ATOM     11  Cl  UNL     1     -14.829 -41.559  33.662  1.00  0.00    -0.084 Cl
ATOM     12  C   UNL     1     -14.168 -43.904  32.422  1.00  0.00     0.021 A 
ATOM     13  C   UNL     1     -13.270 -44.811  31.894  1.00  0.00     0.014 A 
ATOM     14  C   UNL     1     -11.923 -44.519  31.938  1.00  0.00     0.024 A 
ATOM     15  C   UNL     1     -10.972 -45.385  31.425  1.00  0.00     0.046 A 
ATOM     16  C   UNL     1      -9.630 -45.052  31.490  1.00  0.00     0.001 A 
ATOM     17  C   UNL     1      -8.636 -46.002  30.932  1.00  0.00     0.028 C 
ATOM     18  C   UNL     1      -9.864 -45.229  30.563  1.00  0.00     0.039 C 
ATOM     19  C   UNL     1      -7.183 -45.779  31.311  1.00  0.00     0.017 C 
ENDROOT
BRANCH  15  20
ATOM     20  N   UNL     1     -11.392 -46.615  30.834  1.00  0.00    -0.398 N 
ATOM     21  H   UNL     1     -12.393 -46.921  30.818  1.00  0.00     0.156 HD
ATOM     22  H   UNL     1     -10.704 -47.277  30.383  1.00  0.00     0.156 HD
ENDBRANCH  15  20
TORSDOF 1
ENDMDL
MODEL 4
REMARK VINA RESULT:   -10.006      2.926      5.099
REMARK INTER + INTRA:         -10.299
REMARK INTER:                 -10.299
REMARK INTRA:                   0.000
REMARK UNBOUND:                 0.000
REMARK SMILES CC1=C[C@H]2Cc3nc4cc(Cl)ccc4c(N)c3[C@@H](C1)C2
REMARK SMILES IDX 1 1 2 2 3 3 4 4 5 5 6 6 7 7 8 8 9 9 10 10 11 11 12 12 13 13
REMARK SMILES IDX 14 14 15 15 17 16 18 17 19 18 20 19 16 20
REMARK H PARENT 16 21 16 22
ROOT
ATOM      1  C   UNL     1     -12.411 -45.833  31.814  1.00  0.00     0.039 C 
ATOM      2  C   UNL     1     -12.536 -46.239  30.367  1.00  0.00    -0.076 C 
ATOM      3  C   UNL     1     -13.734 -46.417  29.859  1.00  0.00    -0.024 C 
ATOM      4  C   UNL     1     -13.161 -44.969  27.234  1.00  0.00     0.018 C 
ATOM      5  C   UNL     1     -13.706 -44.689  28.586  1.00  0.00     0.064 C 
ATOM      6  C   UNL     1     -12.483 -44.674  29.429  1.00  0.00     0.047 A 
ATOM      7  N   UNL     1     -12.402 -43.785  30.437  1.00  0.00    -0.252 NA
ATOM      8  C   UNL     1     -11.320 -43.722  31.235  1.00  0.00     0.074 A 
ATOM      9  C   UNL     1     -11.323 -42.789  32.234  1.00  0.00     0.049 A 
ATOM     10  C   UNL     1     -10.209 -42.708  33.073  1.00  0.00     0.043 A 
ATOM     11  Cl  UNL     1     -10.219 -41.496  34.364  1.00  0.00    -0.084 Cl
ATOM     12  C   UNL     1      -9.118 -43.539  32.919  1.00  0.00     0.021 A 
ATOM     13  C   UNL     1      -9.125 -44.479  31.906  1.00  0.00     0.014 A 
ATOM     14  C   UNL     1     -10.225 -44.559  31.077  1.00  0.00     0.024 A 
ATOM     15  C   UNL     1     -10.294 -45.479  30.045  1.00  0.00     0.046 A 
ATOM     16  C   UNL     1     -11.418 -45.525  29.237  1.00  0.00     0.001 A 
ATOM     17  C   UNL     1     -11.460 -46.522  28.139  1.00  0.00     0.028 C 
ATOM     18  C   UNL     1     -11.271 -46.407  29.619  1.00  0.00     0.039 C 
ATOM     19  C   UNL     1     -12.529 -46.332  27.078  1.00  0.00     0.017 C 
ENDROOT
BRANCH  15  20
ATOM     20  N   UNL     1      -9.201 -46.371  29.828  1.00  0.00    -0.398 N 
ATOM     21  H   UNL     1      -9.331 -47.348  29.475  1.00  0.00     0.156 HD
ATOM     22  H   UNL     1      -8.203 -46.082  30.014  1.00  0.00     0.156 HD
ENDBRANCH  15  20
TORSDOF 1
ENDMDL
MODEL 5
REMARK VINA RESULT:    -9.516      1.552      2.592
REMARK INTER + INTRA:          -9.794
REMARK INTER:                  -9.794
REMARK INTRA:                   0.000
REMARK UNBOUND:                 0.000
REMARK SMILES CC1=C[C@H]2Cc3nc4cc(Cl)ccc4c(N)c3[C@@H](C1)C2
REMARK SMILES IDX 1 1 2 2 3 3 4 4 5 5 6 6 7 7 8 8 9 9 10 10 11 11 12 12 13 13
REMARK SMILES IDX 14 14 15 15 17 16 18 17 19 18 20 19 16 20
REMARK H PARENT 16 21 16 22
ROOT
ATOM      1  C   UNL     1     -11.898 -43.190  27.651  1.00  0.00     0.039 C 
ATOM      2  C   UNL     1     -11.440 -44.128  28.739  1.00  0.00    -0.076 C 
ATOM      3  C   UNL     1     -11.029 -43.624  29.881  1.00  0.00    -0.024 C 
ATOM      4  C   UNL     1     -12.493 -45.643  31.640  1.00  0.00     0.018 C 
ATOM      5  C   UNL     1     -12.700 -44.298  31.047  1.00  0.00     0.064 C 
ATOM      6  C   UNL     1     -12.964 -44.613  29.619  1.00  0.00     0.047 A 
ATOM      7  N   UNL     1     -13.877 -43.881  28.953  1.00  0.00    -0.252 NA
ATOM      8  C   UNL     1     -14.160 -44.118  27.658  1.00  0.00     0.074 A 
ATOM      9  C   UNL     1     -15.100 -43.327  27.061  1.00  0.00     0.049 A 
ATOM     10  C   UNL     1     -15.408 -43.556  25.718  1.00  0.00     0.043 A 
ATOM     11  Cl  UNL     1     -16.628 -42.528  24.949  1.00  0.00    -0.084 Cl
ATOM     12  C   UNL     1     -14.792 -44.553  24.988  1.00  0.00     0.021 A 
ATOM     13  C   UNL     1     -13.842 -45.347  25.602  1.00  0.00     0.014 A 
ATOM     14  C   UNL     1     -13.538 -45.121  26.928  1.00  0.00     0.024 A 
ATOM     15  C   UNL     1     -12.597 -45.881  27.600  1.00  0.00     0.046 A 
ATOM     16  C   UNL     1     -12.322 -45.619  28.932  1.00  0.00     0.001 A 
ATOM     17  C   UNL     1     -11.308 -46.452  29.624  1.00  0.00     0.028 C 
ATOM     18  C   UNL     1     -11.493 -45.573  28.427  1.00  0.00     0.039 C 
ATOM     19  C   UNL     1     -11.269 -46.373  31.139  1.00  0.00     0.017 C 
ENDROOT
BRANCH  15  20
ATOM     20  N   UNL     1     -11.919 -46.929  26.908  1.00  0.00    -0.398 N 
ATOM     21  H   UNL     1     -12.426 -47.672  26.372  1.00  0.00     0.156 HD
ATOM     22  H   UNL     1     -10.866 -47.002  26.904  1.00  0.00     0.156 HD
ENDBRANCH  15  20
TORSDOF 1
ENDMDL
MODEL 6
REMARK VINA RESULT:    -9.386      2.845      5.315
REMARK INTER + INTRA:          -9.661
REMARK INTER:                  -9.661
REMARK INTRA:                   0.000
REMARK UNBOUND:                 0.000
REMARK SMILES CC1=C[C@H]2Cc3nc4cc(Cl)ccc4c(N)c3[C@@H](C1)C2
REMARK SMILES IDX 1 1 2 2 3 3 4 4 5 5 6 6 7 7 8 8 9 9 10 10 11 11 12 12 13 13
REMARK SMILES IDX 14 14 15 15 17 16 18 17 19 18 20 19 16 20
REMARK H PARENT 16 21 16 22
ROOT
ATOM      1  C   UNL     1     -10.175 -46.215  28.497  1.00  0.00     0.039 C 
ATOM      2  C   UNL     1     -11.523 -45.691  28.070  1.00  0.00    -0.076 C 
ATOM      3  C   UNL     1     -12.542 -46.519  28.030  1.00  0.00    -0.024 C 
ATOM      4  C   UNL     1     -14.535 -44.602  29.322  1.00  0.00     0.018 C 
ATOM      5  C   UNL     1     -13.590 -45.681  29.705  1.00  0.00     0.064 C 
ATOM      6  C   UNL     1     -12.269 -45.009  29.590  1.00  0.00     0.047 A 
ATOM      7  N   UNL     1     -11.312 -45.305  30.489  1.00  0.00    -0.252 NA
ATOM      8  C   UNL     1     -10.097 -44.729  30.438  1.00  0.00     0.074 A 
ATOM      9  C   UNL     1      -9.185 -45.088  31.391  1.00  0.00     0.049 A 
ATOM     10  C   UNL     1      -7.918 -44.502  31.355  1.00  0.00     0.043 A 
ATOM     11  Cl  UNL     1      -6.742 -44.970  32.593  1.00  0.00    -0.084 Cl
ATOM     12  C   UNL     1      -7.568 -43.579  30.390  1.00  0.00     0.021 A 
ATOM     13  C   UNL     1      -8.497 -43.223  29.431  1.00  0.00     0.014 A 
ATOM     14  C   UNL     1      -9.749 -43.802  29.466  1.00  0.00     0.024 A 
ATOM     15  C   UNL     1     -10.723 -43.488  28.534  1.00  0.00     0.046 A 
ATOM     16  C   UNL     1     -11.967 -44.093  28.607  1.00  0.00     0.001 A 
ATOM     17  C   UNL     1     -12.990 -43.735  27.594  1.00  0.00     0.028 C 
ATOM     18  C   UNL     1     -11.592 -44.254  27.725  1.00  0.00     0.039 C 
ATOM     19  C   UNL     1     -14.422 -44.144  27.887  1.00  0.00     0.017 C 
ENDROOT
BRANCH  15  20
ATOM     20  N   UNL     1     -10.431 -42.542  27.507  1.00  0.00    -0.398 N 
ATOM     21  H   UNL     1     -10.851 -42.599  26.549  1.00  0.00     0.156 HD
ATOM     22  H   UNL     1      -9.771 -41.733  27.668  1.00  0.00     0.156 HD
ENDBRANCH  15  20
TORSDOF 1
ENDMDL
MODEL 7
REMARK VINA RESULT:    -9.118      3.317      4.756
REMARK INTER + INTRA:          -9.385
REMARK INTER:                  -9.385
REMARK INTRA:                   0.000
REMARK UNBOUND:                 0.000
REMARK SMILES CC1=C[C@H]2Cc3nc4cc(Cl)ccc4c(N)c3[C@@H](C1)C2
REMARK SMILES IDX 1 1 2 2 3 3 4 4 5 5 6 6 7 7 8 8 9 9 10 10 11 11 12 12 13 13
REMARK SMILES IDX 14 14 15 15 17 16 18 17 19 18 20 19 16 20
REMARK H PARENT 16 21 16 22
ROOT
ATOM      1  C   UNL     1     -10.882 -42.348  29.794  1.00  0.00     0.039 C 
ATOM      2  C   UNL     1     -11.226 -43.506  28.892  1.00  0.00    -0.076 C 
ATOM      3  C   UNL     1     -10.417 -43.799  27.898  1.00  0.00    -0.024 C 
ATOM      4  C   UNL     1     -10.501 -46.819  28.329  1.00  0.00     0.018 C 
ATOM      5  C   UNL     1      -9.690 -45.640  28.726  1.00  0.00     0.064 C 
ATOM      6  C   UNL     1     -10.556 -44.979  29.736  1.00  0.00     0.047 A 
ATOM      7  N   UNL     1      -9.979 -44.407  30.809  1.00  0.00    -0.252 NA
ATOM      8  C   UNL     1     -10.710 -43.793  31.758  1.00  0.00     0.074 A 
ATOM      9  C   UNL     1     -10.041 -43.240  32.813  1.00  0.00     0.049 A 
ATOM     10  C   UNL     1     -10.781 -42.598  33.809  1.00  0.00     0.043 A 
ATOM     11  Cl  UNL     1      -9.908 -41.884  35.174  1.00  0.00    -0.084 Cl
ATOM     12  C   UNL     1     -12.158 -42.511  33.752  1.00  0.00     0.021 A 
ATOM     13  C   UNL     1     -12.824 -43.073  32.681  1.00  0.00     0.014 A 
ATOM     14  C   UNL     1     -12.093 -43.707  31.698  1.00  0.00     0.024 A 
ATOM     15  C   UNL     1     -12.701 -44.290  30.599  1.00  0.00     0.046 A 
ATOM     16  C   UNL     1     -11.928 -44.917  29.635  1.00  0.00     0.001 A 
ATOM     17  C   UNL     1     -12.610 -45.532  28.471  1.00  0.00     0.028 C 
ATOM     18  C   UNL     1     -12.473 -44.236  29.206  1.00  0.00     0.039 C 
ATOM     19  C   UNL     1     -11.793 -46.487  27.620  1.00  0.00     0.017 C 
ENDROOT
BRANCH  15  20
ATOM     20  N   UNL     1     -14.122 -44.237  30.475  1.00  0.00    -0.398 N 
ATOM     21  H   UNL     1     -14.744 -43.894  31.244  1.00  0.00     0.156 HD
ATOM     22  H   UNL     1     -14.614 -44.545  29.593  1.00  0.00     0.156 HD
ENDBRANCH  15  20
TORSDOF 1
ENDMDL
MODEL 8
REMARK VINA RESULT:    -8.819      3.384      5.487
REMARK INTER + INTRA:          -9.077
REMARK INTER:                  -9.077
REMARK INTRA:                   0.000
REMARK UNBOUND:                 0.000
REMARK SMILES CC1=C[C@H]2Cc3nc4cc(Cl)ccc4c(N)c3[C@@H](C1)C2
REMARK SMILES IDX 1 1 2 2 3 3 4 4 5 5 6 6 7 7 8 8 9 9 10 10 11 11 12 12 13 13
REMARK SMILES IDX 14 14 15 15 17 16 18 17 19 18 20 19 16 20
REMARK H PARENT 16 21 16 22
ROOT
ATOM      1  C   UNL     1      -9.903 -42.449  29.719  1.00  0.00     0.039 C 
ATOM      2  C   UNL     1     -11.084 -43.288  29.303  1.00  0.00    -0.076 C 
ATOM      3  C   UNL     1     -11.176 -43.679  28.052  1.00  0.00    -0.024 C 
ATOM      4  C   UNL     1     -12.029 -46.538  28.696  1.00  0.00     0.018 C 
ATOM      5  C   UNL     1     -10.795 -45.757  28.429  1.00  0.00     0.064 C 
ATOM      6  C   UNL     1     -10.608 -45.006  29.697  1.00  0.00     0.047 A 
ATOM      7  N   UNL     1      -9.358 -44.815  30.159  1.00  0.00    -0.252 NA
ATOM      8  C   UNL     1      -9.125 -44.143  31.302  1.00  0.00     0.074 A 
ATOM      9  C   UNL     1      -7.825 -43.997  31.696  1.00  0.00     0.049 A 
ATOM     10  C   UNL     1      -7.562 -43.302  32.879  1.00  0.00     0.043 A 
ATOM     11  Cl  UNL     1      -5.875 -43.117  33.386  1.00  0.00    -0.084 Cl
ATOM     12  C   UNL     1      -8.573 -42.766  33.651  1.00  0.00     0.021 A 
ATOM     13  C   UNL     1      -9.884 -42.919  33.243  1.00  0.00     0.014 A 
ATOM     14  C   UNL     1     -10.144 -43.605  32.075  1.00  0.00     0.024 A 
ATOM     15  C   UNL     1     -11.435 -43.793  31.612  1.00  0.00     0.046 A 
ATOM     16  C   UNL     1     -11.651 -44.488  30.433  1.00  0.00     0.001 A 
ATOM     17  C   UNL     1     -13.046 -44.672  29.964  1.00  0.00     0.028 C 
ATOM     18  C   UNL     1     -12.066 -43.612  30.361  1.00  0.00     0.039 C 
ATOM     19  C   UNL     1     -13.276 -45.705  28.877  1.00  0.00     0.017 C 
ENDROOT
BRANCH  15  20
ATOM     20  N   UNL     1     -12.531 -43.264  32.359  1.00  0.00    -0.398 N 
ATOM     21  H   UNL     1     -12.411 -42.529  33.094  1.00  0.00     0.156 HD
ATOM     22  H   UNL     1     -13.521 -43.595  32.201  1.00  0.00     0.156 HD
ENDBRANCH  15  20
TORSDOF 1
ENDMDL
MODEL 9
REMARK VINA RESULT:    -8.627      6.340     10.238
REMARK INTER + INTRA:          -8.880
REMARK INTER:                  -8.880
REMARK INTRA:                   0.000
REMARK UNBOUND:                 0.000
REMARK SMILES CC1=C[C@H]2Cc3nc4cc(Cl)ccc4c(N)c3[C@@H](C1)C2
REMARK SMILES IDX 1 1 2 2 3 3 4 4 5 5 6 6 7 7 8 8 9 9 10 10 11 11 12 12 13 13
REMARK SMILES IDX 14 14 15 15 17 16 18 17 19 18 20 19 16 20
REMARK H PARENT 16 21 16 22
ROOT
ATOM      1  C   UNL     1     -20.173 -43.627  24.760  1.00  0.00     0.039 C 
ATOM      2  C   UNL     1     -20.575 -42.752  23.600  1.00  0.00    -0.076 C 
ATOM      3  C   UNL     1     -21.853 -42.540  23.378  1.00  0.00    -0.024 C 
ATOM      4  C   UNL     1     -21.566 -39.552  22.827  1.00  0.00     0.018 C 
ATOM      5  C   UNL     1     -21.849 -40.473  23.956  1.00  0.00     0.064 C 
ATOM      6  C   UNL     1     -20.510 -41.047  24.248  1.00  0.00     0.047 A 
ATOM      7  N   UNL     1     -20.171 -41.282  25.529  1.00  0.00    -0.252 NA
ATOM      8  C   UNL     1     -18.972 -41.801  25.856  1.00  0.00     0.074 A 
ATOM      9  C   UNL     1     -18.712 -42.007  27.181  1.00  0.00     0.049 A 
ATOM     10  C   UNL     1     -17.474 -42.544  27.541  1.00  0.00     0.043 A 
ATOM     11  Cl  UNL     1     -17.143 -42.808  29.261  1.00  0.00    -0.084 Cl
ATOM     12  C   UNL     1     -16.517 -42.867  26.600  1.00  0.00     0.021 A 
ATOM     13  C   UNL     1     -16.790 -42.655  25.263  1.00  0.00     0.014 A 
ATOM     14  C   UNL     1     -18.013 -42.125  24.907  1.00  0.00     0.024 A 
ATOM     15  C   UNL     1     -18.348 -41.888  23.585  1.00  0.00     0.046 A 
ATOM     16  C   UNL     1     -19.587 -41.355  23.272  1.00  0.00     0.001 A 
ATOM     17  C   UNL     1     -19.916 -41.112  21.846  1.00  0.00     0.028 C 
ATOM     18  C   UNL     1     -19.475 -42.189  22.787  1.00  0.00     0.039 C 
ATOM     19  C   UNL     1     -21.117 -40.231  21.555  1.00  0.00     0.017 C 
ENDROOT
BRANCH  15  20
ATOM     20  N   UNL     1     -17.407 -42.200  22.558  1.00  0.00    -0.398 N 
ATOM     21  H   UNL     1     -16.410 -41.881  22.589  1.00  0.00     0.156 HD
ATOM     22  H   UNL     1     -17.677 -42.771  21.712  1.00  0.00     0.156 HD
ENDBRANCH  15  20
TORSDOF 1
ENDMDL
